@<TRIPOS>MOLECULE
tmp/5mxyA00.pdb
 224 215 0 0 0
SMALL
GASTEIGER

@<TRIPOS>ATOM
      1  N          1.0870    3.6720   -8.9500 N.3     7  TYR7       -0.1241
      2  CA         0.7520    2.2530   -9.0950 C.3     7  TYR7        0.1605
      3  C          1.3960    1.3880   -8.0070 C.2     7  TYR7        0.2264
      4  O          0.7360    0.5270   -7.4150 O.2     7  TYR7       -0.2867
      5  CB         1.1300    1.7440  -10.4970 C.3     7  TYR7        0.0534
      6  CG         0.8000    0.2830  -10.7330 C.ar    7  TYR7       -0.0201
      7  CD1        1.7210   -0.7220  -10.4010 C.ar    7  TYR7       -0.0009
      8  CD2       -0.4310   -0.1020  -11.2910 C.ar    7  TYR7       -0.0009
      9  CE1        1.4260   -2.0640  -10.6030 C.ar    7  TYR7        0.0417
     10  CE2       -0.7340   -1.4490  -11.4990 C.ar    7  TYR7        0.0417
     11  CZ         0.1990   -2.4210  -11.1500 C.ar    7  TYR7        0.1957
     12  OH        -0.0750   -3.7550  -11.3530 O.3     7  TYR7       -0.2866
     13  N         -0.3710    2.1750   -4.6430 N.3    10  HIS10      -0.1226
     14  CA        -1.8170    1.9530   -4.4880 C.3    10  HIS10       0.1752
     15  C         -2.3950    0.6970   -5.1390 C.2    10  HIS10       0.2596
     16  O         -3.4880    0.2660   -4.7750 O.2    10  HIS10      -0.2718
     17  CB        -2.6020    3.1740   -4.9890 C.3    10  HIS10       0.0759
     18  CG        -2.3420    4.4280   -4.2140 C.ar   10  HIS10       0.0818
     19  ND1       -2.7170    4.5840   -2.8960 N.ar   10  HIS10      -0.2268
     20  CD2       -1.7610    5.5950   -4.5800 C.ar   10  HIS10       0.1154
     21  CE1       -2.3670    5.7880   -2.4800 C.ar   10  HIS10       0.1986
     22  NE2       -1.7890    6.4240   -3.4850 N.ar   10  HIS10      -0.2212
     23  N         -1.6790    0.1220   -6.1010 N.am   11  CYS11      -0.1970
     24  CA        -2.2590   -0.9180   -6.9580 C.3    11  CYS11       0.1712
     25  C         -1.5170   -2.2470   -6.9290 C.2    11  CYS11       0.2296
     26  O         -2.1460   -3.2980   -7.0860 O.2    11  CYS11      -0.2864
     27  CB        -2.3530   -0.4260   -8.4080 C.3    11  CYS11       0.0983
     28  SG        -2.8780    1.2960   -8.6020 S.3    11  CYS11      -0.0798
     29  N         -0.2120   -4.1350   -4.6770 N.3    13  THR13      -0.1203
     30  CA        -0.5790   -5.1140   -3.6330 C.3    13  THR13       0.1994
     31  C         -1.6380   -6.1160   -4.1010 C.2    13  THR13       0.2618
     32  O         -1.7090   -7.2320   -3.5820 O.2    13  THR13      -0.2717
     33  CB        -1.0520   -4.4470   -2.3220 C.3    13  THR13       0.1784
     34  OG1       -2.0910   -3.5000   -2.6050 O.3    13  THR13      -0.2211
     35  CG2        0.1100   -3.7580   -1.6090 C.3    13  THR13       0.0376
     36  N         -2.4520   -5.7200   -5.0800 N.am   14  CYS14      -0.1955
     37  CA        -3.4150   -6.6330   -5.6940 C.3    14  CYS14       0.1843
     38  C         -3.0370   -7.0370   -7.1170 C.2    14  CYS14       0.2625
     39  O         -3.1630   -8.2100   -7.4770 O.2    14  CYS14      -0.2714
     40  CB        -4.8200   -6.0370   -5.6910 C.3    14  CYS14       0.0997
     41  SG        -5.6530   -5.9610   -4.0850 S.3    14  CYS14      -0.0797
     42  N         -2.5820   -6.0730   -7.9190 N.am   15  HIS15      -0.1973
     43  CA        -2.3030   -6.3210   -9.3400 C.3    15  HIS15       0.1656
     44  C         -0.8780   -6.7660   -9.6740 C.2    15  HIS15       0.2291
     45  O         -0.6250   -7.2050  -10.7940 O.2    15  HIS15      -0.2864
     46  CB        -2.7280   -5.1280  -10.2010 C.3    15  HIS15       0.0771
     47  CG        -4.2070   -4.9360  -10.2540 C.ar   15  HIS15       0.0820
     48  ND1       -5.0370   -5.7700  -10.9670 N.ar   15  HIS15      -0.2267
     49  CD2       -5.0080   -4.0200   -9.6620 C.ar   15  HIS15       0.1154
     50  CE1       -6.2880   -5.3740  -10.8210 C.ar   15  HIS15       0.1986
     51  NE2       -6.2960   -4.3110  -10.0380 N.ar   15  HIS15      -0.2212
     52  N         -3.5340  -12.0820   -2.9290 N.3    24  LEU24      -0.1231
     53  CA        -4.6730  -11.2440   -2.5340 C.3    24  LEU24       0.1693
     54  C         -5.5670  -10.8610   -3.7220 C.2    24  LEU24       0.2592
     55  O         -6.7820  -11.0650   -3.6730 O.2    24  LEU24      -0.2718
     56  CB        -4.2000   -9.9810   -1.7880 C.3    24  LEU24       0.0284
     57  CG        -5.2330   -8.9350   -1.3270 C.3    24  LEU24       0.0019
     58  CD1       -6.2440   -9.4940   -0.3330 C.3    24  LEU24       0.0001
     59  CD2       -4.5410   -7.7100   -0.7460 C.3    24  LEU24       0.0001
     60  N         -4.9550  -10.3110   -4.7700 N.am   25  GLY25      -0.1957
     61  CA        -5.6780   -9.8630   -5.9680 C.3    25  GLY25       0.1869
     62  C         -6.4360  -10.9680   -6.6850 C.2    25  GLY25       0.2309
     63  O         -7.6170  -10.8030   -7.0130 O.2    25  GLY25      -0.2863
     64  N         -9.4980  -12.1670   -4.8090 N.3    28  LEU28      -0.1231
     65  CA       -10.5560  -11.1590   -4.9320 C.3    28  LEU28       0.1693
     66  C        -11.2190  -11.1080   -6.3110 C.2    28  LEU28       0.2593
     67  O        -12.3470  -10.6060   -6.4500 O.2    28  LEU28      -0.2718
     68  CB       -10.0160   -9.7760   -4.5490 C.3    28  LEU28       0.0284
     69  CG        -9.7350   -9.5490   -3.0610 C.3    28  LEU28       0.0019
     70  CD1       -8.7990   -8.3640   -2.9020 C.3    28  LEU28       0.0001
     71  CD2      -11.0130   -9.3570   -2.2560 C.3    28  LEU28       0.0001
     72  N        -10.5120  -11.5980   -7.3280 N.am   29  GLY29      -0.1942
     73  CA       -11.0840  -11.7370   -8.6680 C.3    29  GLY29       0.2014
     74  C        -10.3140  -11.1070   -9.8140 C.2    29  GLY29       0.2639
     75  O        -10.7970  -11.1150  -10.9500 O.2    29  GLY29      -0.2714
     76  N         -9.1230  -10.5770   -9.5280 N.am   30  ALA30      -0.1963
     77  CA        -8.3080   -9.8890  -10.5380 C.3    30  ALA30       0.1728
     78  C         -7.6580  -10.8590  -11.5210 C.2    30  ALA30       0.2616
     79  O         -7.2550  -11.9680  -11.1470 O.2    30  ALA30      -0.2715
     80  CB        -7.2510   -9.0120   -9.8820 C.3    30  ALA30       0.0334
     81  N         -7.5760  -10.4230  -12.7750 N.am   31  ARG31      -0.1977
     82  CA        -6.9070  -11.1610  -13.8560 C.3    31  ARG31       0.1597
     83  C         -5.6610  -10.3910  -14.2870 C.2    31  ARG31       0.2287
     84  O         -5.4890   -9.2330  -13.9010 O.2    31  ARG31      -0.2864
     85  CB        -7.8520  -11.3560  -15.0500 C.3    31  ARG31       0.0334
     86  CG        -8.9450  -12.3970  -14.8510 C.3    31  ARG31       0.0492
     87  CD       -10.2370  -11.7630  -14.3640 C.3    31  ARG31       0.2205
     88  NE       -11.3800  -12.6720  -14.4550 N.pl3  31  ARG31      -0.0865
     89  CZ       -12.3580  -12.5880  -15.3560 C.cat  31  ARG31       0.5346
     90  NH1      -12.3620  -11.6350  -16.2850 N.pl3  31  ARG31       0.1354
     91  NH2      -13.3480  -13.4650  -15.3270 N.pl3  31  ARG31       0.1354
     92  N         -2.9850   -8.1900  -16.3980 N.3    33  PHE33      -0.1241
     93  CA        -2.9920   -7.0670  -17.3410 C.3    33  PHE33       0.1605
     94  C         -2.2420   -7.3830  -18.6440 C.2    33  PHE33       0.2264
     95  O         -2.6680   -6.9450  -19.7220 O.2    33  PHE33      -0.2867
     96  CB        -2.4230   -5.7920  -16.6920 C.3    33  PHE33       0.0534
     97  CG        -3.3440   -5.1420  -15.6790 C.ar   33  PHE33      -0.0203
     98  CD1       -4.7340   -5.1020  -15.8790 C.ar   33  PHE33      -0.0042
     99  CD2       -2.8180   -4.5310  -14.5410 C.ar   33  PHE33      -0.0042
    100  CE1       -5.5720   -4.4890  -14.9490 C.ar   33  PHE33      -0.0003
    101  CE2       -3.6530   -3.9220  -13.6020 C.ar   33  PHE33      -0.0003
    102  CZ        -5.0280   -3.8980  -13.8120 C.ar   33  PHE33      -0.0000
    103  N         -7.3490   -9.0330  -23.4310 N.3    38  TRP38      -0.1241
    104  CA        -7.9000   -8.0760  -22.4610 C.3    38  TRP38       0.1605
    105  C         -7.6080   -6.6310  -22.8800 C.2    38  TRP38       0.2264
    106  O         -8.5220   -5.8070  -22.9210 O.2    38  TRP38      -0.2867
    107  CB        -7.4200   -8.3370  -21.0240 C.3    38  TRP38       0.0550
    108  CG        -8.0120   -7.3340  -20.0600 C.ar   38  TRP38       0.0003
    109  CD1       -9.2580   -7.3730  -19.4910 C.ar   38  TRP38       0.0946
    110  CD2       -7.4030   -6.1180  -19.6080 C.ar   38  TRP38       0.0152
    111  NE1       -9.4550   -6.2650  -18.6980 N.ar   38  TRP38      -0.2442
    112  CE2       -8.3350   -5.4760  -18.7520 C.ar   38  TRP38       0.0810
    113  CE3       -6.1600   -5.5050  -19.8410 C.ar   38  TRP38       0.0012
    114  CZ2       -8.0620   -4.2550  -18.1240 C.ar   38  TRP38       0.0191
    115  CZ3       -5.8840   -4.2880  -19.2130 C.ar   38  TRP38       0.0001
    116  CH2       -6.8360   -3.6770  -18.3650 C.ar   38  TRP38       0.0015
    117  N        -10.5080   -3.6430  -23.9990 N.3    42  THR42      -0.1218
    118  CA       -10.6340   -2.6600  -22.9140 C.3    42  THR42       0.1862
    119  C        -10.2620   -1.2520  -23.3900 C.2    42  THR42       0.2287
    120  O         -9.1630   -1.0360  -23.9060 O.2    42  THR42      -0.2866
    121  CB        -9.7780   -3.0740  -21.6970 C.3    42  THR42       0.1770
    122  OG1      -10.1660   -4.3870  -21.2720 O.3    42  THR42      -0.2211
    123  CG2       -9.9400   -2.1000  -20.5220 C.3    42  THR42       0.0375
    124  N        -12.8470    2.7440  -19.7620 N.3    46  ARG46      -0.1231
    125  CA       -13.1560    1.5890  -18.9060 C.3    46  ARG46       0.1694
    126  C        -12.1280    1.4580  -17.7800 C.2    46  ARG46       0.2591
    127  O        -12.4960    1.1540  -16.6420 O.2    46  ARG46      -0.2718
    128  CB       -13.2540    0.2970  -19.7430 C.3    46  ARG46       0.0321
    129  CG       -13.3030   -1.0320  -18.9750 C.3    46  ARG46       0.0489
    130  CD       -14.7030   -1.4230  -18.5010 C.3    46  ARG46       0.2205
    131  NE       -15.1770   -0.6250  -17.3650 N.pl3  46  ARG46      -0.0865
    132  CZ       -14.9190   -0.8790  -16.0800 C.cat  46  ARG46       0.5346
    133  NH1      -14.1800   -1.9210  -15.7190 N.pl3  46  ARG46       0.1354
    134  NH2      -15.4070   -0.0820  -15.1430 N.pl3  46  ARG46       0.1354
    135  N        -10.8520    1.6860  -18.1040 N.am   47  ILE47      -0.1980
    136  CA        -9.7670    1.6680  -17.1150 C.3    47  ILE47       0.1595
    137  C         -9.9690    2.8070  -16.1090 C.2    47  ILE47       0.2287
    138  O         -9.8420    2.5840  -14.9050 O.2    47  ILE47      -0.2864
    139  CB        -8.3530    1.7170  -17.7780 C.3    47  ILE47       0.0276
    140  CG1       -8.0740    0.4080  -18.5410 C.3    47  ILE47       0.0022
    141  CG2       -7.2470    1.9760  -16.7500 C.3    47  ILE47       0.0022
    142  CD1       -6.9850    0.4940  -19.5960 C.3    47  ILE47       0.0001
    143  N        -13.0740    2.0540  -13.8600 N.3    50  GLN50      -0.1231
    144  CA       -12.6930    1.0420  -12.8740 C.3    50  GLN50       0.1698
    145  C        -11.8700    1.6180  -11.7110 C.2    50  GLN50       0.2592
    146  O        -12.1780    1.3480  -10.5490 O.2    50  GLN50      -0.2718
    147  CB       -11.9490   -0.1290  -13.5290 C.3    50  GLN50       0.0381
    148  CG       -11.6750   -1.2830  -12.5660 C.3    50  GLN50       0.0905
    149  CD       -12.9340   -2.0110  -12.1340 C.2    50  GLN50       0.2608
    150  OE1      -13.8770   -2.1530  -12.9110 O.2    50  GLN50      -0.2717
    151  NE2      -12.9590   -2.4650  -10.8780 N.am   50  GLN50      -0.0878
    152  N        -10.8410    2.4040  -12.0250 N.am   51  ILE51      -0.1980
    153  CA       -10.0490    3.0780  -10.9880 C.3    51  ILE51       0.1595
    154  C        -10.9450    3.9780  -10.1220 C.2    51  ILE51       0.2287
    155  O        -10.8740    3.9080   -8.8930 O.2    51  ILE51      -0.2864
    156  CB        -8.8460    3.8710  -11.5550 C.3    51  ILE51       0.0276
    157  CG1       -7.9050    2.9430  -12.3320 C.3    51  ILE51       0.0022
    158  CG2       -8.0710    4.5580  -10.4290 C.3    51  ILE51       0.0022
    159  CD1       -6.9940    3.6450  -13.3250 C.3    51  ILE51       0.0001
    160  N        -15.1620   -2.0710   -7.9150 N.3    55  THR55      -0.1218
    161  CA       -16.1550   -3.1220   -8.0550 C.3    55  THR55       0.1862
    162  C        -16.4930   -3.5800   -6.6360 C.2    55  THR55       0.2287
    163  O        -15.5820   -3.8820   -5.8570 O.2    55  THR55      -0.2866
    164  CB       -15.6180   -4.3140   -8.8840 C.3    55  THR55       0.1770
    165  OG1      -15.2250   -3.8610  -10.1820 O.3    55  THR55      -0.2211
    166  CG2      -16.6780   -5.4030   -9.0480 C.3    55  THR55       0.0375
    167  N        -14.6790   -6.3620   -4.4480 N.3    58  MET58      -0.1230
    168  CA       -13.5240   -6.7570   -5.2590 C.3    58  MET58       0.1702
    169  C        -12.4040   -5.7210   -5.2460 C.2    58  MET58       0.2592
    170  O        -11.2640   -6.0420   -4.9190 O.2    58  MET58      -0.2718
    171  CB       -13.9560   -7.0800   -6.6970 C.3    58  MET58       0.0401
    172  CG       -14.9080   -8.2570   -6.8230 C.3    58  MET58       0.0596
    173  SD       -15.0090   -8.8850   -8.5070 S.3    58  MET58      -0.1393
    174  CE       -16.5090   -9.8530   -8.4010 C.3    58  MET58       0.0692
    175  N        -12.7410   -4.4800   -5.5990 N.am   59  MET59      -0.1965
    176  CA       -11.7720   -3.3950   -5.6960 C.3    59  MET59       0.1736
    177  C        -12.4300   -2.1270   -5.1660 C.2    59  MET59       0.2616
    178  O        -13.5490   -1.7930   -5.5550 O.2    59  MET59      -0.2715
    179  CB       -11.3370   -3.2200   -7.1630 C.3    59  MET59       0.0427
    180  CG       -10.3120   -2.1300   -7.4120 C.3    59  MET59       0.0599
    181  SD        -9.7300   -2.0270   -9.1270 S.3    59  MET59      -0.1393
    182  CE        -9.5710   -0.2520   -9.2090 C.3    59  MET59       0.0692
    183  N        -11.7390   -1.4420   -4.2570 N.am   60  MET60      -0.1977
    184  CA       -12.2420   -0.1860   -3.6960 C.3    60  MET60       0.1605
    185  C        -12.2760    0.9250   -4.7620 C.2    60  MET60       0.2287
    186  O        -11.4510    0.9130   -5.6830 O.2    60  MET60      -0.2864
    187  CB       -11.4210    0.2450   -2.4660 C.3    60  MET60       0.0413
    188  CG        -9.9500    0.5650   -2.7240 C.3    60  MET60       0.0598
    189  SD        -8.9220   -0.8980   -2.9930 S.3    60  MET60      -0.1393
    190  CE        -8.5520   -1.3770   -1.3060 C.3    60  MET60       0.0692
    191  N        -11.3210    4.5640   -6.1150 N.3    62  PHE62      -0.1241
    192  CA       -10.1790    5.4620   -5.8610 C.3    62  PHE62       0.1605
    193  C        -10.4690    6.9460   -6.0990 C.2    62  PHE62       0.2264
    194  O         -9.5780    7.7790   -5.9270 O.2    62  PHE62      -0.2867
    195  CB        -8.9380    5.0280   -6.6570 C.3    62  PHE62       0.0534
    196  CG        -8.2170    3.8550   -6.0610 C.ar   62  PHE62      -0.0203
    197  CD1       -8.5960    2.5450   -6.3860 C.ar   62  PHE62      -0.0042
    198  CD2       -7.1610    4.0520   -5.1630 C.ar   62  PHE62      -0.0042
    199  CE1       -7.9320    1.4600   -5.8240 C.ar   62  PHE62      -0.0003
    200  CE2       -6.4900    2.9660   -4.6030 C.ar   62  PHE62      -0.0003
    201  CZ        -6.8820    1.6680   -4.9310 C.ar   62  PHE62      -0.0000
    202  N         -7.6390    9.7630   -5.4250 N.3    66  LEU66      -0.1245
    203  CA        -6.8260   10.2940   -6.5250 C.3    66  LEU66       0.1561
    204  C         -7.6110   11.2910   -7.3660 C.2    66  LEU66       0.2260
    205  O         -8.8060   11.0970   -7.6060 O.2    66  LEU66      -0.2867
    206  CB        -6.3340    9.1570   -7.4360 C.3    66  LEU66       0.0270
    207  CG        -5.6820    7.9020   -6.8460 C.3    66  LEU66       0.0019
    208  CD1       -5.7040    6.7800   -7.8720 C.3    66  LEU66       0.0001
    209  CD2       -4.2610    8.1620   -6.3550 C.3    66  LEU66       0.0001
    210  N         -2.3570    6.7410  -14.6070 N.3    74  LEU74      -0.1245
    211  CA        -2.2750    5.2890  -14.4230 C.3    74  LEU74       0.1561
    212  C         -2.5880    4.4900  -15.6870 C.2    74  LEU74       0.2260
    213  O         -2.2160    3.3170  -15.7760 O.2    74  LEU74      -0.2867
    214  CB        -3.1680    4.8250  -13.2620 C.3    74  LEU74       0.0270
    215  CG        -2.7190    5.2140  -11.8480 C.3    74  LEU74       0.0019
    216  CD1       -3.9020    5.2720  -10.9010 C.3    74  LEU74       0.0001
    217  CD2       -1.6550    4.2510  -11.3350 C.3    74  LEU74       0.0001
    218  N         -0.9870    0.6240  -16.8160 N.3    78  VAL78      -0.1245
    219  CA        -1.8330   -0.5330  -17.1190 C.3    78  VAL78       0.1561
    220  C         -1.6020   -1.0450  -18.5550 C.2    78  VAL78       0.2260
    221  O         -1.4800   -2.2570  -18.7780 O.2    78  VAL78      -0.2867
    222  CB        -3.3350   -0.2060  -16.8670 C.3    78  VAL78       0.0252
    223  CG1       -4.2410   -1.3060  -17.3940 C.3    78  VAL78       0.0019
    224  CG2       -3.5990    0.0120  -15.3790 C.3    78  VAL78       0.0019
@<TRIPOS>BOND
     1   117   118    1
     2   120   119    2
     3   103   104    1
     4   119   118    1
     5   106   105    2
     6   118   121    1
     7   105   104    1
     8   104   107    1
     9   121   122    1
    10   121   123    1
    11   107   108    1
    12   108   110   ar
    13   108   109   ar
    14   113   110   ar
    15   113   115   ar
    16   124   125    1
    17   128   129    1
    18   128   125    1
    19    95    94    2
    20   110   112   ar
    21   142   140    1
    22   109   111   ar
    23   115   116   ar
    24   129   130    1
    25   125   126    1
    26   221   220    2
    27   112   111   ar
    28   112   114   ar
    29    94    93    1
    30   220   219    1
    31   140   139    1
    32   130   131    1
    33   116   114   ar
    34   135   126   am
    35   135   136    1
    36   126   127    2
    37   139   136    1
    38   139   141    1
    39   223   222    1
    40   131   132    2
    41    93    96    1
    42    93    92    1
    43   219   222    1
    44   219   218    1
    45   136   137    1
    46   222   224    1
    47    96    97    1
    48    90    89    1
    49   137   138    2
    50   132   133    1
    51   132   134    1
    52    98    97   ar
    53    98   100   ar
    54   213   212    2
    55   212   211    1
    56    97    99   ar
    57    89    91    1
    58    89    88    2
    59    85    86    1
    60    85    82    1
    61   100   102   ar
    62    86    87    1
    63   210   211    1
    64    99   101   ar
    65    88    87    1
    66   211   214    1
    67    83    84    2
    68    83    82    1
    69   143   144    1
    70    82    81    1
    71   102   101   ar
    72   147   144    1
    73   147   148    1
    74   159   157    1
    75   214   215    1
    76   150   149    2
    77   144   145    1
    78    81    78   am
    79   148   149    1
    80   157   156    1
    81   149   151   am
    82   152   145   am
    83   152   153    1
    84   215   217    1
    85   215   216    1
    86   145   146    2
    87   156   153    1
    88   156   158    1
    89    78    79    2
    90    78    77    1
    91    10     8   ar
    92    10    11   ar
    93    12    11    1
    94     8     6   ar
    95    11     9   ar
    96   153   154    1
    97    48    50   ar
    98    48    47   ar
    99    75    74    2
   100    50    51   ar
   101    45    44    2
   102     6     5    1
   103     6     7   ar
   104     9     7   ar
   105    77    80    1
   106    77    76    1
   107     5     2    1
   108    47    46    1
   109    47    49   ar
   110    46    43    1
   111   165   164    1
   112   154   155    2
   113    51    49   ar
   114    74    76   am
   115    74    73    1
   116    44    43    1
   117    43    42    1
   118   182   181    1
   119   181   180    1
   120     2     1    1
   121     2     3    1
   122   166   164    1
   123   164   161    1
   124    73    72    1
   125    28    27    1
   126   173   174    1
   127   173   172    1
   128    27    24    1
   129   161   160    1
   130   161   162    1
   131     3     4    2
   132    42    38   am
   133   208   207    1
   134   205   204    2
   135    39    38    2
   136   206   207    1
   137   206   203    1
   138   180   179    1
   139   204   203    1
   140    72    66   am
   141   179   176    1
   142    38    37    1
   143    26    25    2
   144    63    62    2
   145    24    25    1
   146    24    23    1
   147   207   209    1
   148   172   171    1
   149   171   168    1
   150    62    61    1
   151   195   196    1
   152   195   192    1
   153   162   163    2
   154   203   202    1
   155    67    66    2
   156   197   196   ar
   157   197   199   ar
   158    66    65    1
   159   191   192    1
   160    23    15   am
   161   193   194    2
   162   193   192    1
   163   196   198   ar
   164    61    60    1
   165   199   201   ar
   166   176   175    1
   167   176   177    1
   168    37    40    1
   169    37    36    1
   170    40    41    1
   171   186   185    2
   172   175   169   am
   173   178   177    2
   174   168   169    1
   175   168   167    1
   176   169   170    2
   177   177   183   am
   178   198   200   ar
   179    15    16    2
   180    15    14    1
   181    36    31   am
   182    17    14    1
   183    17    18    1
   184    65    64    1
   185    65    68    1
   186   201   200   ar
   187    60    54   am
   188   185   184    1
   189    29    30    1
   190    13    14    1
   191    20    18   ar
   192    20    22   ar
   193    68    69    1
   194   183   184    1
   195    18    19   ar
   196    31    30    1
   197    31    32    2
   198    54    55    2
   199    54    53    1
   200   184   187    1
   201    30    33    1
   202    22    21   ar
   203    69    70    1
   204    69    71    1
   205   189   188    1
   206   189   190    1
   207    52    53    1
   208    19    21   ar
   209   188   187    1
   210    34    33    1
   211    53    56    1
   212    33    35    1
   213    56    57    1
   214    57    59    1
   215    57    58    1
