@<TRIPOS>MOLECULE
tmp/5my0C00.pdb
 185 173 0 0 0
SMALL
GASTEIGER

@<TRIPOS>ATOM
      1  N         34.8890  279.8710  149.3680 N.3   499  MET499     -0.1230
      2  CA        33.4690  279.6010  149.2320 C.3   499  MET499      0.1702
      3  C         32.6710  280.6760  149.9630 C.2   499  MET499      0.2592
      4  O         33.2420  281.4620  150.7510 O.2   499  MET499     -0.2718
      5  CB        33.1210  278.1980  149.7680 C.3   499  MET499      0.0401
      6  CG        33.5460  277.0410  148.8640 C.3   499  MET499      0.0596
      7  SD        32.5710  276.8900  147.3420 S.3   499  MET499     -0.1393
      8  CE        30.9540  276.4400  147.9580 C.3   499  MET499      0.0692
      9  N         31.3660  280.7290  149.6890 N.am  500  GLY500     -0.1957
     10  CA        30.5150  281.8150  150.1800 C.3   500  GLY500      0.1869
     11  C         30.3080  282.8910  149.1300 C.2   500  GLY500      0.2309
     12  O         29.3270  283.6340  149.1890 O.2   500  GLY500     -0.2863
     13  N         42.3840  281.9320  150.1540 N.3   580  HIS580     -0.1226
     14  CA        41.5510  281.5500  151.2890 C.3   580  HIS580      0.1752
     15  C         40.7650  280.3420  150.8140 C.2   580  HIS580      0.2596
     16  O         40.0300  280.4570  149.8280 O.2   580  HIS580     -0.2718
     17  CB        40.5760  282.6700  151.6110 C.3   580  HIS580      0.0759
     18  CG        39.7980  282.4690  152.8780 C.ar  580  HIS580      0.0818
     19  ND1       38.5760  281.8240  152.9090 N.ar  580  HIS580     -0.2268
     20  CD2       40.0420  282.8780  154.1520 C.ar  580  HIS580      0.1154
     21  CE1       38.1260  281.8100  154.1500 C.ar  580  HIS580      0.1986
     22  NE2       39.0040  282.4220  154.9280 N.ar  580  HIS580     -0.2212
     23  N         40.9230  279.1870  151.4610 N.am  581  SER581     -0.1952
     24  CA        40.1960  277.9820  151.0600 C.3   581  SER581      0.1924
     25  C         40.5510  277.6030  149.6310 C.2   581  SER581      0.2314
     26  O         41.7270  277.6280  149.2830 O.2   581  SER581     -0.2863
     27  CB        38.6600  278.0330  151.3370 C.3   581  SER581      0.2116
     28  OG        37.9980  276.7840  151.0170 O.3   581  SER581     -0.2180
     29  N         29.8670  275.3190  160.4620 N.3   620  MET620     -0.1245
     30  CA        30.8660  276.3210  160.8100 C.3   620  MET620      0.1570
     31  C         30.1700  277.6080  161.2230 C.2   620  MET620      0.2261
     32  O         29.0050  277.8510  160.8670 O.2   620  MET620     -0.2867
     33  CB        31.8140  276.5960  159.6420 C.3   620  MET620      0.0387
     34  CG        32.4780  275.3600  159.0810 C.3   620  MET620      0.0595
     35  SD        33.8750  275.6730  157.9760 S.3   620  MET620     -0.1393
     36  CE        33.0240  276.0380  156.4360 C.3   620  MET620      0.0692
     37  N         31.5240  281.8700  162.1720 N.3   622  ALA622     -0.1245
     38  CA        32.4850  282.9050  162.5220 C.3   622  ALA622      0.1562
     39  C         32.1220  283.3510  163.9110 C.2   622  ALA622      0.2260
     40  O         30.9450  283.4480  164.2180 O.2   622  ALA622     -0.2867
     41  CB        32.4410  284.0750  161.5500 C.3   622  ALA622      0.0290
     42  N         33.3560  285.9210  167.5050 N.3   624  GLY624     -0.1225
     43  CA        34.0900  287.1090  167.9550 C.3   624  GLY624      0.1811
     44  C         35.1340  286.8440  169.0360 C.2   624  GLY624      0.2280
     45  O         35.0480  287.4020  170.1270 O.2   624  GLY624     -0.2866
     46  N         39.4850  278.7850  160.3070 N.3   642  CYS642     -0.1235
     47  CA        40.0590  279.8880  159.5150 C.3   642  CYS642      0.1677
     48  C         40.3530  281.1040  160.4190 C.2   642  CYS642      0.2270
     49  O         39.4400  281.6130  161.0940 O.2   642  CYS642     -0.2867
     50  CB        39.1360  280.3050  158.3550 C.3   642  CYS642      0.0956
     51  SG        38.1280  278.9990  157.6020 S.3   642  CYS642     -0.0801
     52  N         40.5880  284.5270  160.1070 N.3   644  ASN644     -0.1240
     53  CA        40.2150  285.6300  159.2300 C.3   644  ASN644      0.1653
     54  C         40.8400  286.9500  159.6660 C.2   644  ASN644      0.2266
     55  O         41.5120  287.6240  158.8630 O.2   644  ASN644     -0.2867
     56  CB        38.7050  285.7790  159.1780 C.3   644  ASN644      0.1155
     57  CG        38.0310  284.5900  158.4980 C.2   644  ASN644      0.2627
     58  OD1       38.6680  283.8550  157.6940 O.2   644  ASN644     -0.2716
     59  ND2       36.7280  284.4090  158.7860 N.am  644  ASN644     -0.0877
     60  N         39.7990  289.7070  165.2400 N.3   647  ASP647     -0.1225
     61  CA        38.4550  289.5090  165.8500 C.3   647  ASP647      0.1805
     62  C         37.6380  288.3420  165.3230 C.2   647  ASP647      0.2598
     63  O         36.9650  287.6750  166.1170 O.2   647  ASP647     -0.2718
     64  CB        37.5720  290.7560  165.7170 C.3   647  ASP647      0.1424
     65  CG        38.2320  291.9740  166.2720 C.2   647  ASP647      0.3668
     66  OD1       39.2970  292.3500  165.7430 O.co2 647  ASP647     -0.2456
     67  OD2       37.6990  292.5800  167.2180 O.co2 647  ASP647     -0.2456
     68  N         37.6250  288.1260  164.0030 N.am  648  THR648     -0.1953
     69  CA        36.8330  287.0310  163.4060 C.3   648  THR648      0.1897
     70  C         37.6850  285.7550  163.3440 C.2   648  THR648      0.2313
     71  O         38.8480  285.7880  162.8990 O.2   648  THR648     -0.2863
     72  CB        36.3520  287.3540  161.9610 C.3   648  THR648      0.1794
     73  OG1       36.1490  288.7640  161.8210 O.3   648  THR648     -0.2208
     74  CG2       35.0670  286.6030  161.5900 C.3   648  THR648      0.0378
     75  N         36.6430  281.5900  162.1740 N.3   650  THR650     -0.1218
     76  CA        35.6340  280.6090  161.7930 C.3   650  THR650      0.1862
     77  C         35.9920  279.2700  162.4340 C.2   650  THR650      0.2287
     78  O         37.1060  278.7600  162.2480 O.2   650  THR650     -0.2866
     79  CB        35.5560  280.4360  160.2650 C.3   650  THR650      0.1770
     80  OG1       36.8280  280.0230  159.7970 O.3   650  THR650     -0.2211
     81  CG2       35.1370  281.7560  159.5750 C.3   650  THR650      0.0375
     82  N         29.8070  287.7810  169.3210 N.3   671  PHE671     -0.1227
     83  CA        29.4930  287.7270  167.8750 C.3   671  PHE671      0.1736
     84  C         29.5790  286.2750  167.3880 C.2   671  PHE671      0.2595
     85  O         30.5660  285.5930  167.6830 O.2   671  PHE671     -0.2718
     86  CB        30.4480  288.6230  167.0640 C.3   671  PHE671      0.0547
     87  CG        30.2240  288.6280  165.5680 C.ar  671  PHE671     -0.0202
     88  CD1       29.0230  288.9730  165.0130 C.ar  671  PHE671     -0.0042
     89  CD2       31.2510  288.3320  164.7090 C.ar  671  PHE671     -0.0042
     90  CE1       28.8060  289.0650  163.6540 C.ar  671  PHE671     -0.0003
     91  CE2       31.0740  288.4250  163.3050 C.ar  671  PHE671     -0.0003
     92  CZ        29.8530  288.7510  162.8240 C.ar  671  PHE671     -0.0000
     93  N         28.5420  285.8100  166.6840 N.am  672  ALA672     -0.1980
     94  CA        28.4670  284.4260  166.1980 C.3   672  ALA672      0.1597
     95  C         27.3540  284.2640  165.1680 C.2   672  ALA672      0.2287
     96  O         27.2980  284.9180  164.1240 O.2   672  ALA672     -0.2864
     97  CB        28.2210  283.4270  167.3350 C.3   672  ALA672      0.0319
     98  N         27.7870  277.0650  153.7500 N.3   673  THR673     -0.1218
     99  CA        28.5410  275.9480  154.3470 C.3   673  THR673      0.1862
    100  C         28.2910  274.6040  153.5420 C.2   673  THR673      0.2287
    101  O         29.2310  273.8320  153.2020 O.2   673  THR673     -0.2866
    102  CB        28.3350  275.9310  155.9280 C.3   673  THR673      0.1770
    103  OG1       28.5180  274.6060  156.4510 O.3   673  THR673     -0.2211
    104  CG2       26.9240  276.4580  156.3780 C.3   673  THR673      0.0375
    105  N         34.6880  272.3690  156.9210 N.3   678  PHE678     -0.1227
    106  CA        35.9730  272.4860  156.2440 C.3   678  PHE678      0.1736
    107  C         37.1000  272.7190  157.2340 C.2   678  PHE678      0.2595
    108  O         36.8670  273.2140  158.3400 O.2   678  PHE678     -0.2718
    109  CB        35.9380  273.6120  155.1870 C.3   678  PHE678      0.0547
    110  CG        35.0170  273.3120  154.0130 C.ar  678  PHE678     -0.0202
    111  CD1       35.3660  272.3160  153.0990 C.ar  678  PHE678     -0.0042
    112  CD2       33.8070  273.9930  153.8230 C.ar  678  PHE678     -0.0042
    113  CE1       34.5330  272.0100  152.0050 C.ar  678  PHE678     -0.0003
    114  CE2       32.9860  273.7000  152.7520 C.ar  678  PHE678     -0.0003
    115  CZ        33.3360  272.7060  151.8470 C.ar  678  PHE678     -0.0000
    116  N         38.3140  272.3230  156.8440 N.am  679  HIS679     -0.1975
    117  CA        39.5240  272.5830  157.6480 C.3   679  HIS679      0.1656
    118  C         39.4840  272.0330  159.0600 C.2   679  HIS679      0.2291
    119  O         40.0400  272.6200  159.9810 O.2   679  HIS679     -0.2864
    120  CB        39.8110  274.0820  157.6350 C.3   679  HIS679      0.0771
    121  CG        39.7430  274.6530  156.2670 C.ar  679  HIS679      0.0820
    122  ND1       40.6740  274.3410  155.2980 N.ar  679  HIS679     -0.2267
    123  CD2       38.8170  275.4430  155.6780 C.ar  679  HIS679      0.1154
    124  CE1       40.3560  274.9620  154.1790 C.ar  679  HIS679      0.1986
    125  NE2       39.2260  275.6330  154.3760 N.ar  679  HIS679     -0.2212
    126  N         32.0430  287.4260  144.0930 N.3   760  HIS760     -0.1241
    127  CA        31.4460  288.4640  144.9150 C.3   760  HIS760      0.1621
    128  C         32.4670  288.8110  145.9790 C.2   760  HIS760      0.2264
    129  O         33.1810  287.9400  146.4690 O.2   760  HIS760     -0.2867
    130  CB        30.0770  288.0540  145.5010 C.3   760  HIS760      0.0745
    131  CG        29.6980  288.8190  146.7340 C.ar  760  HIS760      0.0817
    132  ND1       29.8640  288.2970  148.0020 N.ar  760  HIS760     -0.2268
    133  CD2       29.2490  290.0830  146.9100 C.ar  760  HIS760      0.1154
    134  CE1       29.5060  289.1920  148.9040 C.ar  760  HIS760      0.1986
    135  NE2       29.1350  290.2850  148.2680 N.ar  760  HIS760     -0.2212
    136  N         33.2370  289.2260  149.1100 N.3   762  LEU762     -0.1231
    137  CA        32.8070  288.8860  150.4690 C.3   762  LEU762      0.1693
    138  C         33.7860  289.4250  151.5170 C.2   762  LEU762      0.2591
    139  O         33.4010  290.0750  152.4930 O.2   762  LEU762     -0.2718
    140  CB        32.6880  287.3660  150.5790 C.3   762  LEU762      0.0284
    141  CG        31.9800  286.6890  151.7480 C.3   762  LEU762      0.0019
    142  CD1       30.5480  287.1960  151.9610 C.3   762  LEU762      0.0001
    143  CD2       32.0290  285.1700  151.4950 C.3   762  LEU762      0.0001
    144  N         35.0700  289.1990  151.2700 N.am  763  LEU763     -0.1980
    145  CA        36.1060  289.5530  152.2250 C.3   763  LEU763      0.1596
    146  C         36.4750  291.0580  152.2760 C.2   763  LEU763      0.2287
    147  O         37.4630  291.4280  152.9300 O.2   763  LEU763     -0.2864
    148  CB        37.3530  288.6930  151.9570 C.3   763  LEU763      0.0297
    149  CG        37.2680  287.1810  152.2620 C.3   763  LEU763      0.0022
    150  CD1       36.2190  286.4140  151.4660 C.3   763  LEU763      0.0001
    151  CD2       38.6570  286.5690  152.0750 C.3   763  LEU763      0.0001
    152  N         34.9870  293.4960  153.9050 N.3   765  ALA765     -0.1231
    153  CA        34.8650  293.7080  155.3430 C.3   765  ALA765      0.1694
    154  C         36.1300  293.2940  156.1090 C.2   765  ALA765      0.2591
    155  O         36.7230  294.0900  156.8530 O.2   765  ALA765     -0.2718
    156  CB        33.6540  292.9290  155.8620 C.3   765  ALA765      0.0304
    157  N         36.5490  292.0520  155.8740 N.am  766  VAL766     -0.1980
    158  CA        37.6670  291.4200  156.5910 C.3   766  VAL766      0.1595
    159  C         39.0180  292.0720  156.2510 C.2   766  VAL766      0.2287
    160  O         39.8650  292.2710  157.1360 O.2   766  VAL766     -0.2864
    161  CB        37.7210  289.8790  156.3330 C.3   766  VAL766      0.0276
    162  CG1       38.9890  289.2440  156.9480 C.3   766  VAL766      0.0022
    163  CG2       36.4580  289.1770  156.8760 C.3   766  VAL766      0.0022
    164  N         39.6650  295.4410  158.0610 N.3   769  ARG769     -0.1245
    165  CA        40.1150  295.1540  159.4260 C.3   769  ARG769      0.1563
    166  C         41.5100  294.4880  159.4750 C.2   769  ARG769      0.2260
    167  O         42.3470  294.8670  160.2900 O.2   769  ARG769     -0.2867
    168  CB        39.0600  294.3170  160.1780 C.3   769  ARG769      0.0307
    169  CG        39.4170  293.8680  161.6040 C.3   769  ARG769      0.0489
    170  CD        38.7120  294.6080  162.7640 C.3   769  ARG769      0.2205
    171  NE        37.2760  294.8750  162.5430 N.pl3 769  ARG769     -0.0865
    172  CZ        36.2460  294.3350  163.2060 C.cat 769  ARG769      0.5346
    173  NH1       36.4110  293.4890  164.2100 N.pl3 769  ARG769      0.1354
    174  NH2       35.0050  294.6810  162.8800 N.pl3 769  ARG769      0.1354
    175  N         27.4780  290.9340  144.2390 N.3   783  ARG783     -0.1245
    176  CA        26.4180  289.9560  144.0810 C.3   783  ARG783      0.1563
    177  C         25.1190  290.7300  143.8690 C.2   783  ARG783      0.2260
    178  O         24.8400  291.7050  144.5960 O.2   783  ARG783     -0.2867
    179  CB        26.3580  289.0770  145.3240 C.3   783  ARG783      0.0307
    180  CG        25.0880  288.2340  145.5140 C.3   783  ARG783      0.0489
    181  CD        25.1300  287.4710  146.8420 C.3   783  ARG783      0.2205
    182  NE        25.0680  288.4190  147.9680 N.pl3 783  ARG783     -0.0865
    183  CZ        25.6310  288.2770  149.1610 C.cat 783  ARG783      0.5346
    184  NH1       26.2120  287.1400  149.5240 N.pl3 783  ARG783      0.1354
    185  NH2       25.4880  289.2570  150.0520 N.pl3 783  ARG783      0.1354
@<TRIPOS>BOND
     1   177   176    1
     2   177   178    2
     3   176   175    1
     4   176   179    1
     5   126   127    1
     6   127   130    1
     7   127   128    1
     8   179   180    1
     9   130   131    1
    10   180   181    1
    11   128   129    2
    12   131   133   ar
    13   131   132   ar
    14   181   182    1
    15   133   135   ar
    16     7     8    1
    17     7     6    1
    18   182   183    2
    19   132   134   ar
    20   135   134   ar
    21     6     5    1
    22   136   137    1
    23    11    12    2
    24    11    10    1
    25   183   184    1
    26   183   185    1
    27     2     1    1
    28     2     5    1
    29     2     3    1
    30    26    25    2
    31    25    24    1
    32     9     3   am
    33     9    10    1
    34    16    15    2
    35     3     4    2
    36    13    14    1
    37   137   140    1
    38   137   138    1
    39   140   141    1
    40    15    14    1
    41    15    23   am
    42    28    27    1
    43    24    27    1
    44    24    23    1
    45   144   138   am
    46   144   145    1
    47    14    17    1
    48   150   149    1
    49   143   141    1
    50   138   139    2
    51    17    18    1
    52   141   142    1
    53   115   113   ar
    54   115   114   ar
    55   148   145    1
    56   148   149    1
    57   113   111   ar
    58   151   149    1
    59   145   146    1
    60   146   147    2
    61   114   112   ar
    62    18    19   ar
    63    18    20   ar
    64    19    21   ar
    65   111   110   ar
    66   101   100    2
    67   100    99    1
    68    98    99    1
    69   112   110   ar
    70   152   153    1
    71   110   109    1
    72    21    22   ar
    73    20    22   ar
    74   124   125   ar
    75   124   122   ar
    76    99   102    1
    77   125   123   ar
    78   109   106    1
    79   122   121   ar
    80   153   156    1
    81   153   154    1
    82   123   121   ar
    83   157   154   am
    84   157   158    1
    85   102   104    1
    86   102   103    1
    87   154   155    2
    88   106   105    1
    89   106   107    1
    90   159   158    1
    91   159   160    2
    92   121   120    1
    93   161   158    1
    94   161   163    1
    95   161   162    1
    96    36    35    1
    97   116   107   am
    98   116   117    1
    99   107   108    2
   100    51    50    1
   101   120   117    1
   102   117   118    1
   103    58    57    2
   104    35    34    1
   105   164   165    1
   106    50    47    1
   107    57    59   am
   108    57    56    1
   109    55    54    2
   110   118   119    2
   111    34    33    1
   112    56    53    1
   113    53    54    1
   114    53    52    1
   115   165   166    1
   116   165   168    1
   117   166   167    2
   118    47    46    1
   119    47    48    1
   120    81    79    1
   121    33    30    1
   122    80    79    1
   123   168   169    1
   124    79    76    1
   125    48    49    2
   126    29    30    1
   127    30    31    1
   128    32    31    2
   129    41    38    1
   130    74    72    1
   131   169   170    1
   132    76    75    1
   133    76    77    1
   134    73    72    1
   135    72    69    1
   136    37    38    1
   137    78    77    2
   138    38    39    1
   139   171   170    1
   140   171   172    2
   141    92    91   ar
   142    92    90   ar
   143   174   172    1
   144    71    70    2
   145   172   173    1
   146    91    89   ar
   147    70    69    1
   148    69    68    1
   149    90    88   ar
   150    39    40    2
   151    68    62   am
   152    96    95    2
   153    89    87   ar
   154    88    87   ar
   155    95    94    1
   156    60    61    1
   157    62    61    1
   158    62    63    2
   159    87    86    1
   160    64    61    1
   161    64    65    1
   162    66    65   ar
   163    94    93    1
   164    94    97    1
   165    65    67   ar
   166    93    84   am
   167    86    83    1
   168    84    85    2
   169    84    83    1
   170    42    43    1
   171    83    82    1
   172    43    44    1
   173    44    45    2
