@<TRIPOS>MOLECULE
tmp/5my2D00.pdb
 219 207 0 0 0
SMALL
GASTEIGER

@<TRIPOS>ATOM
      1  N         -2.7330   58.0890   46.3630 N.3   498  GLY498     -0.1210
      2  CA        -4.0070   57.4140   46.1940 C.3   498  GLY498      0.1956
      3  C         -4.1800   56.7720   44.8320 C.2   498  GLY498      0.2611
      4  O         -3.2220   56.2670   44.2380 O.2   498  GLY498     -0.2717
      5  N         -5.4270   56.7690   44.3610 N.am  499  MET499     -0.1979
      6  CA        -5.7580   56.1720   43.0670 C.3   499  MET499      0.1605
      7  C         -5.2920   57.0500   41.9320 C.2   499  MET499      0.2287
      8  O         -4.9700   58.2100   42.1320 O.2   499  MET499     -0.2864
      9  CB        -7.2560   55.8230   42.9330 C.3   499  MET499      0.0413
     10  CG        -7.6070   54.3780   43.2690 C.3   499  MET499      0.0598
     11  SD        -7.0620   53.1230   42.1000 S.3   499  MET499     -0.1393
     12  CE        -8.4020   53.1430   40.9120 C.3   499  MET499      0.0692
     13  N         -2.9140   60.2630   50.9820 N.3   580  HIS580     -0.1226
     14  CA        -3.9840   60.7830   50.1240 C.3   580  HIS580      0.1752
     15  C         -4.9320   59.6280   49.8300 C.2   580  HIS580      0.2596
     16  O         -4.5710   58.7020   49.1060 O.2   580  HIS580     -0.2718
     17  CB        -3.3980   61.3370   48.8250 C.3   580  HIS580      0.0759
     18  CG        -4.3930   62.0260   47.9450 C.ar  580  HIS580      0.0818
     19  ND1       -5.2880   61.3470   47.1500 N.ar  580  HIS580     -0.2268
     20  CD2       -4.6030   63.3390   47.7110 C.ar  580  HIS580      0.1154
     21  CE1       -6.0040   62.2250   46.4680 C.ar  580  HIS580      0.1986
     22  NE2       -5.6150   63.4390   46.8020 N.ar  580  HIS580     -0.2212
     23  N         -6.1400   59.6680   50.4050 N.am  581  SER581     -0.1952
     24  CA        -7.2110   58.7050   50.0670 C.3   581  SER581      0.1924
     25  C         -6.7470   57.2650   50.4380 C.2   581  SER581      0.2314
     26  O         -6.4660   57.0160   51.5950 O.2   581  SER581     -0.2863
     27  CB        -7.5980   58.8550   48.6120 C.3   581  SER581      0.2116
     28  OG        -8.4380   57.7820   48.2220 O.3   581  SER581     -0.2180
     29  N        -13.7300   61.1930   38.1880 N.3   620  MET620     -0.1245
     30  CA       -13.1030   62.3190   38.8710 C.3   620  MET620      0.1570
     31  C        -12.0710   63.0290   37.9980 C.2   620  MET620      0.2261
     32  O        -11.2940   62.3910   37.2580 O.2   620  MET620     -0.2867
     33  CB       -12.4110   61.8330   40.1450 C.3   620  MET620      0.0387
     34  CG       -13.2600   60.9500   41.0430 C.3   620  MET620      0.0595
     35  SD       -12.9130   61.0900   42.8050 S.3   620  MET620     -0.1393
     36  CE       -11.3610   60.2100   42.9230 C.3   620  MET620      0.0692
     37  N         -9.2560   66.3750   38.4340 N.3   622  ALA622     -0.1245
     38  CA        -8.6200   67.5020   39.1210 C.3   622  ALA622      0.1562
     39  C         -8.9160   68.7670   38.3080 C.2   622  ALA622      0.2260
     40  O         -8.7970   68.7510   37.0650 O.2   622  ALA622     -0.2867
     41  CB        -7.1170   67.2770   39.2230 C.3   622  ALA622      0.0290
     42  N         -8.5300   73.2880   38.1790 N.3   624  GLY624     -0.1225
     43  CA        -7.7500   74.4390   38.6110 C.3   624  GLY624      0.1811
     44  C         -8.5730   75.5670   39.1730 C.2   624  GLY624      0.2280
     45  O         -8.7320   76.5920   38.5450 O.2   624  GLY624     -0.2866
     46  N        -11.3830   66.1040   46.7910 N.3   642  CYS642     -0.1235
     47  CA       -10.0090   66.0910   47.3270 C.3   642  CYS642      0.1677
     48  C         -9.4110   67.4780   47.2790 C.2   642  CYS642      0.2270
     49  O         -9.2850   68.0440   46.1940 O.2   642  CYS642     -0.2867
     50  CB        -9.1410   65.1260   46.5070 C.3   642  CYS642      0.0956
     51  SG        -9.8650   63.4700   46.1760 S.3   642  CYS642     -0.0801
     52  N         -6.3970   69.1210   47.1320 N.3   644  ASN644     -0.1240
     53  CA        -4.9740   68.8140   46.8880 C.3   644  ASN644      0.1653
     54  C         -4.0770   70.0360   47.2130 C.2   644  ASN644      0.2266
     55  O         -3.3150   69.9880   48.1700 O.2   644  ASN644     -0.2867
     56  CB        -4.7660   68.2990   45.4670 C.3   644  ASN644      0.1155
     57  CG        -5.4910   66.9960   45.1940 C.2   644  ASN644      0.2627
     58  OD1       -5.6820   66.1730   46.0870 O.2   644  ASN644     -0.2716
     59  ND2       -5.8620   66.7770   43.9380 N.am  644  ASN644     -0.0877
     60  N         -4.7390   75.6570   44.3810 N.3   647  ASP647     -0.1225
     61  CA        -5.0420   75.6570   42.9450 C.3   647  ASP647      0.1805
     62  C         -5.7450   74.4140   42.4860 C.2   647  ASP647      0.2598
     63  O         -6.6040   74.5030   41.6530 O.2   647  ASP647     -0.2718
     64  CB        -3.7630   75.8300   42.0940 C.3   647  ASP647      0.1424
     65  CG        -3.0860   77.1400   42.3800 C.2   647  ASP647      0.3668
     66  OD1       -2.9590   77.4850   43.5600 O.co2 647  ASP647     -0.2456
     67  OD2       -2.6430   77.8540   41.4160 O.co2 647  ASP647     -0.2456
     68  N         -5.3610   73.2540   42.9940 N.am  648  THR648     -0.1953
     69  CA        -5.8540   71.9410   42.5060 C.3   648  THR648      0.1897
     70  C         -6.8810   71.3440   43.4490 C.2   648  THR648      0.2313
     71  O         -6.5920   71.1580   44.6140 O.2   648  THR648     -0.2863
     72  CB        -4.7100   70.9130   42.3290 C.3   648  THR648      0.1794
     73  OG1       -3.4620   71.5890   42.1330 O.3   648  THR648     -0.2208
     74  CG2       -4.9850   69.9900   41.1490 C.3   648  THR648      0.0378
     75  N         -9.7560   68.0390   43.3260 N.3   650  THR650     -0.1218
     76  CA       -10.4410   66.9480   42.6100 C.3   650  THR650      0.1862
     77  C        -11.9460   67.0260   42.8990 C.2   650  THR650      0.2287
     78  O        -12.3620   67.2690   44.0370 O.2   650  THR650     -0.2866
     79  CB        -9.9460   65.5390   42.9930 C.3   650  THR650      0.1770
     80  OG1       -8.5220   65.4880   42.9700 O.3   650  THR650     -0.2211
     81  CG2      -10.4450   64.4910   42.0400 C.3   650  THR650      0.0375
     82  N         -7.5180   74.6260   34.2130 N.3   671  PHE671     -0.1241
     83  CA        -6.7860   73.3360   34.2440 C.3   671  PHE671      0.1605
     84  C         -7.7700   72.1650   34.4120 C.2   671  PHE671      0.2264
     85  O         -8.8380   72.3180   35.0140 O.2   671  PHE671     -0.2867
     86  CB        -5.7350   73.3890   35.3820 C.3   671  PHE671      0.0534
     87  CG        -4.9150   72.1290   35.5720 C.ar  671  PHE671     -0.0203
     88  CD1       -3.8810   71.8200   34.6980 C.ar  671  PHE671     -0.0042
     89  CD2       -5.1470   71.2730   36.6600 C.ar  671  PHE671     -0.0042
     90  CE1       -3.1180   70.6610   34.8710 C.ar  671  PHE671     -0.0003
     91  CE2       -4.4030   70.1160   36.8280 C.ar  671  PHE671     -0.0003
     92  CZ        -3.3840   69.8090   35.9350 C.ar  671  PHE671     -0.0000
     93  N         -7.0240   67.6170   34.1820 N.3   673  LYS673     -0.1245
     94  CA        -6.5380   66.2920   33.7170 C.3   673  LYS673      0.1561
     95  C         -7.4360   65.1790   34.2920 C.2   673  LYS673      0.2260
     96  O         -7.7780   65.2240   35.4720 O.2   673  LYS673     -0.2867
     97  CB        -5.0680   66.0880   34.0980 C.3   673  LYS673      0.0271
     98  CG        -4.8220   65.8810   35.5810 C.3   673  LYS673      0.0035
     99  CD        -3.3320   65.7070   35.8700 C.3   673  LYS673      0.0206
    100  CE        -3.0970   64.8680   37.1150 C.3   673  LYS673      0.1093
    101  NZ        -3.3870   65.6490   38.3410 N.3   673  LYS673     -0.1314
    102  N         -8.4520   61.4520   35.8340 N.3   675  VAL675     -0.1245
    103  CA        -7.7940   60.5900   36.8480 C.3   675  VAL675      0.1561
    104  C         -8.2680   59.1380   36.6790 C.2   675  VAL675      0.2260
    105  O         -9.4790   58.8810   36.4940 O.2   675  VAL675     -0.2867
    106  CB        -8.0540   61.0510   38.3260 C.3   675  VAL675      0.0252
    107  CG1       -7.1830   60.2840   39.3210 C.3   675  VAL675      0.0019
    108  CG2       -7.8490   62.5550   38.4960 C.3   675  VAL675      0.0019
    109  N         -9.4760   56.1710   38.0770 N.3   677  THR677     -0.1218
    110  CA       -10.2050   55.5880   39.2070 C.3   677  THR677      0.1862
    111  C        -10.6680   54.1290   38.9820 C.2   677  THR677      0.2287
    112  O        -11.2180   53.5060   39.8900 O.2   677  THR677     -0.2866
    113  CB       -11.4200   56.4650   39.5550 C.3   677  THR677      0.1770
    114  OG1      -12.1270   56.8250   38.3570 O.3   677  THR677     -0.2211
    115  CG2      -10.9670   57.7320   40.2700 C.3   677  THR677      0.0375
    116  N        -15.1980   58.3210   43.9840 N.3   682  PHE682     -0.1227
    117  CA       -14.8890   58.2300   45.4480 C.3   682  PHE682      0.1736
    118  C        -15.0920   59.5610   46.1960 C.2   682  PHE682      0.2595
    119  O        -15.2930   60.5900   45.5740 O.2   682  PHE682     -0.2718
    120  CB       -13.4580   57.7470   45.7000 C.3   682  PHE682      0.0547
    121  CG       -13.0550   56.4910   44.9410 C.ar  682  PHE682     -0.0202
    122  CD1      -13.4790   55.2150   45.3440 C.ar  682  PHE682     -0.0042
    123  CD2      -12.2140   56.5840   43.8000 C.ar  682  PHE682     -0.0042
    124  CE1      -13.1260   54.1140   44.6200 C.ar  682  PHE682     -0.0003
    125  CE2      -11.8420   55.4440   43.1120 C.ar  682  PHE682     -0.0003
    126  CZ       -12.3170   54.2360   43.4970 C.ar  682  PHE682     -0.0000
    127  N        -15.0460   59.5200   47.5310 N.am  683  HIS683     -0.1975
    128  CA       -15.1010   60.7180   48.4180 C.3   683  HIS683      0.1656
    129  C        -16.2700   61.6500   48.1290 C.2   683  HIS683      0.2291
    130  O        -16.1970   62.8560   48.2710 O.2   683  HIS683     -0.2864
    131  CB       -13.7650   61.4720   48.4300 C.3   683  HIS683      0.0771
    132  CG       -12.6000   60.5880   48.7250 C.ar  683  HIS683      0.0820
    133  ND1      -11.6090   60.3110   47.8120 N.ar  683  HIS683     -0.2267
    134  CD2      -12.3250   59.8370   49.8130 C.ar  683  HIS683      0.1154
    135  CE1      -10.7830   59.4210   48.3290 C.ar  683  HIS683      0.1986
    136  NE2      -11.1830   59.1270   49.5510 N.ar  683  HIS683     -0.2212
    137  N          3.4880   55.3970   40.7420 N.3   764  HIS764     -0.1226
    138  CA         3.8170   56.4920   39.8830 C.3   764  HIS764      0.1752
    139  C          3.6740   57.7380   40.7030 C.2   764  HIS764      0.2596
    140  O          2.7710   57.8460   41.5080 O.2   764  HIS764     -0.2718
    141  CB         2.9780   56.5130   38.6190 C.3   764  HIS764      0.0759
    142  CG         3.0060   57.8260   37.9020 C.ar  764  HIS764      0.0818
    143  ND1        1.9370   58.6810   37.9420 N.ar  764  HIS764     -0.2268
    144  CD2        3.9720   58.4620   37.1880 C.ar  764  HIS764      0.1154
    145  CE1        2.2210   59.7800   37.2580 C.ar  764  HIS764      0.1986
    146  NE2        3.4530   59.6700   36.7960 N.ar  764  HIS764     -0.2212
    147  N          4.5940   58.6740   40.5140 N.am  765  ALA765     -0.1966
    148  CA         4.6870   59.8500   41.3430 C.3   765  ALA765      0.1728
    149  C          3.7360   60.9360   40.8620 C.2   765  ALA765      0.2616
    150  O          4.1530   62.0190   40.5100 O.2   765  ALA765     -0.2715
    151  CB         6.1300   60.3280   41.3890 C.3   765  ALA765      0.0334
    152  N          2.4520   60.6270   40.9030 N.am  766  LEU766     -0.1963
    153  CA         1.3730   61.4650   40.3710 C.3   766  LEU766      0.1728
    154  C          1.2600   62.8350   41.0250 C.2   766  LEU766      0.2616
    155  O          1.0270   63.8420   40.3450 O.2   766  LEU766     -0.2715
    156  CB         0.0440   60.7180   40.5490 C.3   766  LEU766      0.0311
    157  CG        -1.2700   61.3370   40.0860 C.3   766  LEU766      0.0022
    158  CD1       -1.1690   61.8160   38.6550 C.3   766  LEU766      0.0001
    159  CD2       -2.3880   60.3620   40.3270 C.3   766  LEU766      0.0001
    160  N          1.4440   62.8770   42.3400 N.am  767  LEU767     -0.1963
    161  CA         1.2910   64.1030   43.1300 C.3   767  LEU767      0.1728
    162  C          2.4780   65.0890   43.1720 C.2   767  LEU767      0.2616
    163  O          2.4520   66.0450   43.9650 O.2   767  LEU767     -0.2715
    164  CB         0.9120   63.7080   44.5710 C.3   767  LEU767      0.0311
    165  CG        -0.3680   62.8550   44.7060 C.3   767  LEU767      0.0022
    166  CD1       -0.4880   62.2450   46.0940 C.3   767  LEU767      0.0001
    167  CD2       -1.6000   63.6950   44.4000 C.3   767  LEU767      0.0001
    168  N          3.5130   64.8980   42.3400 N.am  768  GLN768     -0.1963
    169  CA         4.7030   65.7590   42.3980 C.3   768  GLN768      0.1733
    170  C          4.3140   67.2110   42.2030 C.2   768  GLN768      0.2616
    171  O          4.6500   68.0640   43.0280 O.2   768  GLN768     -0.2715
    172  CB         5.7290   65.3370   41.3470 C.3   768  GLN768      0.0408
    173  CG         6.4240   64.0190   41.6750 C.3   768  GLN768      0.0908
    174  CD         7.4170   64.1090   42.8230 C.2   768  GLN768      0.2608
    175  OE1        8.5070   64.6400   42.6540 O.2   768  GLN768     -0.2717
    176  NE2        7.0400   63.6040   43.9870 N.am  768  GLN768     -0.0878
    177  N          3.5650   67.4530   41.1220 N.am  769  ALA769     -0.1963
    178  CA         3.0160   68.7570   40.7830 C.3   769  ALA769      0.1728
    179  C          2.2480   69.4200   41.9190 C.2   769  ALA769      0.2616
    180  O          2.3910   70.6150   42.1410 O.2   769  ALA769     -0.2715
    181  CB         2.1150   68.6230   39.5590 C.3   769  ALA769      0.0334
    182  N          1.4290   68.6380   42.6270 N.am  770  VAL770     -0.1977
    183  CA         0.6600   69.1700   43.7650 C.3   770  VAL770      0.1596
    184  C          1.5620   69.5190   44.9320 C.2   770  VAL770      0.2287
    185  O          1.4310   70.6000   45.5100 O.2   770  VAL770     -0.2864
    186  CB        -0.4990   68.2480   44.2360 C.3   770  VAL770      0.0276
    187  CG1       -1.5280   68.0940   43.1350 C.3   770  VAL770      0.0022
    188  CG2       -0.1020   66.9050   44.7350 C.3   770  VAL770      0.0022
    189  N          4.7480   70.2540   45.0630 N.3   772  LYS772     -0.1231
    190  CA         5.5190   71.4640   44.7820 C.3   772  LYS772      0.1693
    191  C          4.7060   72.7470   45.0550 C.2   772  LYS772      0.2591
    192  O          5.1910   73.6270   45.7560 O.2   772  LYS772     -0.2718
    193  CB         6.1110   71.4500   43.3610 C.3   772  LYS772      0.0285
    194  CG         5.1640   71.6540   42.1960 C.3   772  LYS772      0.0035
    195  CD         5.6390   72.6450   41.1390 C.3   772  LYS772      0.0206
    196  CE         4.5000   72.9230   40.1800 C.3   772  LYS772      0.1093
    197  NZ         4.6440   74.2630   39.5610 N.3   772  LYS772     -0.1314
    198  N          3.4750   72.8270   44.5470 N.am  773  ARG773     -0.1980
    199  CA         2.5820   73.9710   44.8190 C.3   773  ARG773      0.1597
    200  C          2.2210   74.0290   46.3020 C.2   773  ARG773      0.2287
    201  O          2.1800   75.0920   46.8950 O.2   773  ARG773     -0.2864
    202  CB         1.2670   73.8860   44.0310 C.3   773  ARG773      0.0334
    203  CG         1.3770   73.9530   42.5170 C.3   773  ARG773      0.0492
    204  CD        -0.0110   73.8250   41.8940 C.3   773  ARG773      0.2205
    205  NE        -0.2260   74.6100   40.6810 N.pl3 773  ARG773     -0.0865
    206  CZ        -0.3400   75.9410   40.6310 C.cat 773  ARG773      0.5346
    207  NH1       -0.1450   76.7010   41.7210 N.pl3 773  ARG773      0.1354
    208  NH2       -0.5780   76.5330   39.4500 N.pl3 773  ARG773      0.1354
    209  N          5.7210   56.0980   35.5570 N.3   787  ARG787     -0.1245
    210  CA         4.7950   55.2410   34.8260 C.3   787  ARG787      0.1563
    211  C          5.4430   54.9820   33.4890 C.2   787  ARG787      0.2260
    212  O          5.8610   55.9170   32.8030 O.2   787  ARG787     -0.2867
    213  CB         3.4220   55.9170   34.6230 C.3   787  ARG787      0.0307
    214  CG         2.4900   55.2140   33.6510 C.3   787  ARG787      0.0489
    215  CD         1.0740   55.7560   33.7300 C.3   787  ARG787      0.2205
    216  NE         1.0260   57.1800   33.4250 N.pl3 787  ARG787     -0.0865
    217  CZ         0.2650   58.0960   34.0430 C.cat 787  ARG787      0.5346
    218  NH1       -0.4980   57.7800   35.0890 N.pl3 787  ARG787      0.1354
    219  NH2        0.2940   59.3590   33.6320 N.pl3 787  ARG787      0.1354
@<TRIPOS>BOND
     1   212   211    2
     2   216   215    1
     3   216   217    2
     4   211   210    1
     5   219   217    1
     6   214   215    1
     7   214   213    1
     8    94    97    1
     9    94    93    1
    10    94    95    1
    11   217   218    1
    12    97    98    1
    13    82    83    1
    14    83    84    1
    15    83    86    1
    16    95    96    2
    17    84    85    2
    18   213   210    1
    19    88    90   ar
    20    88    87   ar
    21   210   209    1
    22    90    92   ar
    23    86    87    1
    24    87    89   ar
    25    98    99    1
    26   102   103    1
    27    99   100    1
    28    92    91   ar
    29   105   104    2
    30    89    91   ar
    31   104   103    1
    32   146   144   ar
    33   146   145   ar
    34   103   106    1
    35    40    39    2
    36   100   101    1
    37   144   142   ar
    38    32    31    2
    39   145   143   ar
    40   142   143   ar
    41   142   141    1
    42    31    30    1
    43   109   110    1
    44    42    43    1
    45    29    30    1
    46    39    38    1
    47   106   108    1
    48   106   107    1
    49   114   113    1
    50    37    38    1
    51    45    44    2
    52    43    44    1
    53   141   138    1
    54   158   157    1
    55    30    33    1
    56   111   110    1
    57   111   112    2
    58    38    41    1
    59   110   113    1
    60   208   206    1
    61   113   115    1
    62   181   178    1
    63   197   196    1
    64   138   139    1
    65   138   137    1
    66   157   159    1
    67   157   156    1
    68    33    34    1
    69   196   195    1
    70   155   154    2
    71   153   156    1
    72   153   152    1
    73   153   154    1
    74   150   149    2
    75   147   139   am
    76   147   148    1
    77   206   205    2
    78   206   207    1
    79   205   204    1
    80   139   140    2
    81   178   177    1
    82   178   179    1
    83   149   152   am
    84   149   148    1
    85    12    11    1
    86   154   160   am
    87    34    35    1
    88   177   170   am
    89   195   194    1
    90    74    72    1
    91   148   151    1
    92   172   173    1
    93   172   169    1
    94    67    65   ar
    95    63    62    2
    96   173   174    1
    97   204   203    1
    98   179   180    2
    99   179   182   am
   100     7     8    2
   101     7     6    1
   102    81    79    1
   103    64    65    1
   104    64    61    1
   105    11    10    1
   106    73    72    1
   107   194   193    1
   108   170   169    1
   109   170   171    2
   110    72    69    1
   111   160   161    1
   112   168   169    1
   113   168   162   am
   114    65    66   ar
   115    62    61    1
   116    62    68   am
   117    69    68    1
   118    69    70    1
   119   203   202    1
   120    76    77    1
   121    76    79    1
   122    76    75    1
   123   182   183    1
   124   175   174    2
   125    35    36    1
   126   174   176   am
   127    77    78    2
   128     9     6    1
   129     9    10    1
   130    61    60    1
   131    80    79    1
   132     6     5    1
   133   125   126   ar
   134   125   123   ar
   135   161   162    1
   136   161   164    1
   137   187   186    1
   138   162   163    2
   139   193   190    1
   140    70    71    2
   141   126   124   ar
   142   183   186    1
   143   183   184    1
   144   123   121   ar
   145    59    57   am
   146   116   117    1
   147   202   199    1
   148   186   188    1
   149     4     3    2
   150     5     3   am
   151   167   165    1
   152   198   199    1
   153   198   191   am
   154   164   165    1
   155   124   122   ar
   156   165   166    1
   157   190   191    1
   158   190   189    1
   159   199   200    1
   160     3     2    1
   161   184   185    2
   162   121   122   ar
   163   121   120    1
   164   191   192    2
   165    57    56    1
   166    57    58    2
   167   117   120    1
   168   117   118    1
   169    56    53    1
   170   119   118    2
   171    51    50    1
   172    49    48    2
   173     2     1    1
   174   118   127   am
   175   200   201    2
   176    21    22   ar
   177    21    19   ar
   178    50    47    1
   179    46    47    1
   180    22    20   ar
   181    53    52    1
   182    53    54    1
   183    19    18   ar
   184    54    55    2
   185    48    47    1
   186   127   128    1
   187    20    18   ar
   188   133   135   ar
   189   133   132   ar
   190    18    17    1
   191   129   130    2
   192   129   128    1
   193    28    27    1
   194   135   136   ar
   195   128   131    1
   196   131   132    1
   197    27    24    1
   198   132   134   ar
   199    17    14    1
   200    16    15    2
   201   136   134   ar
   202    15    14    1
   203    15    23   am
   204    24    23    1
   205    24    25    1
   206    14    13    1
   207    25    26    2
