@<TRIPOS>MOLECULE
tmp/5my7A00.pdb
 71 68 0 0 0
SMALL
GASTEIGER

@<TRIPOS>ATOM
      1  N         10.1090   11.9820    8.1030 N.3    51  VAL51      -0.1231
      2  CA         9.8270   12.6430    6.7850 C.3    51  VAL51       0.1692
      3  C         10.9500   12.4680    5.7670 C.2    51  VAL51       0.2591
      4  O         10.6780   12.6550    4.5780 O.2    51  VAL51      -0.2718
      5  CB         9.4210   14.1540    6.9030 C.3    51  VAL51       0.0266
      6  CG1        8.2020   14.2920    7.7870 C.3    51  VAL51       0.0020
      7  CG2       10.5500   15.0330    7.4150 C.3    51  VAL51       0.0020
      8  N         12.1910   12.2070    6.1880 N.am   52  GLU52      -0.1979
      9  CA        13.3580   12.2670    5.2810 C.3    52  GLU52       0.1602
     10  C         14.2530   11.0370    5.4890 C.2    52  GLU52       0.2287
     11  O         14.5200   10.6280    6.6380 O.2    52  GLU52      -0.2864
     12  CB        14.2040   13.4760    5.6220 C.3    52  GLU52       0.0415
     13  CG        15.0750   14.0670    4.5350 C.3    52  GLU52       0.1163
     14  CD        15.3800   15.5520    4.8080 C.2    52  GLU52       0.3649
     15  OE1       15.0240   16.0600    5.9030 O.co2  52  GLU52      -0.2457
     16  OE2       15.9450   16.2060    3.9120 O.co2  52  GLU52      -0.2457
     17  N         19.5950   12.8490   -0.0210 N.3    64  GLY64      -0.1210
     18  CA        18.4090   13.0420    0.8160 C.3    64  GLY64       0.1956
     19  C         17.1030   12.9560   -0.0000 C.2    64  GLY64       0.2613
     20  O         17.0340   13.4630   -1.1610 O.2    64  GLY64      -0.2717
     21  N         16.1240   12.2430    0.5480 N.am   65  THR65      -0.1938
     22  CA        14.8250   12.0020   -0.1020 C.3    65  THR65       0.2028
     23  C         13.7210   11.8420    0.9330 C.2    65  THR65       0.2642
     24  O         13.9490   12.1240    2.1180 O.2    65  THR65      -0.2714
     25  CB        14.9110   10.8090   -1.0710 C.3    65  THR65       0.1808
     26  OG1       13.7190   10.7640   -1.9010 O.3    65  THR65      -0.2208
     27  CG2       15.1120    9.4970   -0.3590 C.3    65  THR65       0.0379
     28  N         12.5170   11.4800    0.4930 N.am   66  GLY66      -0.1954
     29  CA        11.4240   11.1940    1.4000 C.3    66  GLY66       0.1869
     30  C         11.4590    9.7930    1.9870 C.2    66  GLY66       0.2309
     31  O         12.5260    9.1700    2.1540 O.2    66  GLY66      -0.2863
     32  N          9.2110   10.2530   -5.1470 N.3    75  GLN75      -0.1231
     33  CA         9.9310   11.1290   -4.2240 C.3    75  GLN75       0.1683
     34  C         10.9220   12.0500   -4.9530 C.2    75  GLN75       0.2434
     35  O         11.6050   11.5840   -5.8890 O.2    75  GLN75      -0.2733
     36  CB        10.7220   10.3220   -3.1650 C.3    75  GLN75       0.0380
     37  CG         9.8740    9.4230   -2.2760 C.3    75  GLN75       0.0905
     38  CD         8.6850   10.1500   -1.6780 C.2    75  GLN75       0.2608
     39  OE1        8.8490   11.1250   -0.9750 O.2    75  GLN75      -0.2717
     40  NE2        7.4620    9.6730   -1.9760 N.am   75  GLN75      -0.0878
     41  N         11.0170   13.3280   -4.5490 N.am   76  PRO76      -0.2718
     42  CA        12.1210   14.1580   -5.0380 C.3    76  PRO76       0.1535
     43  C         13.4390   13.7620   -4.3470 C.2    76  PRO76       0.2598
     44  O         13.3900   13.1620   -3.2560 O.2    76  PRO76      -0.2715
     45  CB        11.6930   15.5650   -4.6370 C.3    76  PRO76       0.0310
     46  CG        10.9880   15.3300   -3.2980 C.3    76  PRO76       0.0237
     47  CD        10.2710   13.9880   -3.4530 C.3    76  PRO76       0.0939
     48  N         14.5920   14.1200   -4.9190 N.am   77  ILE77      -0.1964
     49  CA        15.8920   13.8980   -4.2550 C.3    77  ILE77       0.1727
     50  C         16.8080   15.1150   -4.3360 C.2    77  ILE77       0.2616
     51  O         16.5990   16.0340   -5.1650 O.2    77  ILE77      -0.2715
     52  CB        16.6600   12.6400   -4.7840 C.3    77  ILE77       0.0290
     53  CG1       17.3280   12.8490   -6.1730 C.3    77  ILE77       0.0022
     54  CG2       15.8070   11.3880   -4.7540 C.3    77  ILE77       0.0023
     55  CD1       18.3280   11.7400   -6.5570 C.3    77  ILE77       0.0001
     56  N         17.8340   15.1200   -3.4920 N.am   78  MET78      -0.1977
     57  CA        19.0080   16.0090   -3.6360 C.3    78  MET78       0.1605
     58  C         20.2660   15.2400   -3.3070 C.2    78  MET78       0.2287
     59  O         20.1900   14.2480   -2.5370 O.2    78  MET78      -0.2864
     60  CB        18.8810   17.2540   -2.7850 C.3    78  MET78       0.0413
     61  CG        18.7880   16.9510   -1.2740 C.3    78  MET78       0.0598
     62  SD        18.4570   18.3940   -0.2370 S.3    78  MET78      -0.1393
     63  CE        16.9100   19.0860   -0.6850 C.3    78  MET78       0.0692
     64  N         16.9630   19.8240   -6.2590 N.3    90  ASP90      -0.1239
     65  CA        15.5400   19.8520   -6.7090 C.3    90  ASP90       0.1674
     66  C         15.2750   18.8670   -7.8600 C.2    90  ASP90       0.2266
     67  O         14.6360   19.2010   -8.8810 O.2    90  ASP90      -0.2867
     68  CB        15.0890   21.2650   -7.1630 C.3    90  ASP90       0.1410
     69  CG        14.9970   22.2760   -6.0570 C.2    90  ASP90       0.3668
     70  OD1       15.0840   21.9310   -4.8640 O.co2  90  ASP90      -0.2456
     71  OD2       14.7870   23.4580   -6.4160 O.co2  90  ASP90      -0.2456
@<TRIPOS>BOND
     1    67    66    2
     2    66    65    1
     3    68    65    1
     4    68    69    1
     5    65    64    1
     6    55    53    1
     7    71    69   ar
     8    53    52    1
     9    69    70   ar
    10    35    34    2
    11    51    50    2
    12    32    33    1
    13    42    45    1
    14    42    41    1
    15    42    43    1
    16    34    41   am
    17    34    33    1
    18    48    43   am
    19    48    49    1
    20    52    54    1
    21    52    49    1
    22    45    46    1
    23    41    47    1
    24    43    44    2
    25    50    49    1
    26    50    56   am
    27    33    36    1
    28    57    56    1
    29    57    58    1
    30    57    60    1
    31    47    46    1
    32    58    59    2
    33    36    37    1
    34    60    61    1
    35    37    38    1
    36    40    38   am
    37    26    25    1
    38    38    39    2
    39    61    62    1
    40    20    19    2
    41    25    27    1
    42    25    22    1
    43    63    62    1
    44    22    21    1
    45    22    23    1
    46    17    18    1
    47    19    21   am
    48    19    18    1
    49    28    23   am
    50    28    29    1
    51    23    24    2
    52    29    30    1
    53    30    31    2
    54    16    14   ar
    55    13    14    1
    56    13    12    1
    57     4     3    2
    58    14    15   ar
    59     9    10    1
    60     9    12    1
    61     9     8    1
    62    10    11    2
    63     3     8   am
    64     3     2    1
    65     2     5    1
    66     2     1    1
    67     5     7    1
    68     5     6    1
