@<TRIPOS>MOLECULE
tmp/5mydD00.pdb
 148 136 0 0 0
SMALL
GASTEIGER

@<TRIPOS>ATOM
      1  N         18.6210   62.6860    8.7000 N.3    16  GLN16      -0.1245
      2  CA        19.7570   62.9720    7.8480 C.3    16  GLN16       0.1566
      3  C         19.5070   64.1600    6.9450 C.2    16  GLN16       0.2260
      4  O         20.4020   65.0060    6.7790 O.2    16  GLN16      -0.2867
      5  CB        20.1130   61.7650    6.9970 C.3    16  GLN16       0.0367
      6  CG        21.4410   61.8810    6.2720 C.3    16  GLN16       0.0905
      7  CD        22.6330   62.0850    7.2110 C.2    16  GLN16       0.2608
      8  OE1       23.4900   62.9570    6.9810 O.2    16  GLN16      -0.2717
      9  NE2       22.7110   61.2730    8.2370 N.am   16  GLN16      -0.0878
     10  N         19.7900   67.4970    8.7550 N.3    19  PHE19      -0.1227
     11  CA        21.1780   67.9060    8.9480 C.3    19  PHE19       0.1736
     12  C         21.8020   68.3710    7.6280 C.2    19  PHE19       0.2595
     13  O         22.3600   69.4710    7.5560 O.2    19  PHE19      -0.2718
     14  CB        22.0320   66.7950    9.5840 C.3    19  PHE19       0.0547
     15  CG        23.4450   67.2240    9.8550 C.ar   19  PHE19      -0.0202
     16  CD1       23.7300   68.0610   10.9270 C.ar   19  PHE19      -0.0042
     17  CD2       24.4780   66.8550    8.9930 C.ar   19  PHE19      -0.0042
     18  CE1       25.0300   68.4930   11.1640 C.ar   19  PHE19      -0.0003
     19  CE2       25.7810   67.2840    9.2260 C.ar   19  PHE19      -0.0003
     20  CZ        26.0550   68.1060   10.3070 C.ar   19  PHE19      -0.0000
     21  N         21.7280   67.5290    6.6010 N.am   20  ASP20      -0.1974
     22  CA        22.3300   67.8450    5.2900 C.3    20  ASP20       0.1709
     23  C         21.7980   69.1490    4.6840 C.2    20  ASP20       0.2293
     24  O         22.5310   69.8190    3.9600 O.2    20  ASP20      -0.2864
     25  CB        22.1850   66.6730    4.3050 C.3    20  ASP20       0.1436
     26  CG        23.1130   65.5010    4.6380 C.2    20  ASP20       0.3671
     27  OD1       24.0270   65.6480    5.4800 O.co2  20  ASP20      -0.2456
     28  OD2       22.9390   64.4140    4.0480 O.co2  20  ASP20      -0.2456
     29  N         24.1230   72.1450    5.0890 N.3    23  ILE23      -0.1245
     30  CA        25.4380   72.0510    4.4260 C.3    23  ILE23       0.1561
     31  C         25.2920   72.4230    2.9510 C.2    23  ILE23       0.2260
     32  O         25.0090   71.5570    2.1170 O.2    23  ILE23      -0.2867
     33  CB        26.0270   70.6250    4.5580 C.3    23  ILE23       0.0252
     34  CG1       26.0730   70.2410    6.0230 C.3    23  ILE23       0.0019
     35  CG2       27.4380   70.5370    3.9970 C.3    23  ILE23       0.0019
     36  CD1       26.2320   68.7680    6.2790 C.3    23  ILE23       0.0001
     37  N         27.0370   70.4230    0.0990 N.3    26  LEU26      -0.1245
     38  CA        26.6650   69.0130   -0.0500 C.3    26  LEU26       0.1561
     39  C         26.8950   68.5390   -1.4720 C.2    26  LEU26       0.2260
     40  O         26.3610   69.1270   -2.4170 O.2    26  LEU26      -0.2867
     41  CB        25.1930   68.8080    0.3250 C.3    26  LEU26       0.0270
     42  CG        24.7180   67.3620    0.3930 C.3    26  LEU26       0.0019
     43  CD1       25.4040   66.6580    1.5500 C.3    26  LEU26       0.0001
     44  CD2       23.2020   67.3210    0.5410 C.3    26  LEU26       0.0001
     45  N         30.3050   62.6960   -0.7070 N.3    31  SER31      -0.1217
     46  CA        29.5860   61.8270    0.2360 C.3    31  SER31       0.1889
     47  C         29.8930   60.3570   -0.0230 C.2    31  SER31       0.2288
     48  O         29.9640   59.5690    0.9150 O.2    31  SER31      -0.2866
     49  CB        28.0620   62.0990    0.1950 C.3    31  SER31       0.2089
     50  OG        27.7500   63.4820    0.3980 O.3    31  SER31      -0.2183
     51  N         34.7550   56.3630    5.9970 N.3    38  GLU38      -0.1245
     52  CA        34.1510   55.9980    7.2900 C.3    38  GLU38       0.1567
     53  C         34.0920   54.4990    7.4750 C.2    38  GLU38       0.2260
     54  O         34.2070   54.0120    8.5930 O.2    38  GLU38      -0.2867
     55  CB        32.7430   56.6160    7.4580 C.3    38  GLU38       0.0388
     56  CG        32.7240   58.1360    7.5540 C.3    38  GLU38       0.1160
     57  CD        33.4070   58.7260    8.7690 C.2    38  GLU38       0.3649
     58  OE1       33.5980   58.0310    9.7980 O.co2  38  GLU38      -0.2457
     59  OE2       33.7640   59.9180    8.6860 O.co2  38  GLU38      -0.2457
     60  N         37.5120   53.7010    8.7190 N.3    41  GLU41      -0.1245
     61  CA        37.5680   54.1480   10.1250 C.3    41  GLU41       0.1567
     62  C         36.8530   53.1590   11.0480 C.2    41  GLU41       0.2260
     63  O         37.3890   52.7910   12.0970 O.2    41  GLU41      -0.2867
     64  CB        36.9860   55.5310   10.3610 C.3    41  GLU41       0.0388
     65  CG        37.6970   56.6790    9.7000 C.3    41  GLU41       0.1160
     66  CD        37.2800   57.9930   10.3850 C.2    41  GLU41       0.3649
     67  OE1       36.0930   58.3100   10.5750 O.co2  41  GLU41      -0.2457
     68  OE2       38.1850   58.6790   10.8940 O.co2  41  GLU41      -0.2457
     69  N         31.5130   54.9970   15.0320 N.3    66  GLU66      -0.1245
     70  CA        32.0570   54.9350   13.6690 C.3    66  GLU66       0.1567
     71  C         31.0720   54.2800   12.7270 C.2    66  GLU66       0.2260
     72  O         30.9420   54.7110   11.5860 O.2    66  GLU66      -0.2867
     73  CB        33.3960   54.1770   13.5980 C.3    66  GLU66       0.0388
     74  CG        34.5390   54.7850   14.4190 C.3    66  GLU66       0.1160
     75  CD        35.0140   56.1490   13.9420 C.2    66  GLU66       0.3649
     76  OE1       34.7350   56.5610   12.7990 O.co2  66  GLU66      -0.2457
     77  OE2       35.6740   56.8300   14.7490 O.co2  66  GLU66      -0.2457
     78  N         27.9200   54.4940   12.9720 N.3    68  ALA68      -0.1231
     79  CA        26.9220   55.5220   12.7640 C.3    68  ALA68       0.1694
     80  C         27.3320   56.5280   11.7050 C.2    68  ALA68       0.2592
     81  O         26.4670   57.0030   10.9690 O.2    68  ALA68      -0.2718
     82  CB        26.5740   56.2330   14.0730 C.3    68  ALA68       0.0304
     83  N         28.6280   56.8360   11.6090 N.am   69  ASP69      -0.1974
     84  CA        29.1280   57.7220   10.5520 C.3    69  ASP69       0.1709
     85  C         28.9420   57.1220    9.1730 C.2    69  ASP69       0.2293
     86  O         28.6900   57.8560    8.2530 O.2    69  ASP69      -0.2864
     87  CB        30.6100   58.0620   10.7170 C.3    69  ASP69       0.1436
     88  CG        30.9090   58.8780   11.9880 C.2    69  ASP69       0.3671
     89  OD1       30.0630   59.6920   12.4470 O.co2  69  ASP69      -0.2456
     90  OD2       31.9990   58.6520   12.5540 O.co2  69  ASP69      -0.2456
     91  N         25.2220   57.4810    8.3080 N.3    72  ALA72      -0.1231
     92  CA        24.9050   58.8580    7.9740 C.3    72  ALA72       0.1694
     93  C         25.1590   59.1510    6.5080 C.2    72  ALA72       0.2592
     94  O         24.2790   59.6950    5.8140 O.2    72  ALA72      -0.2718
     95  CB        25.6840   59.8280    8.8370 C.3    72  ALA72       0.0304
     96  N         26.3630   58.8140    6.0330 N.am   73  PHE73      -0.1976
     97  CA        26.6590   58.9890    4.6100 C.3    73  PHE73       0.1639
     98  C         25.8040   58.0850    3.6950 C.2    73  PHE73       0.2290
     99  O         25.4020   58.5050    2.6040 O.2    73  PHE73      -0.2864
    100  CB        28.1770   58.8560    4.3310 C.3    73  PHE73       0.0560
    101  CG        28.9730   59.9860    4.9200 C.ar   73  PHE73      -0.0200
    102  CD1       28.8460   61.2670    4.4250 C.ar   73  PHE73      -0.0042
    103  CD2       29.8340   59.7780    6.0060 C.ar   73  PHE73      -0.0042
    104  CE1       29.5720   62.3250    4.9780 C.ar   73  PHE73      -0.0003
    105  CE2       30.5470   60.8270    6.5680 C.ar   73  PHE73      -0.0003
    106  CZ        30.4210   62.0970    6.0610 C.ar   73  PHE73      -0.0000
    107  N         22.6100   59.8200    3.6350 N.3    76  SER76      -0.1217
    108  CA        22.8250   61.0360    2.8480 C.3    76  SER76       0.1889
    109  C         22.8450   60.7590    1.3460 C.2    76  SER76       0.2288
    110  O         22.1810   61.4760    0.5750 O.2    76  SER76      -0.2866
    111  CB        24.1130   61.7030    3.2640 C.3    76  SER76       0.2089
    112  OG        24.2760   62.9200    2.5850 O.3    76  SER76      -0.2183
    113  N         25.0650   60.7700   17.7760 N.3   153  LYS153     -0.1231
    114  CA        26.0300   61.4250   16.9040 C.3   153  LYS153      0.1693
    115  C         25.4240   62.6010   16.1400 C.2   153  LYS153      0.2591
    116  O         26.0870   63.6300   15.9720 O.2   153  LYS153     -0.2718
    117  CB        26.6580   60.4320   15.9280 C.3   153  LYS153      0.0285
    118  CG        27.7950   60.9880   15.0590 C.3   153  LYS153      0.0035
    119  CD        29.0290   61.3670   15.8770 C.3   153  LYS153      0.0206
    120  CE        30.2320   61.6870   15.0050 C.3   153  LYS153      0.1093
    121  NZ        31.0740   60.4770   14.8920 N.3   153  LYS153     -0.1314
    122  N         24.1920   62.4480   15.6400 N.am  154  MET154     -0.1979
    123  CA        23.5480   63.5330   14.8760 C.3   154  MET154      0.1605
    124  C         23.2490   64.7540   15.7340 C.2   154  MET154      0.2287
    125  O         23.4280   65.8760   15.2600 O.2   154  MET154     -0.2864
    126  CB        22.2790   63.0610   14.1410 C.3   154  MET154      0.0413
    127  CG        22.5250   62.1200   12.9640 C.3   154  MET154      0.0598
    128  SD        23.9100   62.4870   11.8550 S.3   154  MET154     -0.1393
    129  CE        23.3570   63.9900   11.0760 C.3   154  MET154      0.0692
    130  N         26.6140   66.3180   16.0730 N.3   157  ASN157     -0.1240
    131  CA        26.8650   66.9790   14.7910 C.3   157  ASN157      0.1653
    132  C         26.1080   68.3010   14.6520 C.2   157  ASN157      0.2266
    133  O         26.6440   69.2510   14.0790 O.2   157  ASN157     -0.2867
    134  CB        26.5110   66.0630   13.6010 C.3   157  ASN157      0.1155
    135  CG        27.5190   64.9390   13.3780 C.2   157  ASN157      0.2627
    136  OD1       28.6920   65.0520   13.7250 O.2   157  ASN157     -0.2716
    137  ND2       27.0600   63.8500   12.7620 N.am  157  ASN157     -0.0877
    138  N         27.9790   70.7720   16.5520 N.3   160  ARG160     -0.1197
    139  CA        29.1750   71.2080   15.7920 C.3   160  ARG160      0.1779
    140  C         28.8760   72.4610   14.9710 C.2   160  ARG160      0.2305
    141  O         29.5150   73.5020   15.1520 O.2   160  ARG160     -0.2863
    142  CB        29.6990   70.1190   14.8380 C.2   160  ARG160     -0.0007
    143  CG        30.6980   69.1170   15.4200 C.2   160  ARG160      0.0176
    144  CD        30.9240   67.8650   14.5740 C.3   160  ARG160      0.2464
    145  NE        30.5290   68.0720   13.1650 N.pl3 160  ARG160     -0.0815
    146  CZ        30.6180   67.1570   12.1990 C.cat 160  ARG160      0.5349
    147  NH1       31.1350   65.9530   12.4310 N.pl3 160  ARG160      0.1354
    148  NH2       30.2080   67.4630   10.9710 N.pl3 160  ARG160      0.1354
@<TRIPOS>BOND
     1    40    39    2
     2    39    38    1
     3    45    46    1
     4    38    37    1
     5    38    41    1
     6    47    46    1
     7    47    48    2
     8    49    46    1
     9    49    50    1
    10    41    42    1
    11    42    44    1
    12    42    43    1
    13   110   109    2
    14   109   108    1
    15    32    31    2
    16   112   111    1
    17    99    98    2
    18   108   111    1
    19   108   107    1
    20    31    30    1
    21    98    97    1
    22    24    23    2
    23    35    33    1
    24    28    26   ar
    25    25    26    1
    26    25    22    1
    27   100    97    1
    28   100   101    1
    29   102   101   ar
    30   102   104   ar
    31    30    33    1
    32    30    29    1
    33    33    34    1
    34    97    96    1
    35    26    27   ar
    36    23    22    1
    37   101   103   ar
    38   104   106   ar
    39    22    21    1
    40    94    93    2
    41    51    52    1
    42   103   105   ar
    43    34    36    1
    44    96    93   am
    45   106   105   ar
    46     6     5    1
    47     6     7    1
    48    93    92    1
    49    21    12   am
    50     4     3    2
    51     3     2    1
    52     8     7    2
    53     5     2    1
    54     7     9   am
    55    52    55    1
    56    52    53    1
    57    55    56    1
    58    53    54    2
    59    56    57    1
    60    13    12    2
    61    12    11    1
    62     2     1    1
    63    92    91    1
    64    92    95    1
    65    86    85    2
    66    59    57   ar
    67    60    61    1
    68    10    11    1
    69    57    58   ar
    70    11    14    1
    71    17    19   ar
    72    17    15   ar
    73    85    84    1
    74    19    20   ar
    75    14    15    1
    76    65    64    1
    77    65    66    1
    78    15    16   ar
    79    61    64    1
    80    61    62    1
    81    20    18   ar
    82    66    67   ar
    83    66    68   ar
    84    84    87    1
    85    84    83    1
    86    87    88    1
    87    16    18   ar
    88    81    80    2
    89   148   146    1
    90    62    63    2
    91   129   128    1
    92    72    71    2
    93    83    80   am
    94    80    79    1
    95   128   127    1
    96    88    89   ar
    97    88    90   ar
    98   146   147    1
    99   146   145    2
   100    71    70    1
   101   137   135   am
   102    79    78    1
   103    79    82    1
   104    76    75   ar
   105   127   126    1
   106   145   144    1
   107   135   134    1
   108   135   136    2
   109    73    70    1
   110    73    74    1
   111   134   131    1
   112    70    69    1
   113    75    74    1
   114    75    77   ar
   115   133   132    2
   116   126   123    1
   117   144   143    1
   118   132   131    1
   119   131   130    1
   120   142   143    2
   121   142   139    1
   122   123   122    1
   123   123   124    1
   124   121   120    1
   125   140   141    2
   126   140   139    1
   127   120   119    1
   128   118   119    1
   129   118   117    1
   130   125   124    2
   131   122   115   am
   132   139   138    1
   133   117   114    1
   134   116   115    2
   135   115   114    1
   136   114   113    1
