@<TRIPOS>MOLECULE
tmp/5myeA00.pdb
 92 89 0 0 0
SMALL
GASTEIGER

@<TRIPOS>ATOM
      1  N         11.6760    6.9700   -1.0060 N.3    19  ASP19      -0.1239
      2  CA        11.4790    5.9000   -1.9920 C.3    19  ASP19       0.1674
      3  C         10.6470    4.6930   -1.4980 C.2    19  ASP19       0.2266
      4  O         10.5560    3.6690   -2.1800 O.2    19  ASP19      -0.2867
      5  CB        12.8670    5.4560   -2.4730 C.3    19  ASP19       0.1410
      6  CG        13.7520    4.9260   -1.3410 C.2    19  ASP19       0.3668
      7  OD1       14.3000    5.7290   -0.5520 O.co2  19  ASP19      -0.2456
      8  OD2       13.6650    3.7140   -1.0400 O.co2  19  ASP19      -0.2456
      9  N          6.9410    3.8000   -0.5380 N.3    21  PRO21      -0.2102
     10  CA         5.4890    3.8800   -0.3440 C.3    21  PRO21       0.1504
     11  C          5.0030    2.8300    0.6680 C.2    21  PRO21       0.2575
     12  O          4.0850    3.0740    1.4410 O.2    21  PRO21      -0.2718
     13  CB         4.8930    3.6790   -1.7360 C.3    21  PRO21       0.0282
     14  CG         5.9050    2.7880   -2.4480 C.3    21  PRO21       0.0208
     15  CD         7.2410    3.2150   -1.8400 C.3    21  PRO21       0.0893
     16  N          5.7830    1.7570    0.8070 N.am   22  PHE22      -0.1977
     17  CA         5.7060    0.7210    1.8280 C.3    22  PHE22       0.1639
     18  C          5.7390    1.2460    3.2780 C.2    22  PHE22       0.2290
     19  O          4.8980    0.8350    4.0720 O.2    22  PHE22      -0.2864
     20  CB         6.8780   -0.2310    1.5430 C.3    22  PHE22       0.0560
     21  CG         6.7880   -0.9370    0.1970 C.ar   22  PHE22      -0.0200
     22  CD1        5.8320   -1.9510    0.0200 C.ar   22  PHE22      -0.0042
     23  CD2        7.6780   -0.6340   -0.8550 C.ar   22  PHE22      -0.0042
     24  CE1        5.7740   -2.6780   -1.1800 C.ar   22  PHE22      -0.0003
     25  CE2        7.6140   -1.3600   -2.0640 C.ar   22  PHE22      -0.0003
     26  CZ         6.6690   -2.3880   -2.2220 C.ar   22  PHE22      -0.0000
     27  N          4.8250   -1.7490   -9.0100 N.3   107  VAL107     -0.1245
     28  CA         6.2430   -1.8940   -8.6050 C.3   107  VAL107      0.1561
     29  C          7.1040   -2.2520   -9.8150 C.2   107  VAL107      0.2260
     30  O          8.1540   -1.6480  -10.0260 O.2   107  VAL107     -0.2867
     31  CB         6.4300   -2.9430   -7.4860 C.3   107  VAL107      0.0252
     32  CG1        7.8970   -3.1510   -7.0860 C.3   107  VAL107      0.0019
     33  CG2        5.7090   -2.4960   -6.2140 C.3   107  VAL107      0.0019
     34  N          8.0660    0.6510  -12.1490 N.3   110  LEU110     -0.1231
     35  CA         9.2730    1.3010  -11.6140 C.3   110  LEU110      0.1693
     36  C         10.5520    0.4230  -11.6500 C.2   110  LEU110      0.2591
     37  O         11.5760    0.8200  -11.0910 O.2   110  LEU110     -0.2718
     38  CB         8.9460    1.7990  -10.1910 C.3   110  LEU110      0.0284
     39  CG         7.8780    2.9110  -10.1340 C.3   110  LEU110      0.0019
     40  CD1        7.3920    3.0710   -8.6940 C.3   110  LEU110      0.0001
     41  CD2        8.4340    4.2560  -10.6060 C.3   110  LEU110      0.0001
     42  N         10.5030   -0.7460  -12.3060 N.am  111  LYS111     -0.1980
     43  CA        11.5930   -1.7250  -12.5290 C.3   111  LYS111      0.1596
     44  C         11.4950   -2.3480  -13.9410 C.2   111  LYS111      0.2287
     45  O         11.7190   -3.5450  -14.1670 O.2   111  LYS111     -0.2864
     46  CB        11.5960   -2.7250  -11.3550 C.3   111  LYS111      0.0298
     47  CG        12.6570   -3.8440  -11.4240 C.3   111  LYS111      0.0038
     48  CD        13.0400   -4.3660  -10.0350 C.3   111  LYS111      0.0206
     49  CE        13.9840   -3.3720   -9.3560 C.3   111  LYS111      0.1093
     50  NZ        13.9060   -3.4630   -7.8910 N.3   111  LYS111     -0.1314
     51  N          1.7330    4.2910   -3.2770 N.3   156  LYS156     -0.1245
     52  CA         2.3940    3.7410   -4.4750 C.3   156  LYS156      0.1561
     53  C          1.9770    4.4850   -5.7490 C.2   156  LYS156      0.2260
     54  O          2.8210    4.6670   -6.6180 O.2   156  LYS156     -0.2867
     55  CB         2.1390    2.2270   -4.5820 C.3   156  LYS156      0.0271
     56  CG         3.0680    1.5640   -5.6170 C.3   156  LYS156      0.0035
     57  CD         2.8270    0.0540   -5.7760 C.3   156  LYS156      0.0206
     58  CE         3.0390   -0.7700   -4.4960 C.3   156  LYS156      0.1093
     59  NZ         4.4200   -0.6410   -3.9630 N.3   156  LYS156     -0.1314
     60  N          4.0260    7.7040   -5.3980 N.3   159  HIS159     -0.1241
     61  CA         5.3940    7.3450   -5.7860 C.3   159  HIS159      0.1621
     62  C          5.5280    7.1230   -7.3060 C.2   159  HIS159      0.2264
     63  O          6.6020    7.3650   -7.8550 O.2   159  HIS159     -0.2867
     64  CB         5.8450    6.1130   -4.9840 C.3   159  HIS159      0.0745
     65  CG         7.2960    5.7200   -5.1680 C.ar  159  HIS159      0.0817
     66  ND1        7.9270    5.4540   -6.3610 N.ar  159  HIS159     -0.2268
     67  CD2        8.2580    5.6640   -4.1980 C.ar  159  HIS159      0.1154
     68  CE1        9.2270    5.2380   -6.1170 C.ar  159  HIS159      0.1986
     69  NE2        9.4650    5.2910   -4.8000 N.ar  159  HIS159     -0.2212
     70  N         14.8260    5.9890   -5.4260 N.3   206  TRP206     -0.1241
     71  CA        14.2750    5.0490   -6.4010 C.3   206  TRP206      0.1605
     72  C         15.2700    4.6400   -7.4950 C.2   206  TRP206      0.2264
     73  O         15.2480    3.4710   -7.8690 O.2   206  TRP206     -0.2867
     74  CB        12.9860    5.6290   -7.0030 C.3   206  TRP206      0.0550
     75  CG        12.6020    5.0670   -8.3400 C.ar  206  TRP206      0.0003
     76  CD1       12.1920    3.8010   -8.5830 C.ar  206  TRP206      0.0946
     77  CD2       12.8460    5.6600   -9.6520 C.ar  206  TRP206      0.0152
     78  NE1       12.1050    3.5890   -9.9470 N.ar  206  TRP206     -0.2442
     79  CE2       12.5040    4.7050  -10.6540 C.ar  206  TRP206      0.0810
     80  CE3       13.3770    6.8930  -10.0880 C.ar  206  TRP206      0.0012
     81  CZ2       12.6680    4.9650  -12.0220 C.ar  206  TRP206      0.0191
     82  CZ3       13.5520    7.1620  -11.4580 C.ar  206  TRP206      0.0001
     83  CH2       13.2060    6.2000  -12.4220 C.ar  206  TRP206      0.0015
     84  N         17.0130    1.4070   -6.9970 N.3   209  LYS209     -0.1245
     85  CA        15.8900    0.4630   -6.8930 C.3   209  LYS209      0.1561
     86  C         15.1420    0.2350   -8.2130 C.2   209  LYS209      0.2260
     87  O         14.2590   -0.6200   -8.2540 O.2   209  LYS209     -0.2867
     88  CB        14.9250    0.9030   -5.7840 C.3   209  LYS209      0.0271
     89  CG        15.6080    1.0750   -4.4170 C.3   209  LYS209      0.0035
     90  CD        14.6710    1.7570   -3.4170 C.3   209  LYS209      0.0206
     91  CE        13.5010    0.8690   -2.9990 C.3   209  LYS209      0.1093
     92  NZ        12.4710    1.6880   -2.3280 N.3   209  LYS209     -0.1314
@<TRIPOS>BOND
     1    45    44    2
     2    44    43    1
     3    43    42    1
     4    43    46    1
     5    83    81   ar
     6    83    82   ar
     7    42    36   am
     8    34    35    1
     9    81    79   ar
    10    36    35    1
    11    36    37    2
    12    35    38    1
    13    82    80   ar
    14    47    46    1
    15    47    48    1
    16    79    78   ar
    17    79    77   ar
    18    41    39    1
    19    38    39    1
    20    39    40    1
    21    80    77   ar
    22    48    49    1
    23    30    29    2
    24    78    76   ar
    25    29    28    1
    26    77    75   ar
    27    49    50    1
    28    27    28    1
    29    28    31    1
    30    76    75   ar
    31    75    74    1
    32    87    86    2
    33    86    85    1
    34    73    72    2
    35    63    62    2
    36    72    71    1
    37    31    32    1
    38    31    33    1
    39    62    61    1
    40    74    71    1
    41    84    85    1
    42    85    88    1
    43    54    53    2
    44    71    70    1
    45    66    68   ar
    46    66    65   ar
    47    68    69   ar
    48    61    60    1
    49    61    64    1
    50    88    89    1
    51    57    56    1
    52    57    58    1
    53    53    52    1
    54    56    55    1
    55    65    64    1
    56    65    67   ar
    57    69    67   ar
    58    55    52    1
    59    58    59    1
    60    52    51    1
    61    89    90    1
    62    90    91    1
    63    91    92    1
    64     5     2    1
    65     5     6    1
    66    14    15    1
    67    14    13    1
    68    26    25   ar
    69    26    24   ar
    70     4     3    2
    71    25    23   ar
    72     2     3    1
    73     2     1    1
    74    15     9    1
    75    13    10    1
    76     6     8   ar
    77     6     7   ar
    78    24    22   ar
    79    23    21   ar
    80     9    10    1
    81    10    11    1
    82    22    21   ar
    83    21    20    1
    84    11    16   am
    85    11    12    2
    86    16    17    1
    87    20    17    1
    88    17    18    1
    89    18    19    2
