@<TRIPOS>MOLECULE
tmp/5mygC00.pdb
 127 124 0 0 0
SMALL
GASTEIGER

@<TRIPOS>ATOM
      1  N         -5.2250   30.8270    0.9860 N.3    22  GLY22      -0.1210
      2  CA        -5.4890   30.4370    2.3560 C.3    22  GLY22       0.1956
      3  C         -4.2480   30.3960    3.2330 C.2    22  GLY22       0.2612
      4  O         -4.3400   30.1500    4.4390 O.2    22  GLY22      -0.2717
      5  N         -3.0890   30.6330    2.6220 N.am   23  ASN23      -0.1960
      6  CA        -1.7980   30.4100    3.2800 C.3    23  ASN23       0.1819
      7  C         -1.8130   29.0160    3.8950 C.2    23  ASN23       0.2621
      8  O         -1.3580   28.7900    5.0140 O.2    23  ASN23      -0.2715
      9  CB        -1.4790   31.4940    4.3200 C.3    23  ASN23       0.1195
     10  CG        -1.2850   32.8730    3.6960 C.2    23  ASN23       0.2630
     11  OD1       -0.5650   33.0240    2.7080 O.2    23  ASN23      -0.2716
     12  ND2       -1.9110   33.8860    4.2840 N.am   23  ASN23      -0.0877
     13  N         -2.3310   28.0800    3.1140 N.am   24  ILE24      -0.1963
     14  CA        -2.4560   26.7090    3.5500 C.3    24  ILE24       0.1727
     15  C         -1.1130   26.0130    3.5430 C.2    24  ILE24       0.2616
     16  O         -0.8370   25.1950    4.4160 O.2    24  ILE24      -0.2715
     17  CB        -3.5120   25.9740    2.6740 C.3    24  ILE24       0.0290
     18  CG1       -4.8760   26.2330    3.3060 C.3    24  ILE24       0.0022
     19  CG2       -3.3220   24.4810    2.6540 C.3    24  ILE24       0.0023
     20  CD1       -6.0090   25.4700    2.6820 C.3    24  ILE24       0.0001
     21  N         -0.2500   26.4270    2.6190 N.am   25  PHE25      -0.1974
     22  CA         1.0150   25.7630    2.3640 C.3    25  PHE25       0.1639
     23  C          2.2110   26.6440    2.7470 C.2    25  PHE25       0.2290
     24  O          3.3580   26.3860    2.3620 O.2    25  PHE25      -0.2864
     25  CB         1.0960   25.3950    0.8830 C.3    25  PHE25       0.0560
     26  CG        -0.0660   24.6030    0.3960 C.ar   25  PHE25      -0.0200
     27  CD1       -0.1270   23.2380    0.6130 C.ar   25  PHE25      -0.0042
     28  CD2       -1.1030   25.2260   -0.2780 C.ar   25  PHE25      -0.0042
     29  CE1       -1.2090   22.5010    0.1580 C.ar   25  PHE25      -0.0003
     30  CE2       -2.1960   24.4940   -0.7350 C.ar   25  PHE25      -0.0003
     31  CZ        -2.2550   23.1360   -0.5250 C.ar   25  PHE25      -0.0000
     32  N          3.5970   27.2420    5.6170 N.3    27  GLU27      -0.1245
     33  CA         4.5060   26.7500    6.6460 C.3    27  GLU27       0.1567
     34  C          4.4650   25.2320    6.7670 C.2    27  GLU27       0.2260
     35  O          3.5450   24.6170    6.2560 O.2    27  GLU27      -0.2867
     36  CB         4.1710   27.4540    7.9660 C.3    27  GLU27       0.0388
     37  CG         4.8370   28.8350    8.0470 C.3    27  GLU27       0.1160
     38  CD         3.9710   29.8920    8.7190 C.2    27  GLU27       0.3649
     39  OE1        3.0830   29.5280    9.5160 O.co2  27  GLU27      -0.2457
     40  OE2        4.2000   31.0980    8.4600 O.co2  27  GLU27      -0.2457
     41  N          3.6390   21.5540    7.6970 N.3    29  VAL29      -0.1231
     42  CA         2.4480   20.9450    8.2560 C.3    29  VAL29       0.1678
     43  C          2.7170   20.7380    9.7640 C.2    29  VAL29       0.2434
     44  O          3.7040   20.1000   10.1470 O.2    29  VAL29      -0.2733
     45  CB         2.0880   19.6250    7.4920 C.3    29  VAL29       0.0265
     46  CG1        0.9240   18.8830    8.1310 C.3    29  VAL29       0.0020
     47  CG2        1.7410   19.9290    6.0160 C.3    29  VAL29       0.0020
     48  N          1.9130   21.3930   10.6170 N.am   30  PRO30      -0.2729
     49  CA         2.1410   21.3480   12.0770 C.3    30  PRO30       0.1401
     50  C          1.9970   19.9340   12.6290 C.2    30  PRO30       0.2269
     51  O          0.8860   19.4350   12.7480 O.2    30  PRO30      -0.2865
     52  CB         1.0500   22.2740   12.6360 C.3    30  PRO30       0.0296
     53  CG        -0.0150   22.3050   11.5380 C.3    30  PRO30       0.0237
     54  CD         0.7500   22.2240   10.2550 C.3    30  PRO30       0.0939
     55  N         -0.2720   19.0080   15.3380 N.3    33  GLU33      -0.1231
     56  CA        -1.6840   18.9760   14.9680 C.3    33  GLU33       0.1699
     57  C         -2.0490   17.6980   14.2150 C.2    33  GLU33       0.2592
     58  O         -3.1960   17.2470   14.2210 O.2    33  GLU33      -0.2718
     59  CB        -1.9970   20.1950   14.0990 C.3    33  GLU33       0.0402
     60  CG        -3.4220   20.3310   13.6090 C.3    33  GLU33       0.1161
     61  CD        -4.3790   20.8040   14.6900 C.2    33  GLU33       0.3649
     62  OE1       -3.9360   21.5020   15.6230 O.co2  33  GLU33      -0.2457
     63  OE2       -5.5850   20.5380   14.5570 O.co2  33  GLU33      -0.2457
     64  N         -1.0270   17.0870   13.6290 N.am   34  VAL34      -0.1980
     65  CA        -1.1720   15.9280   12.7660 C.3    34  VAL34       0.1595
     66  C         -0.1000   14.9180   13.1220 C.2    34  VAL34       0.2287
     67  O          0.8970   14.8030   12.3970 O.2    34  VAL34      -0.2864
     68  CB        -1.0170   16.3280   11.2800 C.3    34  VAL34       0.0276
     69  CG1       -1.3690   15.1890   10.3850 C.3    34  VAL34       0.0022
     70  CG2       -1.8940   17.5000   10.9590 C.3    34  VAL34       0.0022
     71  N          1.3920   12.3310   10.5850 N.3    37  TYR37      -0.1241
     72  CA         1.7450   12.8250    9.2470 C.3    37  TYR37       0.1605
     73  C          3.0240   12.2130    8.6360 C.2    37  TYR37       0.2264
     74  O          3.0320   11.8340    7.4550 O.2    37  TYR37      -0.2867
     75  CB         1.8890   14.3440    9.2830 C.3    37  TYR37       0.0534
     76  CG         2.0540   14.9750    7.9300 C.ar   37  TYR37      -0.0201
     77  CD1        0.9480   15.2000    7.1130 C.ar   37  TYR37      -0.0009
     78  CD2        3.3140   15.3470    7.4610 C.ar   37  TYR37      -0.0009
     79  CE1        1.0780   15.7660    5.8870 C.ar   37  TYR37       0.0417
     80  CE2        3.4630   15.9370    6.2170 C.ar   37  TYR37       0.0417
     81  CZ         2.3350   16.1410    5.4310 C.ar   37  TYR37       0.1957
     82  OH         2.4550   16.7200    4.1900 O.3    37  TYR37      -0.2866
     83  N          0.1470   16.6670   -0.1310 N.3    76  CYS76      -0.1235
     84  CA        -1.1160   17.1140    0.3710 C.3    76  CYS76       0.1677
     85  C         -2.2550   16.2540   -0.1860 C.2    76  CYS76       0.2270
     86  O         -3.1690   15.9120    0.5430 O.2    76  CYS76      -0.2867
     87  CB        -1.3130   18.5880    0.0250 C.3    76  CYS76       0.0956
     88  SG        -2.8680   19.2530    0.6340 S.3    76  CYS76      -0.0801
     89  N         -2.0800   12.7430    1.4880 N.3    79  TYR79      -0.1227
     90  CA        -2.4420   12.6710    2.8990 C.3    79  TYR79       0.1736
     91  C         -3.9060   12.9710    3.1900 C.2    79  TYR79       0.2595
     92  O         -4.5330   12.2730    3.9890 O.2    79  TYR79      -0.2718
     93  CB        -1.5710   13.6020    3.7440 C.3    79  TYR79       0.0548
     94  CG        -1.9260   13.4750    5.2020 C.ar   79  TYR79      -0.0200
     95  CD1       -1.5970   12.3260    5.9000 C.ar   79  TYR79      -0.0009
     96  CD2       -2.6000   14.4810    5.8720 C.ar   79  TYR79      -0.0009
     97  CE1       -1.9220   12.1770    7.2140 C.ar   79  TYR79       0.0417
     98  CE2       -2.9220   14.3440    7.2030 C.ar   79  TYR79       0.0417
     99  CZ        -2.5790   13.1850    7.8670 C.ar   79  TYR79       0.1957
    100  OH        -2.8870   13.0130    9.1810 O.3    79  TYR79      -0.2866
    101  N         -4.4280   14.0400    2.5940 N.am   80  ASN80      -0.1974
    102  CA        -5.7880   14.4710    2.8890 C.3    80  ASN80       0.1688
    103  C         -6.8320   13.7430    2.0390 C.2    80  ASN80       0.2292
    104  O         -6.5650   13.4020    0.8940 O.2    80  ASN80      -0.2864
    105  CB        -5.8970   15.9830    2.7070 C.3    80  ASN80       0.1181
    106  CG        -4.9480   16.7390    3.6240 C.2    80  ASN80       0.2629
    107  OD1       -5.2830   17.0150    4.7740 O.2    80  ASN80      -0.2716
    108  ND2       -3.7570   17.0820    3.1210 N.am   80  ASN80      -0.0877
    109  N        -10.6520   20.6300    2.7420 N.3    85  ILE85      -0.1231
    110  CA       -10.2070   21.9930    2.4730 C.3    85  ILE85       0.1692
    111  C         -8.7890   22.0200    1.8970 C.2    85  ILE85       0.2592
    112  O         -8.5050   22.7790    0.9640 O.2    85  ILE85      -0.2718
    113  CB       -10.2160   22.8630    3.7600 C.3    85  ILE85       0.0266
    114  CG1      -11.6110   23.3260    4.1060 C.3    85  ILE85       0.0019
    115  CG2       -9.3750   24.1140    3.5840 C.3    85  ILE85       0.0020
    116  CD1      -11.7240   23.8410    5.5190 C.3    85  ILE85       0.0001
    117  N         -7.9110   21.1870    2.4540 N.am   86  PHE86      -0.1976
    118  CA        -6.5120   21.1570    2.0400 C.3    86  PHE86       0.1639
    119  C         -6.4020   20.5460    0.6230 C.2    86  PHE86       0.2290
    120  O         -5.7190   21.0890   -0.2390 O.2    86  PHE86      -0.2864
    121  CB        -5.6540   20.3720    3.0440 C.3    86  PHE86       0.0560
    122  CG        -5.7880   20.8470    4.4820 C.ar   86  PHE86      -0.0200
    123  CD1       -5.8380   22.1900    4.7910 C.ar   86  PHE86      -0.0042
    124  CD2       -5.8720   19.9270    5.5160 C.ar   86  PHE86      -0.0042
    125  CE1       -5.9510   22.6050    6.1030 C.ar   86  PHE86      -0.0003
    126  CE2       -6.0080   20.3270    6.8280 C.ar   86  PHE86      -0.0003
    127  CZ        -6.0500   21.6700    7.1280 C.ar   86  PHE86      -0.0000
@<TRIPOS>BOND
     1    30    31   ar
     2    30    28   ar
     3    31    29   ar
     4    28    26   ar
     5   120   119    2
     6    85    84    1
     7    85    86    2
     8    83    84    1
     9    87    84    1
    10    87    88    1
    11    29    27   ar
    12    26    27   ar
    13    26    25    1
    14   119   118    1
    15    25    22    1
    16   104   103    2
    17   112   111    2
    18     1     2    1
    19    89    90    1
    20   111   117   am
    21   111   110    1
    22   103   102    1
    23   118   117    1
    24   118   121    1
    25     2     3    1
    26    24    23    2
    27    22    21    1
    28    22    23    1
    29   110   109    1
    30   110   113    1
    31   101   102    1
    32   101    91   am
    33    21    15   am
    34     5     3   am
    35     5     6    1
    36    19    17    1
    37    17    18    1
    38    17    14    1
    39    20    18    1
    40   105   102    1
    41   105   106    1
    42    11    10    2
    43    90    91    1
    44    90    93    1
    45   121   122    1
    46    13    14    1
    47    13     7   am
    48   108   106   am
    49    91    92    2
    50     3     4    2
    51     6     7    1
    52     6     9    1
    53    15    14    1
    54    15    16    2
    55   115   113    1
    56   106   107    2
    57    10    12   am
    58    10     9    1
    59    93    94    1
    60   113   114    1
    61     7     8    2
    62   114   116    1
    63    82    81    1
    64   122   123   ar
    65   122   124   ar
    66   123   125   ar
    67    94    96   ar
    68    94    95   ar
    69    81    79   ar
    70    81    80   ar
    71   124   126   ar
    72    32    33    1
    73    96    98   ar
    74    79    77   ar
    75    95    97   ar
    76    47    45    1
    77   125   127   ar
    78    80    78   ar
    79    35    34    2
    80    33    34    1
    81    33    36    1
    82   126   127   ar
    83    77    76   ar
    84    98    99   ar
    85    97    99   ar
    86    74    73    2
    87    78    76   ar
    88    45    46    1
    89    45    42    1
    90    41    42    1
    91    99   100    1
    92    76    75    1
    93    36    37    1
    94    37    38    1
    95    42    43    1
    96    40    38   ar
    97    73    72    1
    98    38    39   ar
    99    72    75    1
   100    72    71    1
   101    43    44    2
   102    43    48   am
   103    54    48    1
   104    54    53    1
   105    69    68    1
   106    48    49    1
   107    70    68    1
   108    68    65    1
   109    53    52    1
   110    49    50    1
   111    49    52    1
   112    67    66    2
   113    50    51    2
   114    65    66    1
   115    65    64    1
   116    60    59    1
   117    60    61    1
   118    64    57   am
   119    59    56    1
   120    57    58    2
   121    57    56    1
   122    63    61   ar
   123    61    62   ar
   124    56    55    1
