@<TRIPOS>MOLECULE
tmp/5mykB00.pdb
 119 118 0 0 0
SMALL
GASTEIGER

@<TRIPOS>ATOM
      1  N        -17.0990    7.0790    6.7440 N.3    50  PHE50      -0.1241
      2  CA       -16.8710    7.9920    5.6300 C.3    50  PHE50       0.1605
      3  C        -17.7840    9.2030    5.7440 C.2    50  PHE50       0.2264
      4  O        -18.9540    9.0730    6.1170 O.2    50  PHE50      -0.2867
      5  CB       -17.1290    7.3160    4.2770 C.3    50  PHE50       0.0534
      6  CG       -17.2070    8.2890    3.1310 C.ar   50  PHE50      -0.0203
      7  CD1      -16.0510    8.7120    2.4880 C.ar   50  PHE50      -0.0042
      8  CD2      -18.4350    8.7870    2.7090 C.ar   50  PHE50      -0.0042
      9  CE1      -16.1160    9.6140    1.4450 C.ar   50  PHE50      -0.0003
     10  CE2      -18.5030    9.7060    1.6670 C.ar   50  PHE50      -0.0003
     11  CZ       -17.3410   10.1040    1.0330 C.ar   50  PHE50      -0.0000
     12  N        -18.6760   12.7290    3.2130 N.3    52  SER52      -0.1202
     13  CA       -18.4210   13.4050    1.9470 C.3    52  SER52       0.2020
     14  C        -18.0300   14.8650    2.1920 C.2    52  SER52       0.2619
     15  O        -18.1340   15.3840    3.3130 O.2    52  SER52      -0.2717
     16  CB       -19.6400   13.2900    1.0360 C.3    52  SER52       0.2103
     17  OG       -20.7790   13.9330    1.5840 O.3    52  SER52      -0.2182
     18  N        -17.5570   15.5330    1.1270 N.am   53  ASN53      -0.1960
     19  CA       -16.8970   16.8300    1.3050 C.3    53  ASN53       0.1819
     20  C        -17.8430   17.9110    1.8230 C.2    53  ASN53       0.2621
     21  O        -17.4040   18.7860    2.5780 O.2    53  ASN53      -0.2715
     22  CB       -16.2130   17.2850    0.0040 C.3    53  ASN53       0.1195
     23  CG       -17.1470   17.3160   -1.1870 C.2    53  ASN53       0.2630
     24  OD1      -17.6170   16.2740   -1.6500 O.2    53  ASN53      -0.2716
     25  ND2      -17.3850   18.5190   -1.7260 N.am   53  ASN53      -0.0877
     26  N        -19.1270   17.8820    1.4490 N.am   54  LEU54      -0.1977
     27  CA       -20.1200   18.7610    2.0610 C.3    54  LEU54       0.1596
     28  C        -20.9990   18.0230    3.0700 C.2    54  LEU54       0.2287
     29  O        -22.0530   18.5360    3.4700 O.2    54  LEU54      -0.2864
     30  CB       -20.9750   19.4310    0.9860 C.3    54  LEU54       0.0297
     31  CG       -20.1650   20.2410   -0.0360 C.3    54  LEU54       0.0022
     32  CD1      -21.0290   20.7110   -1.1890 C.3    54  LEU54       0.0001
     33  CD2      -19.4940   21.4260    0.6460 C.3    54  LEU54       0.0001
     34  N        -22.9380   15.5570    2.7730 N.3    56  TYR56      -0.1227
     35  CA       -24.2430   15.0870    2.3110 C.3    56  TYR56       0.1736
     36  C        -24.4290   13.5940    2.5560 C.2    56  TYR56       0.2596
     37  O        -25.5650   13.1300    2.6980 O.2    56  TYR56      -0.2718
     38  CB       -24.4200   15.3880    0.8200 C.3    56  TYR56       0.0548
     39  CG       -24.5180   16.8580    0.4970 C.ar   56  TYR56      -0.0200
     40  CD1      -24.7720   17.7940    1.4930 C.ar   56  TYR56      -0.0009
     41  CD2      -24.3600   17.3130   -0.8060 C.ar   56  TYR56      -0.0009
     42  CE1      -24.8640   19.1410    1.2020 C.ar   56  TYR56       0.0417
     43  CE2      -24.4450   18.6570   -1.1020 C.ar   56  TYR56       0.0417
     44  CZ       -24.6990   19.5660   -0.0950 C.ar   56  TYR56       0.1957
     45  OH       -24.7910   20.9080   -0.3870 O.3    56  TYR56      -0.2866
     46  N        -23.3360   12.8320    2.5980 N.am   57  SER57      -0.1952
     47  CA       -23.3710   11.3830    2.7280 C.3    57  SER57       0.1924
     48  C        -22.4720   10.9640    3.8770 C.2    57  SER57       0.2314
     49  O        -21.3310   11.4320    3.9840 O.2    57  SER57      -0.2863
     50  CB       -22.8890   10.6740    1.4520 C.3    57  SER57       0.2116
     51  OG       -23.5550   11.1450    0.3010 O.3    57  SER57      -0.2180
     52  N        -21.3870    7.1600    5.8730 N.3    59  TYR59      -0.1241
     53  CA       -21.4610    5.7020    5.9070 C.3    59  TYR59       0.1605
     54  C        -20.5900    5.1720    7.0360 C.2    59  TYR59       0.2264
     55  O        -19.5430    5.7490    7.3530 O.2    59  TYR59      -0.2867
     56  CB       -20.9870    5.0720    4.5940 C.3    59  TYR59       0.0534
     57  CG       -21.8740    5.3240    3.4030 C.ar   59  TYR59      -0.0201
     58  CD1      -21.8660    6.5540    2.7560 C.ar   59  TYR59      -0.0009
     59  CD2      -22.7040    4.3240    2.9070 C.ar   59  TYR59      -0.0009
     60  CE1      -22.6690    6.7860    1.6580 C.ar   59  TYR59       0.0417
     61  CE2      -23.5100    4.5460    1.8070 C.ar   59  TYR59       0.0417
     62  CZ       -23.4870    5.7790    1.1880 C.ar   59  TYR59       0.1957
     63  OH       -24.2870    6.0070    0.0920 O.3    59  TYR59      -0.2866
     64  N        -10.0340   10.7910    0.8150 N.3    99  TYR99      -0.1241
     65  CA       -10.5320   10.1520   -0.4000 C.3    99  TYR99       0.1605
     66  C        -10.2550   11.0630   -1.5850 C.2    99  TYR99       0.2264
     67  O        -10.5930   12.2500   -1.5470 O.2    99  TYR99      -0.2867
     68  CB       -12.0320    9.8780   -0.3000 C.3    99  TYR99       0.0534
     69  CG       -12.3980    8.4310   -0.0340 C.ar   99  TYR99      -0.0201
     70  CD1      -12.5230    7.5300   -1.0680 C.ar   99  TYR99      -0.0009
     71  CD2      -12.6200    7.9770    1.2630 C.ar   99  TYR99      -0.0009
     72  CE1      -12.8770    6.1990   -0.8300 C.ar   99  TYR99       0.0417
     73  CE2      -12.9630    6.6660    1.5100 C.ar   99  TYR99       0.0417
     74  CZ       -13.0790    5.7760    0.4570 C.ar   99  TYR99       0.1957
     75  OH       -13.4230    4.4610    0.6800 O.3    99  TYR99      -0.2866
     76  N        -14.2640   12.7310  -10.7150 N.3   103  ASN103     -0.1225
     77  CA       -15.5290   13.2470  -11.2220 C.3   103  ASN103      0.1785
     78  C        -16.5770   13.2090  -10.1150 C.2   103  ASN103      0.2597
     79  O        -16.6460   14.1400   -9.3110 O.2   103  ASN103     -0.2718
     80  CB       -15.9900   12.4750  -12.4640 C.3   103  ASN103      0.1169
     81  CG       -15.7190   10.9850  -12.3640 C.2   103  ASN103      0.2627
     82  OD1      -16.4090   10.2580  -11.6380 O.2   103  ASN103     -0.2716
     83  ND2      -14.7180   10.5170  -13.1030 N.am  103  ASN103     -0.0877
     84  N        -17.3740   12.1440  -10.0290 N.am  104  ILE104     -0.1966
     85  CA       -18.5020   12.1110   -9.1040 C.3   104  ILE104      0.1727
     86  C        -18.3350   11.0610   -8.0100 C.2   104  ILE104      0.2616
     87  O        -19.2590   10.8570   -7.2120 O.2   104  ILE104     -0.2715
     88  CB       -19.8310   11.9120   -9.8510 C.3   104  ILE104      0.0290
     89  CG1      -19.8880   10.5300  -10.5040 C.3   104  ILE104      0.0022
     90  CG2      -20.0400   13.0200  -10.8840 C.3   104  ILE104      0.0023
     91  CD1      -21.3040   10.0680  -10.8010 C.3   104  ILE104      0.0001
     92  N        -17.1780   10.4000   -7.9350 N.am  105  LEU105     -0.1963
     93  CA       -16.9840    9.2560   -7.0500 C.3   105  LEU105      0.1728
     94  C        -15.7060    9.4220   -6.2360 C.2   105  LEU105      0.2616
     95  O        -14.6420    9.6810   -6.8020 O.2   105  LEU105     -0.2715
     96  CB       -16.9210    7.9610   -7.8710 C.3   105  LEU105      0.0311
     97  CG       -17.2040    6.6180   -7.1940 C.3   105  LEU105      0.0022
     98  CD1      -18.6930    6.4240   -6.9930 C.3   105  LEU105      0.0001
     99  CD2      -16.6410    5.5040   -8.0510 C.3   105  LEU105      0.0001
    100  N        -15.8110    9.2660   -4.9140 N.am  106  ASP106     -0.1957
    101  CA       -14.6430    9.1390   -4.0470 C.3   106  ASP106      0.1840
    102  C        -14.1840    7.6880   -4.1280 C.2   106  ASP106      0.2622
    103  O        -14.9000    6.7900   -3.6790 O.2   106  ASP106     -0.2715
    104  CB       -14.9970    9.5090   -2.6070 C.3   106  ASP106      0.1450
    105  CG       -15.2380   10.9800   -2.4270 C.2   106  ASP106      0.3671
    106  OD1      -15.0120   11.7570   -3.3880 O.co2 106  ASP106     -0.2456
    107  OD2      -15.6390   11.3720   -1.3090 O.co2 106  ASP106     -0.2456
    108  N        -13.0030    7.4430   -4.7000 N.am  107  TYR107     -0.1974
    109  CA       -12.6670    6.0960   -5.1330 C.3   107  TYR107      0.1639
    110  C        -11.3720    5.5210   -4.5690 C.2   107  TYR107      0.2290
    111  O        -11.1270    4.3250   -4.7570 O.2   107  TYR107     -0.2864
    112  CB       -12.6210    6.0380   -6.6730 C.3   107  TYR107      0.0560
    113  CG       -11.4440    6.7480   -7.2840 C.ar  107  TYR107     -0.0198
    114  CD1      -10.2200    6.1010   -7.4280 C.ar  107  TYR107     -0.0009
    115  CD2      -11.5440    8.0690   -7.7110 C.ar  107  TYR107     -0.0009
    116  CE1       -9.1360    6.7410   -7.9740 C.ar  107  TYR107      0.0417
    117  CE2      -10.4580    8.7210   -8.2610 C.ar  107  TYR107      0.0417
    118  CZ        -9.2570    8.0480   -8.3980 C.ar  107  TYR107      0.1957
    119  OH        -8.1680    8.6850   -8.9540 O.3   107  TYR107     -0.2866
@<TRIPOS>BOND
     1    83    81   am
     2    80    81    1
     3    80    77    1
     4    81    82    2
     5    77    76    1
     6    77    78    1
     7    90    88    1
     8    91    89    1
     9    89    88    1
    10    78    84   am
    11    78    79    2
    12    84    85    1
    13    88    85    1
    14    85    86    1
    15   119   118    1
    16   118   117   ar
    17   118   116   ar
    18   117   115   ar
    19    99    97    1
    20    86    92   am
    21    86    87    2
    22   116   114   ar
    23    92    93    1
    24    96    97    1
    25    96    93    1
    26   115   113   ar
    27   114   113   ar
    28   113   112    1
    29    97    98    1
    30    93    94    1
    31    95    94    2
    32   112   109    1
    33    94   100   am
    34   109   108    1
    35   109   110    1
    36   100   101    1
    37   111   110    2
    38   108   102   am
    39   102   101    1
    40   102   103    2
    41   101   104    1
    42   106   105   ar
    43   104   105    1
    44   105   107   ar
    45    25    23   am
    46    24    23    2
    47    66    67    2
    48    66    65    1
    49    32    31    1
    50    23    22    1
    51    43    41   ar
    52    43    44   ar
    53    70    72   ar
    54    70    69   ar
    55    72    74   ar
    56    41    39   ar
    57    65    68    1
    58    65    64    1
    59    45    44    1
    60    68    69    1
    61    44    42   ar
    62    31    33    1
    63    31    30    1
    64    69    71   ar
    65    22    19    1
    66    63    62    1
    67    51    50    1
    68    74    75    1
    69    74    73   ar
    70    39    38    1
    71    39    40   ar
    72    38    35    1
    73    30    27    1
    74    11     9   ar
    75    11    10   ar
    76    16    17    1
    77    16    13    1
    78    18    19    1
    79    18    14   am
    80    62    60   ar
    81    62    61   ar
    82    42    40   ar
    83    71    73   ar
    84    19    20    1
    85     9     7   ar
    86    26    20   am
    87    26    27    1
    88    50    47    1
    89    60    58   ar
    90    10     8   ar
    91    61    59   ar
    92    20    21    2
    93    13    14    1
    94    13    12    1
    95    27    28    1
    96    14    15    2
    97    35    36    1
    98    35    34    1
    99     7     6   ar
   100    36    46   am
   101    36    37    2
   102    46    47    1
   103     8     6   ar
   104    47    48    1
   105    58    57   ar
   106    59    57   ar
   107    28    29    2
   108     6     5    1
   109    57    56    1
   110    48    49    2
   111     5     2    1
   112    56    53    1
   113     2     3    1
   114     2     1    1
   115     3     4    2
   116    52    53    1
   117    53    54    1
   118    54    55    2
