@<TRIPOS>MOLECULE
tmp/5mylA00.pdb
 192 189 0 0 0
SMALL
GASTEIGER

@<TRIPOS>ATOM
      1  N          6.2470   34.9910    3.3000 N.3    66  LEU66      -0.1245
      2  CA         5.9590   33.7360    3.9850 C.3    66  LEU66       0.1561
      3  C          4.9640   33.9540    5.1210 C.2    66  LEU66       0.2260
      4  O          4.0580   33.1360    5.3300 O.2    66  LEU66      -0.2867
      5  CB         7.2600   33.1130    4.4970 C.3    66  LEU66       0.0270
      6  CG         7.1750   31.7220    5.1280 C.3    66  LEU66       0.0019
      7  CD1        6.4650   30.7360    4.2180 C.3    66  LEU66       0.0001
      8  CD2        8.5780   31.2050    5.4460 C.3    66  LEU66       0.0001
      9  N          1.5050   34.1050    3.5960 N.3    69  LEU69      -0.1245
     10  CA         1.0280   32.7690    3.2750 C.3    69  LEU69       0.1561
     11  C          0.5430   32.0490    4.5230 C.2    69  LEU69       0.2260
     12  O         -0.5240   31.4240    4.5200 O.2    69  LEU69      -0.2867
     13  CB         2.1530   31.9810    2.6170 C.3    69  LEU69       0.0270
     14  CG         1.8680   31.0950    1.4160 C.3    69  LEU69       0.0019
     15  CD1        0.9280   31.7710    0.4340 C.3    69  LEU69       0.0001
     16  CD2        3.2030   30.7380    0.7700 C.3    69  LEU69       0.0001
     17  N          0.6100   23.0380   -1.0460 N.3    81  MET81      -0.1230
     18  CA         0.9920   23.8650    0.0960 C.3    81  MET81       0.1702
     19  C          2.5040   24.0660    0.1430 C.2    81  MET81       0.2592
     20  O          2.9850   25.2000    0.2460 O.2    81  MET81      -0.2718
     21  CB         0.4860   23.2420    1.4030 C.3    81  MET81       0.0401
     22  CG         1.1450   23.8200    2.6630 C.3    81  MET81       0.0596
     23  SD         0.6050   23.0690    4.2310 S.3    81  MET81      -0.1393
     24  CE         1.4800   21.5030    4.2060 C.3    81  MET81       0.0692
     25  N          3.2750   22.9730    0.0430 N.am   82  TRP82      -0.1976
     26  CA         4.7270   23.1090    0.0900 C.3    82  TRP82       0.1640
     27  C          5.2560   23.8660   -1.1290 C.2    82  TRP82       0.2290
     28  O          6.1410   24.7210   -1.0000 O.2    82  TRP82      -0.2864
     29  CB         5.3740   21.7330    0.2110 C.3    82  TRP82       0.0576
     30  CG         5.0320   21.0650    1.5270 C.ar   82  TRP82       0.0006
     31  CD1        4.1660   20.0250    1.7370 C.ar   82  TRP82       0.0946
     32  CD2        5.5470   21.4310    2.8120 C.ar   82  TRP82       0.0152
     33  NE1        4.1350   19.7030    3.0910 N.ar   82  TRP82      -0.2442
     34  CE2        4.9630   20.5600    3.7650 C.ar   82  TRP82       0.0810
     35  CE3        6.4380   22.4110    3.2470 C.ar   82  TRP82       0.0012
     36  CZ2        5.2620   20.6370    5.1400 C.ar   82  TRP82       0.0191
     37  CZ3        6.7280   22.4900    4.6220 C.ar   82  TRP82       0.0001
     38  CH2        6.1400   21.6110    5.5410 C.ar   82  TRP82       0.0015
     39  N          4.9140   27.5860   -0.6930 N.3    85  GLY85      -0.1210
     40  CA         5.8970   28.1160    0.2370 C.3    85  GLY85       0.1956
     41  C          7.2870   28.1900   -0.3640 C.2    85  GLY85       0.2611
     42  O          7.9690   29.2120   -0.2490 O.2    85  GLY85      -0.2717
     43  N          7.7340   27.1040   -1.0050 N.am   86  ILE86      -0.1979
     44  CA         9.0500   27.1360   -1.6420 C.3    86  ILE86       0.1595
     45  C          9.0960   28.2290   -2.7020 C.2    86  ILE86       0.2287
     46  O         10.1200   28.8960   -2.8780 O.2    86  ILE86      -0.2864
     47  CB         9.4060   25.7540   -2.2240 C.3    86  ILE86       0.0276
     48  CG1        9.5630   24.7140   -1.0980 C.3    86  ILE86       0.0022
     49  CG2       10.6970   25.8350   -3.0520 C.3    86  ILE86       0.0022
     50  CD1        9.6170   23.2770   -1.5800 C.3    86  ILE86       0.0001
     51  N         10.4190   31.8190   -1.9060 N.3    89  PHE89      -0.1241
     52  CA        11.8590   32.0340   -1.9490 C.3    89  PHE89       0.1605
     53  C         12.3900   32.0070   -3.3760 C.2    89  PHE89       0.2264
     54  O         13.2390   32.8300   -3.7370 O.2    89  PHE89      -0.2867
     55  CB        12.5440   30.9950   -1.0720 C.3    89  PHE89       0.0534
     56  CG        12.1620   31.1410    0.3670 C.ar   89  PHE89      -0.0203
     57  CD1       12.7720   32.1020    1.1550 C.ar   89  PHE89      -0.0042
     58  CD2       11.1320   30.3950    0.9030 C.ar   89  PHE89      -0.0042
     59  CE1       12.4010   32.2750    2.4810 C.ar   89  PHE89      -0.0003
     60  CE2       10.7540   30.5680    2.2290 C.ar   89  PHE89      -0.0003
     61  CZ        11.3910   31.5150    3.0150 C.ar   89  PHE89      -0.0000
     62  N         14.0050   35.7160   -4.1210 N.3    93  PHE93      -0.1241
     63  CA        15.4380   35.7810   -4.3730 C.3    93  PHE93       0.1605
     64  C         15.7420   35.7510   -5.8600 C.2    93  PHE93       0.2264
     65  O         16.7070   36.3810   -6.3040 O.2    93  PHE93      -0.2867
     66  CB        16.1470   34.6450   -3.6440 C.3    93  PHE93       0.0534
     67  CG        16.1080   34.7940   -2.1520 C.ar   93  PHE93      -0.0203
     68  CD1       16.8160   35.8070   -1.5380 C.ar   93  PHE93      -0.0042
     69  CD2       15.3540   33.9420   -1.3780 C.ar   93  PHE93      -0.0042
     70  CE1       16.7700   35.9630   -0.1540 C.ar   93  PHE93      -0.0003
     71  CE2       15.3120   34.0930    0.0060 C.ar   93  PHE93      -0.0003
     72  CZ        16.0090   35.1060    0.6040 C.ar   93  PHE93      -0.0000
     73  N         21.8470   36.2880    7.7250 N.3   117  TRP117     -0.1241
     74  CA        21.3830   35.0790    7.0570 C.3   117  TRP117      0.1605
     75  C         21.0380   33.9930    8.0670 C.2   117  TRP117      0.2264
     76  O         20.0190   33.3030    7.9240 O.2   117  TRP117     -0.2867
     77  CB        22.4390   34.5910    6.0630 C.3   117  TRP117      0.0550
     78  CG        21.9130   33.5390    5.1630 C.ar  117  TRP117      0.0003
     79  CD1       22.2280   32.2120    5.1760 C.ar  117  TRP117      0.0946
     80  CD2       20.9430   33.7140    4.1200 C.ar  117  TRP117      0.0152
     81  NE1       21.5190   31.5490    4.1950 N.ar  117  TRP117     -0.2442
     82  CE2       20.7220   32.4510    3.5380 C.ar  117  TRP117      0.0810
     83  CE3       20.2380   34.8160    3.6290 C.ar  117  TRP117      0.0012
     84  CZ2       19.8300   32.2600    2.4790 C.ar  117  TRP117      0.0191
     85  CZ3       19.3500   34.6250    2.5740 C.ar  117  TRP117      0.0001
     86  CH2       19.1540   33.3560    2.0160 C.ar  117  TRP117      0.0015
     87  N         17.4420   32.1220    8.4960 N.3   121  MET121     -0.1245
     88  CA        17.3990   30.6820    8.2670 C.3   121  MET121      0.1570
     89  C         16.8620   29.9470    9.4970 C.2   121  MET121      0.2261
     90  O         16.0590   29.0160    9.3680 O.2   121  MET121     -0.2867
     91  CB        18.7860   30.1630    7.8930 C.3   121  MET121      0.0387
     92  CG        19.2340   30.5170    6.4700 C.3   121  MET121      0.0595
     93  SD        18.2650   29.7000    5.1710 S.3   121  MET121     -0.1393
     94  CE        18.8580   28.0260    5.3260 C.3   121  MET121      0.0692
     95  N         13.0670   30.4040    9.3890 N.3   124  TRP124     -0.1241
     96  CA        12.3820   29.6290    8.3610 C.3   124  TRP124      0.1605
     97  C         12.4200   28.1360    8.6740 C.2   124  TRP124      0.2264
     98  O         11.4440   27.4220    8.4220 O.2   124  TRP124     -0.2867
     99  CB        13.0010   29.9360    6.9860 C.3   124  TRP124      0.0550
    100  CG        12.8380   31.4130    6.6440 C.ar  124  TRP124      0.0003
    101  CD1       11.8340   32.2470    7.0750 C.ar  124  TRP124      0.0946
    102  CD2       13.7080   32.2230    5.8350 C.ar  124  TRP124      0.0152
    103  NE1       12.0280   33.5150    6.5820 N.ar  124  TRP124     -0.2442
    104  CE2       13.1620   33.5260    5.8090 C.ar  124  TRP124      0.0810
    105  CE3       14.8930   31.9710    5.1240 C.ar  124  TRP124      0.0012
    106  CZ2       13.7640   34.5790    5.1130 C.ar  124  TRP124      0.0191
    107  CZ3       15.4920   33.0200    4.4330 C.ar  124  TRP124      0.0001
    108  CH2       14.9190   34.3010    4.4190 C.ar  124  TRP124      0.0015
    109  N          9.8050   27.4280   11.3320 N.3   127  TYR127     -0.1227
    110  CA         8.4620   27.3790   10.7570 C.3   127  TYR127      0.1736
    111  C          8.2360   26.0750    9.9920 C.2   127  TYR127      0.2596
    112  O          7.1860   25.4360   10.1400 O.2   127  TYR127     -0.2718
    113  CB         8.2310   28.5850    9.8440 C.3   127  TYR127      0.0548
    114  CG         6.8600   28.5730    9.2000 C.ar  127  TYR127     -0.0200
    115  CD1        5.7090   28.6600    9.9740 C.ar  127  TYR127     -0.0009
    116  CD2        6.7190   28.4520    7.8240 C.ar  127  TYR127     -0.0009
    117  CE1        4.4500   28.6410    9.3970 C.ar  127  TYR127      0.0417
    118  CE2        5.4620   28.4330    7.2390 C.ar  127  TYR127      0.0417
    119  CZ         4.3350   28.5230    8.0310 C.ar  127  TYR127      0.1957
    120  OH         3.0860   28.4990    7.4530 O.3   127  TYR127     -0.2866
    121  N          9.2180   25.6600    9.1870 N.am  128  THR128     -0.1953
    122  CA         9.1280   24.3810    8.4890 C.3   128  THR128      0.1897
    123  C          8.8780   23.2490    9.4700 C.2   128  THR128      0.2313
    124  O          7.9940   22.4090    9.2630 O.2   128  THR128     -0.2863
    125  CB        10.4120   24.1100    7.7010 C.3   128  THR128      0.1794
    126  OG1       10.5690   25.1150    6.6860 O.3   128  THR128     -0.2208
    127  CG2       10.3170   22.7400    7.0090 C.3   128  THR128      0.0378
    128  N          5.3300   23.1770   10.8710 N.3   131  VAL131     -0.1245
    129  CA         4.3310   22.6650    9.9380 C.3   131  VAL131      0.1561
    130  C          4.4430   21.1530    9.8150 C.2   131  VAL131      0.2260
    131  O          3.4300   20.4440    9.8110 O.2   131  VAL131     -0.2867
    132  CB         4.4630   23.3610    8.5700 C.3   131  VAL131      0.0252
    133  CG1        3.4420   22.7930    7.5850 C.3   131  VAL131      0.0019
    134  CG2        4.2780   24.8620    8.7310 C.3   131  VAL131      0.0019
    135  N         15.8420   22.8780    4.2140 N.3   155  ASN155     -0.1240
    136  CA        16.0750   24.2950    3.9760 C.3   155  ASN155      0.1653
    137  C         17.4870   24.5560    3.4590 C.2   155  ASN155      0.2266
    138  O         17.6880   25.4630    2.6400 O.2   155  ASN155     -0.2867
    139  CB        15.8150   25.1010    5.2520 C.3   155  ASN155      0.1155
    140  CG        14.3440   25.4230    5.4430 C.2   155  ASN155      0.2627
    141  OD1       13.9150   26.5120    5.1320 O.2   155  ASN155     -0.2716
    142  ND2       13.5780   24.4930    5.9680 N.am  155  ASN155     -0.0877
    143  N         17.4780   23.8180   -0.1870 N.3   158  ASN158     -0.1225
    144  CA        16.8890   24.8790   -0.9990 C.3   158  ASN158      0.1785
    145  C         17.8530   26.0410   -1.1540 C.2   158  ASN158      0.2597
    146  O         17.9640   26.6140   -2.2410 O.2   158  ASN158     -0.2718
    147  CB        15.5840   25.3930   -0.4050 C.3   158  ASN158      0.1169
    148  CG        14.4490   24.4080   -0.5160 C.2   158  ASN158      0.2627
    149  OD1       14.6380   23.2440   -0.8680 O.2   158  ASN158     -0.2716
    150  ND2       13.2480   24.8800   -0.2050 N.am  158  ASN158     -0.0877
    151  N         18.5290   26.4310   -0.0700 N.am  159  GLU159     -0.1979
    152  CA        19.5220   27.4990   -0.1720 C.3   159  GLU159      0.1602
    153  C         20.5500   27.1940   -1.2560 C.2   159  GLU159      0.2287
    154  O         20.7560   27.9860   -2.1870 O.2   159  GLU159     -0.2864
    155  CB        20.2280   27.7010    1.1690 C.3   159  GLU159      0.0415
    156  CG        21.3260   28.7630    1.1280 C.3   159  GLU159      0.1163
    157  CD        22.3070   28.6430    2.2980 C.2   159  GLU159      0.3649
    158  OE1       21.8600   28.6430    3.4650 O.co2 159  GLU159     -0.2457
    159  OE2       23.5260   28.5530    2.0460 O.co2 159  GLU159     -0.2457
    160  N         18.7960   26.5710   -4.9730 N.3   162  LEU162     -0.1231
    161  CA        18.2520   27.7690   -5.6060 C.3   162  LEU162      0.1693
    162  C         19.3710   28.7030   -6.0230 C.2   162  LEU162      0.2592
    163  O         19.3820   29.2200   -7.1450 O.2   162  LEU162     -0.2718
    164  CB        17.2850   28.4790   -4.6600 C.3   162  LEU162      0.0284
    165  CG        15.9210   27.8190   -4.4600 C.3   162  LEU162      0.0019
    166  CD1       15.1680   28.4880   -3.3190 C.3   162  LEU162      0.0001
    167  CD2       15.1010   27.9020   -5.7440 C.3   162  LEU162      0.0001
    168  N         20.3400   28.9120   -5.1360 N.am  163  PHE163     -0.1976
    169  CA        21.4250   29.8330   -5.4600 C.3   163  PHE163      0.1639
    170  C         22.3110   29.2960   -6.5880 C.2   163  PHE163      0.2290
    171  O         22.7480   30.0680   -7.4530 O.2   163  PHE163     -0.2864
    172  CB        22.2240   30.1410   -4.1980 C.3   163  PHE163      0.0560
    173  CG        21.4340   30.9000   -3.1660 C.ar  163  PHE163     -0.0200
    174  CD1       20.1630   31.3730   -3.4590 C.ar  163  PHE163     -0.0042
    175  CD2       21.9590   31.1470   -1.9090 C.ar  163  PHE163     -0.0042
    176  CE1       19.4260   32.0600   -2.5140 C.ar  163  PHE163     -0.0003
    177  CE2       21.2300   31.8450   -0.9650 C.ar  163  PHE163     -0.0003
    178  CZ        19.9710   32.3090   -1.2730 C.ar  163  PHE163     -0.0000
    179  N         10.9960   17.5170   -0.9460 N.3   186  TRP186     -0.1241
    180  CA        10.3130   17.8770    0.3000 C.3   186  TRP186      0.1605
    181  C          9.1400   16.9400    0.5710 C.2   186  TRP186      0.2264
    182  O          9.0030   16.3990    1.6790 O.2   186  TRP186     -0.2867
    183  CB         9.8130   19.3260    0.2350 C.3   186  TRP186      0.0550
    184  CG        10.8410   20.3660    0.5430 C.ar  186  TRP186      0.0003
    185  CD1       12.0140   20.5900   -0.1170 C.ar  186  TRP186      0.0946
    186  CD2       10.7550   21.3680    1.5610 C.ar  186  TRP186      0.0152
    187  NE1       12.6850   21.6510    0.4440 N.ar  186  TRP186     -0.2442
    188  CE2       11.9290   22.1490    1.4780 C.ar  186  TRP186      0.0810
    189  CE3        9.8000   21.6790    2.5330 C.ar  186  TRP186      0.0012
    190  CZ2       12.1890   23.2060    2.3590 C.ar  186  TRP186      0.0191
    191  CZ3       10.0530   22.7380    3.4070 C.ar  186  TRP186      0.0001
    192  CH2       11.2360   23.4910    3.3110 C.ar  186  TRP186      0.0015
@<TRIPOS>BOND
     1   171   170    2
     2   163   162    2
     3   170   169    1
     4    65    64    2
     5   162   161    1
     6   162   168   am
     7    64    63    1
     8   167   165    1
     9   161   160    1
    10   161   164    1
    11   169   168    1
    12   169   172    1
    13   164   165    1
    14   165   166    1
    15    63    62    1
    16    63    66    1
    17   172   173    1
    18    54    53    2
    19    66    67    1
    20   174   173   ar
    21   174   176   ar
    22    53    52    1
    23   173   175   ar
    24    49    47    1
    25    46    45    2
    26    45    44    1
    27   176   178   ar
    28   146   145    2
    29    47    44    1
    30    47    48    1
    31   154   153    2
    32    67    68   ar
    33    67    69   ar
    34    52    51    1
    35    52    55    1
    36   175   177   ar
    37    44    43    1
    38    50    48    1
    39    68    70   ar
    40    69    71   ar
    41   178   177   ar
    42   153   152    1
    43   145   144    1
    44   145   151   am
    45    27    28    2
    46    27    26    1
    47    55    56    1
    48    17    18    1
    49    43    41   am
    50   144   147    1
    51   144   143    1
    52   179   180    1
    53   149   148    2
    54    39    40    1
    55   148   147    1
    56   148   150   am
    57    41    42    2
    58    41    40    1
    59   152   151    1
    60   152   155    1
    61    70    72   ar
    62   185   187   ar
    63   185   184   ar
    64    71    72   ar
    65    25    26    1
    66    25    19   am
    67    26    29    1
    68    18    19    1
    69    18    21    1
    70    19    20    2
    71    29    30    1
    72   183   180    1
    73   183   184    1
    74   180   181    1
    75    56    58   ar
    76    56    57   ar
    77    15    14    1
    78   187   188   ar
    79   184   186   ar
    80   181   182    2
    81    16    14    1
    82    58    60   ar
    83   156   155    1
    84   156   157    1
    85    57    59   ar
    86    21    22    1
    87    14    13    1
    88   188   186   ar
    89   188   190   ar
    90    30    31   ar
    91    30    32   ar
    92   186   189   ar
    93    31    33   ar
    94    86    84   ar
    95    86    85   ar
    96   159   157   ar
    97    60    61   ar
    98   157   158   ar
    99   190   192   ar
   100    84    82   ar
   101    59    61   ar
   102   189   191   ar
   103    85    83   ar
   104    13    10    1
   105   138   137    2
   106    22    23    1
   107    32    35   ar
   108    32    34   ar
   109    33    34   ar
   110    35    37   ar
   111    10     9    1
   112    10    11    1
   113     1     2    1
   114   192   191   ar
   115   137   136    1
   116    82    80   ar
   117    82    81   ar
   118    83    80   ar
   119    34    36   ar
   120   136   135    1
   121   136   139    1
   122     2     5    1
   123     2     3    1
   124    80    78   ar
   125    81    79   ar
   126    24    23    1
   127     7     6    1
   128   108   107   ar
   129   108   106   ar
   130   107   105   ar
   131     5     6    1
   132    12    11    2
   133    37    38   ar
   134   106   104   ar
   135     3     4    2
   136   105   102   ar
   137     6     8    1
   138   141   140    2
   139    36    38   ar
   140    78    79   ar
   141    78    77    1
   142    93    94    1
   143    93    92    1
   144   139   140    1
   145   140   142   am
   146   104   102   ar
   147   104   103   ar
   148   102   100   ar
   149    77    74    1
   150    92    91    1
   151   103   101   ar
   152   100    99    1
   153   100   101   ar
   154   126   125    1
   155    99    96    1
   156   127   125    1
   157    74    73    1
   158    74    75    1
   159   118   116   ar
   160   118   119   ar
   161   120   119    1
   162   133   132    1
   163   125   122    1
   164   116   114   ar
   165    91    88    1
   166    76    75    2
   167   119   117   ar
   168    88    87    1
   169    88    89    1
   170    96    97    1
   171    96    95    1
   172    98    97    2
   173   122   121    1
   174   122   123    1
   175   132   134    1
   176   132   129    1
   177   121   111   am
   178   114   113    1
   179   114   115   ar
   180   124   123    2
   181    90    89    2
   182   117   115   ar
   183   131   130    2
   184   130   129    1
   185   113   110    1
   186   129   128    1
   187   111   112    2
   188   111   110    1
   189   110   109    1
