@<TRIPOS>MOLECULE
tmp/5mymC00.pdb
 241 234 0 0 0
SMALL
GASTEIGER

@<TRIPOS>ATOM
      1  N        -15.6360  -45.9490   38.4250 N.3    67  LEU67      -0.1245
      2  CA       -15.1370  -45.7080   37.0780 C.3    67  LEU67       0.1561
      3  C        -13.6650  -46.0450   36.9690 C.2    67  LEU67       0.2260
      4  O        -13.2220  -46.5880   35.9490 O.2    67  LEU67      -0.2867
      5  CB       -15.3680  -44.2560   36.6770 C.3    67  LEU67       0.0270
      6  CG       -16.8430  -43.8830   36.6100 C.3    67  LEU67       0.0019
      7  CD1      -16.9720  -42.3730   36.5210 C.3    67  LEU67       0.0001
      8  CD2      -17.5130  -44.5750   35.4310 C.3    67  LEU67       0.0001
      9  N        -12.5000  -48.8800   34.2490 N.3    71  VAL71      -0.1245
     10  CA       -11.5580  -48.4290   33.2300 C.3    71  VAL71       0.1561
     11  C        -10.2410  -49.1870   33.3520 C.2    71  VAL71       0.2260
     12  O         -9.6790  -49.6660   32.3530 O.2    71  VAL71      -0.2867
     13  CB       -11.3620  -46.9080   33.3240 C.3    71  VAL71       0.0252
     14  CG1      -10.1590  -46.4760   32.5120 C.3    71  VAL71       0.0019
     15  CG2      -12.6230  -46.1930   32.8460 C.3    71  VAL71       0.0019
     16  N         -6.4000  -55.4680   28.3430 N.3    78  LEU78      -0.1245
     17  CA        -5.8070  -55.2470   27.0280 C.3    78  LEU78       0.1561
     18  C         -4.2850  -55.3530   27.0950 C.2    78  LEU78       0.2260
     19  O         -3.6430  -55.8930   26.1850 O.2    78  LEU78      -0.2867
     20  CB        -6.2580  -53.8840   26.4790 C.3    78  LEU78       0.0270
     21  CG        -5.7010  -53.4200   25.1400 C.3    78  LEU78       0.0019
     22  CD1       -6.3320  -54.2560   24.0660 C.3    78  LEU78       0.0001
     23  CD2       -6.0490  -51.9570   24.9110 C.3    78  LEU78       0.0001
     24  N         -7.3560  -58.1450   16.2180 N.3    94  TRP94      -0.1241
     25  CA        -8.1050  -56.9180   16.4500 C.3    94  TRP94       0.1605
     26  C         -9.4260  -57.1810   17.1600 C.2    94  TRP94       0.2264
     27  O         -9.8990  -56.3220   17.9120 O.2    94  TRP94      -0.2867
     28  CB        -8.3340  -56.1960   15.1260 C.3    94  TRP94       0.0550
     29  CG        -7.0460  -55.7390   14.5380 C.ar   94  TRP94       0.0003
     30  CD1       -6.3940  -56.2670   13.4570 C.ar   94  TRP94       0.0946
     31  CD2       -6.2350  -54.6690   15.0150 C.ar   94  TRP94       0.0152
     32  NE1       -5.2300  -55.5820   13.2260 N.ar   94  TRP94      -0.2442
     33  CE2       -5.1090  -54.5860   14.1590 C.ar   94  TRP94       0.0810
     34  CE3       -6.3600  -53.7530   16.0640 C.ar   94  TRP94       0.0012
     35  CZ2       -4.1020  -53.6310   14.3330 C.ar   94  TRP94       0.0191
     36  CZ3       -5.3660  -52.8030   16.2380 C.ar   94  TRP94       0.0001
     37  CH2       -4.2460  -52.7520   15.3770 C.ar   94  TRP94       0.0015
     38  N         -8.8550  -57.6620   20.9490 N.3    97  GLY97      -0.1210
     39  CA        -8.6330  -56.3290   21.4890 C.3    97  GLY97       0.1956
     40  C         -9.9210  -55.5320   21.6540 C.2    97  GLY97       0.2611
     41  O        -10.1420  -54.8960   22.6840 O.2    97  GLY97      -0.2717
     42  N        -10.7770  -55.5200   20.6310 N.am   98  ILE98      -0.1979
     43  CA       -12.0260  -54.7580   20.7620 C.3    98  ILE98       0.1595
     44  C        -12.9390  -55.4210   21.7930 C.2    98  ILE98       0.2287
     45  O        -13.5750  -54.7500   22.6110 O.2    98  ILE98      -0.2864
     46  CB       -12.7190  -54.6070   19.3960 C.3    98  ILE98       0.0276
     47  CG1      -11.8220  -53.8230   18.4170 C.3    98  ILE98       0.0022
     48  CG2      -14.0880  -53.9130   19.5430 C.3    98  ILE98       0.0022
     49  CD1      -12.4710  -53.5310   17.0390 C.3    98  ILE98       0.0001
     50  N        -13.1130  -54.2940   25.4230 N.3   101  PHE101     -0.1241
     51  CA       -13.9740  -53.1720   25.7580 C.3   101  PHE101      0.1605
     52  C        -15.4470  -53.5310   25.6420 C.2   101  PHE101      0.2264
     53  O        -16.2580  -53.0700   26.4500 O.2   101  PHE101     -0.2867
     54  CB       -13.6230  -51.9940   24.8620 C.3   101  PHE101      0.0534
     55  CG       -12.2180  -51.5160   25.0570 C.ar  101  PHE101     -0.0203
     56  CD1      -11.9340  -50.5360   25.9860 C.ar  101  PHE101     -0.0042
     57  CD2      -11.1690  -52.0870   24.3570 C.ar  101  PHE101     -0.0042
     58  CE1      -10.6220  -50.1170   26.1980 C.ar  101  PHE101     -0.0003
     59  CE2       -9.8620  -51.6690   24.5680 C.ar  101  PHE101     -0.0003
     60  CZ        -9.5970  -50.6760   25.4830 C.ar  101  PHE101     -0.0000
     61  N        -16.8890  -52.9650   29.5760 N.3   105  PHE105     -0.1241
     62  CA       -17.9230  -51.9480   29.7250 C.3   105  PHE105      0.1605
     63  C        -19.3120  -52.5260   29.5200 C.2   105  PHE105      0.2264
     64  O        -20.2680  -52.0890   30.1780 O.2   105  PHE105     -0.2867
     65  CB       -17.6380  -50.7780   28.7660 C.3   105  PHE105      0.0534
     66  CG       -16.3520  -50.0870   29.0870 C.ar  105  PHE105     -0.0203
     67  CD1      -16.3130  -49.0690   30.0300 C.ar  105  PHE105     -0.0042
     68  CD2      -15.1570  -50.5100   28.5030 C.ar  105  PHE105     -0.0042
     69  CE1      -15.1100  -48.4650   30.3570 C.ar  105  PHE105     -0.0003
     70  CE2      -13.9520  -49.9100   28.8270 C.ar  105  PHE105     -0.0003
     71  CZ       -13.9230  -48.8970   29.7560 C.ar  105  PHE105     -0.0000
     72  N        -21.0840  -47.4720   33.2980 N.3   112  THR112     -0.1218
     73  CA       -20.7170  -46.8370   32.0360 C.3   112  THR112      0.1862
     74  C        -21.6430  -45.6770   31.7070 C.2   112  THR112      0.2287
     75  O        -21.1870  -44.5940   31.3300 O.2   112  THR112     -0.2866
     76  CB       -20.7460  -47.8660   30.9010 C.3   112  THR112      0.1770
     77  OG1      -19.7670  -48.8730   31.1490 O.3   112  THR112     -0.2211
     78  CG2      -20.4490  -47.1970   29.5520 C.3   112  THR112      0.0375
     79  N        -20.9330  -42.8030   34.1540 N.3   115  GLY115     -0.1210
     80  CA       -19.6910  -42.0880   33.8940 C.3   115  GLY115      0.1956
     81  C        -19.7480  -41.1960   32.6650 C.2   115  GLY115      0.2611
     82  O        -19.1640  -40.1090   32.6510 O.2   115  GLY115     -0.2717
     83  N        -20.4600  -41.6340   31.6240 N.am  116  GLN116     -0.1979
     84  CA       -20.6890  -40.7670   30.4690 C.3   116  GLN116      0.1601
     85  C        -21.4030  -39.4950   30.8910 C.2   116  GLN116      0.2287
     86  O        -21.0030  -38.3840   30.5220 O.2   116  GLN116     -0.2864
     87  CB       -21.5060  -41.5080   29.4050 C.3   116  GLN116      0.0394
     88  CG       -22.0840  -40.6120   28.3210 C.3   116  GLN116      0.0908
     89  CD       -20.9910  -39.9540   27.4950 C.2   116  GLN116      0.2608
     90  OE1      -19.8530  -40.4400   27.4450 O.2   116  GLN116     -0.2717
     91  NE2      -21.3290  -38.8470   26.8390 N.am  116  GLN116     -0.0878
     92  N        -19.1190  -37.1120   32.5710 N.3   119  ARG119     -0.1245
     93  CA       -18.0760  -36.4750   31.7620 C.3   119  ARG119      0.1563
     94  C        -18.2720  -34.9710   31.6530 C.2   119  ARG119      0.2260
     95  O        -17.3020  -34.2140   31.7330 O.2   119  ARG119     -0.2867
     96  CB       -18.0260  -37.0900   30.3640 C.3   119  ARG119      0.0307
     97  CG       -16.8610  -38.0430   30.1790 C.3   119  ARG119      0.0489
     98  CD       -17.0200  -38.8460   28.9330 C.3   119  ARG119      0.2205
     99  NE       -16.0250  -38.5300   27.9220 N.pl3 119  ARG119     -0.0865
    100  CZ       -16.2060  -38.7620   26.6280 C.cat 119  ARG119      0.5346
    101  NH1      -17.3540  -39.2810   26.2130 N.pl3 119  ARG119      0.1354
    102  NH2      -15.2540  -38.4650   25.7550 N.pl3 119  ARG119      0.1354
    103  N        -13.5630  -37.0850   35.9810 N.3   125  VAL125     -0.1245
    104  CA       -14.0820  -38.0820   35.0510 C.3   125  VAL125      0.1561
    105  C        -13.5910  -37.7920   33.6420 C.2   125  VAL125      0.2260
    106  O        -13.0270  -38.6690   32.9740 O.2   125  VAL125     -0.2867
    107  CB       -15.6160  -38.1320   35.1090 C.3   125  VAL125      0.0252
    108  CG1      -16.1340  -39.1000   34.0510 C.3   125  VAL125      0.0019
    109  CG2      -16.0670  -38.5350   36.5240 C.3   125  VAL125      0.0019
    110  N         -9.9660  -38.5320   33.4070 N.3   128  LEU128     -0.1231
    111  CA        -9.7550  -39.9690   33.4960 C.3   128  LEU128      0.1693
    112  C         -9.9780  -40.6200   32.1370 C.2   128  LEU128      0.2592
    113  O         -9.1000  -41.3090   31.6070 O.2   128  LEU128     -0.2718
    114  CB       -10.6890  -40.5710   34.5520 C.3   128  LEU128      0.0284
    115  CG       -10.7180  -42.1080   34.6170 C.3   128  LEU128      0.0019
    116  CD1       -9.4300  -42.6440   35.2030 C.3   128  LEU128      0.0001
    117  CD2      -11.9150  -42.6590   35.3890 C.3   128  LEU128      0.0001
    118  N        -11.1400  -40.3700   31.5370 N.am  129  TRP129     -0.1976
    119  CA       -11.4560  -40.9760   30.2510 C.3   129  TRP129      0.1640
    120  C        -10.5000  -40.5130   29.1530 C.2   129  TRP129      0.2290
    121  O        -10.0800  -41.3130   28.3140 O.2   129  TRP129     -0.2864
    122  CB       -12.9010  -40.6630   29.8700 C.3   129  TRP129      0.0576
    123  CG       -13.3080  -41.4640   28.7030 C.ar  129  TRP129      0.0006
    124  CD1      -13.5620  -41.0080   27.4520 C.ar  129  TRP129      0.0946
    125  CD2      -13.4510  -42.8900   28.6550 C.ar  129  TRP129      0.0152
    126  NE1      -13.8940  -42.0550   26.6290 N.ar  129  TRP129     -0.2442
    127  CE2      -13.8190  -43.2250   27.3420 C.ar  129  TRP129      0.0810
    128  CE3      -13.3280  -43.9130   29.6040 C.ar  129  TRP129      0.0012
    129  CZ2      -14.0750  -44.5370   26.9530 C.ar  129  TRP129      0.0191
    130  CZ3      -13.5640  -45.2060   29.2170 C.ar  129  TRP129      0.0001
    131  CH2      -13.9230  -45.5140   27.8970 C.ar  129  TRP129      0.0015
    132  N         -8.0720  -42.9710   26.8740 N.3   133  MET133     -0.1245
    133  CA        -8.3000  -42.9610   25.4500 C.3   133  MET133      0.1570
    134  C         -6.9800  -42.7030   24.7550 C.2   133  MET133      0.2261
    135  O         -6.6590  -43.3760   23.8300 O.2   133  MET133     -0.2867
    136  CB        -9.2860  -41.8830   25.0340 C.3   133  MET133      0.0387
    137  CG       -10.7390  -42.2610   25.1530 C.3   133  MET133      0.0595
    138  SD       -11.2340  -43.5670   24.0590 S.3   133  MET133     -0.1393
    139  CE       -11.9280  -44.6630   25.1880 C.3   133  MET133      0.0692
    140  N         -4.8160  -45.8540   24.8270 N.3   136  TRP136     -0.1241
    141  CA        -5.2980  -46.9370   23.9900 C.3   136  TRP136      0.1605
    142  C         -5.1400  -46.6030   22.5130 C.2   136  TRP136      0.2264
    143  O         -5.0000  -47.5070   21.6820 O.2   136  TRP136     -0.2867
    144  CB        -6.7600  -47.2110   24.3050 C.3   136  TRP136      0.0550
    145  CG        -7.0010  -47.6730   25.7080 C.ar  136  TRP136      0.0003
    146  CD1       -6.1360  -48.3630   26.5050 C.ar  136  TRP136      0.0946
    147  CD2       -8.1890  -47.4800   26.4740 C.ar  136  TRP136      0.0152
    148  NE1       -6.7140  -48.6230   27.7150 N.ar  136  TRP136     -0.2442
    149  CE2       -7.9710  -48.0770   27.7320 C.ar  136  TRP136      0.0810
    150  CE3       -9.4120  -46.8330   26.2300 C.ar  136  TRP136      0.0012
    151  CZ2       -8.9400  -48.0730   28.7450 C.ar  136  TRP136      0.0191
    152  CZ3      -10.3740  -46.8360   27.2310 C.ar  136  TRP136      0.0001
    153  CH2      -10.1280  -47.4630   28.4750 C.ar  136  TRP136      0.0015
    154  N         -1.4980  -47.1960   21.8030 N.3   139  TYR139     -0.1227
    155  CA        -1.2590  -48.6280   21.6540 C.3   139  TYR139      0.1736
    156  C         -1.7190  -49.1330   20.2820 C.2   139  TYR139      0.2596
    157  O         -0.9800  -49.8420   19.5870 O.2   139  TYR139     -0.2718
    158  CB        -1.9610  -49.3870   22.7730 C.3   139  TYR139      0.0548
    159  CG        -1.9370  -50.8740   22.5660 C.ar  139  TYR139     -0.0200
    160  CD1       -3.1010  -51.5830   22.2650 C.ar  139  TYR139     -0.0009
    161  CD2       -0.7400  -51.5720   22.6340 C.ar  139  TYR139     -0.0009
    162  CE1       -3.0650  -52.9680   22.0510 C.ar  139  TYR139      0.0417
    163  CE2       -0.6920  -52.9410   22.4290 C.ar  139  TYR139      0.0417
    164  CZ        -1.8480  -53.6310   22.1360 C.ar  139  TYR139      0.1957
    165  OH        -1.7690  -54.9860   21.9430 O.3   139  TYR139     -0.2866
    166  N         -2.9390  -48.7680   19.8850 N.am  140  THR140     -0.1953
    167  CA        -3.4690  -49.1130   18.5750 C.3   140  THR140      0.1897
    168  C         -2.5430  -48.6430   17.4670 C.2   140  THR140      0.2313
    169  O         -2.2540  -49.3860   16.5200 O.2   140  THR140     -0.2863
    170  CB        -4.8500  -48.4810   18.4050 C.3   140  THR140      0.1794
    171  OG1       -5.7350  -49.0270   19.3850 O.3   140  THR140     -0.2208
    172  CG2       -5.4130  -48.7380   17.0020 C.3   140  THR140      0.0378
    173  N        -10.8330  -45.5430   17.3460 N.3   167  ASN167     -0.1240
    174  CA       -11.1080  -45.7040   18.7660 C.3   167  ASN167      0.1653
    175  C        -12.2950  -44.8500   19.1950 C.2   167  ASN167      0.2266
    176  O        -13.0690  -45.2500   20.0770 O.2   167  ASN167     -0.2867
    177  CB        -9.8720  -45.3520   19.5920 C.3   167  ASN167      0.1155
    178  CG        -8.8900  -46.5050   19.7070 C.2   167  ASN167      0.2627
    179  OD1       -8.9790  -47.2960   20.6340 O.2   167  ASN167     -0.2716
    180  ND2       -7.9080  -46.5750   18.7950 N.am  167  ASN167     -0.0877
    181  N        -15.4570  -46.6640   18.2810 N.3   170  ASN170     -0.1225
    182  CA       -15.8330  -47.6840   19.2520 C.3   170  ASN170      0.1785
    183  C        -16.4630  -47.0420   20.4790 C.2   170  ASN170      0.2597
    184  O        -17.4770  -47.5290   20.9920 O.2   170  ASN170     -0.2718
    185  CB       -14.6040  -48.5180   19.6310 C.3   170  ASN170      0.1169
    186  CG       -14.1470  -49.4400   18.4850 C.2   170  ASN170      0.2627
    187  OD1      -14.5500  -49.2680   17.3310 O.2   170  ASN170     -0.2716
    188  ND2      -13.3050  -50.4070   18.8030 N.am  170  ASN170     -0.0877
    189  N        -15.9070  -45.9150   20.9320 N.am  171  GLU171     -0.1979
    190  CA       -16.4990  -45.2060   22.0590 C.3   171  GLU171      0.1602
    191  C        -17.9570  -44.8620   21.7780 C.2   171  GLU171      0.2287
    192  O        -18.8540  -45.2050   22.5570 O.2   171  GLU171     -0.2864
    193  CB       -15.7120  -43.9360   22.3770 C.3   171  GLU171      0.0415
    194  CG       -16.4320  -43.0640   23.3850 C.3   171  GLU171      0.1163
    195  CD       -15.7350  -41.7310   23.6170 C.2   171  GLU171      0.3649
    196  OE1      -16.4100  -40.6840   23.5240 O.co2 171  GLU171     -0.2457
    197  OE2      -14.5110  -41.7250   23.9080 O.co2 171  GLU171     -0.2457
    198  N        -20.1220  -48.3590   20.6940 N.3   174  LEU174     -0.1231
    199  CA       -20.3690  -49.2710   21.8050 C.3   174  LEU174      0.1693
    200  C        -21.2970  -48.6400   22.8400 C.2   174  LEU174      0.2592
    201  O        -22.1390  -49.3330   23.4260 O.2   174  LEU174     -0.2718
    202  CB       -19.0520  -49.7040   22.4520 C.3   174  LEU174      0.0284
    203  CG       -18.2190  -50.7520   21.7180 C.3   174  LEU174      0.0019
    204  CD1      -16.8710  -51.0090   22.4230 C.3   174  LEU174      0.0001
    205  CD2      -19.0170  -52.0350   21.6500 C.3   174  LEU174      0.0001
    206  N        -21.1650  -47.3310   23.0900 N.am  175  PHE175     -0.1976
    207  CA       -22.0580  -46.7160   24.0640 C.3   175  PHE175      0.1639
    208  C        -23.4860  -46.6880   23.5500 C.2   175  PHE175      0.2290
    209  O        -24.4310  -46.9500   24.3060 O.2   175  PHE175     -0.2864
    210  CB       -21.6190  -45.2990   24.4160 C.3   175  PHE175      0.0560
    211  CG       -22.4390  -44.6810   25.5250 C.ar  175  PHE175     -0.0200
    212  CD1      -22.0630  -44.8290   26.8510 C.ar  175  PHE175     -0.0042
    213  CD2      -23.5970  -43.9610   25.2410 C.ar  175  PHE175     -0.0042
    214  CE1      -22.8120  -44.2690   27.8720 C.ar  175  PHE175     -0.0003
    215  CE2      -24.3510  -43.3850   26.2550 C.ar  175  PHE175     -0.0003
    216  CZ       -23.9620  -43.5420   27.5780 C.ar  175  PHE175     -0.0000
    217  N        -24.8030  -50.0500   24.1360 N.3   178  PHE178     -0.1241
    218  CA       -25.0260  -50.3800   25.5360 C.3   178  PHE178      0.1605
    219  C        -26.2220  -49.6150   26.0840 C.2   178  PHE178      0.2264
    220  O        -27.0790  -50.1930   26.7640 O.2   178  PHE178     -0.2867
    221  CB       -23.7610  -50.0940   26.3440 C.3   178  PHE178      0.0534
    222  CG       -22.5960  -50.9860   25.9960 C.ar  178  PHE178     -0.0203
    223  CD1      -21.2860  -50.5840   26.2710 C.ar  178  PHE178     -0.0042
    224  CD2      -22.8030  -52.2300   25.4100 C.ar  178  PHE178     -0.0042
    225  CE1      -20.1910  -51.4140   25.9760 C.ar  178  PHE178     -0.0003
    226  CE2      -21.7200  -53.0720   25.1060 C.ar  178  PHE178     -0.0003
    227  CZ       -20.4030  -52.6520   25.3890 C.ar  178  PHE178     -0.0000
    228  N        -12.4180  -51.8530   11.4530 N.3   198  TRP198     -0.1241
    229  CA       -11.0100  -51.8250   11.8340 C.3   198  TRP198      0.1605
    230  C        -10.1530  -52.5800   10.8220 C.2   198  TRP198      0.2264
    231  O         -9.1370  -52.0610   10.3450 O.2   198  TRP198     -0.2867
    232  CB       -10.8340  -52.4240   13.2390 C.3   198  TRP198      0.0550
    233  CG       -11.1880  -51.4880   14.3550 C.ar  198  TRP198      0.0003
    234  CD1      -12.3920  -50.8850   14.5670 C.ar  198  TRP198      0.0946
    235  CD2      -10.3350  -51.0690   15.4350 C.ar  198  TRP198      0.0152
    236  NE1      -12.3410  -50.1030   15.7010 N.ar  198  TRP198     -0.2442
    237  CE2      -11.0950  -50.2000   16.2580 C.ar  198  TRP198      0.0810
    238  CE3       -9.0100  -51.3410   15.7850 C.ar  198  TRP198      0.0012
    239  CZ2      -10.5630  -49.5850   17.4010 C.ar  198  TRP198      0.0191
    240  CZ3       -8.4790  -50.7480   16.9510 C.ar  198  TRP198      0.0001
    241  CH2       -9.2490  -49.8820   17.7330 C.ar  198  TRP198      0.0015
@<TRIPOS>BOND
     1   231   230    2
     2   230   229    1
     3   228   229    1
     4   229   232    1
     5    32    30   ar
     6    32    33   ar
     7   232   233    1
     8    30    29   ar
     9    33    35   ar
    10    33    31   ar
    11    35    37   ar
    12   233   234   ar
    13   233   235   ar
    14    29    31   ar
    15    29    28    1
    16   234   236   ar
    17    31    34   ar
    18    28    25    1
    19    37    36   ar
    20   235   238   ar
    21   235   237   ar
    22   236   237   ar
    23   238   240   ar
    24    34    36   ar
    25    24    25    1
    26   237   239   ar
    27    25    26    1
    28   169   168    2
    29   240   241   ar
    30   172   170    1
    31    49    47    1
    32    26    27    2
    33   187   186    2
    34   173   174    1
    35   239   241   ar
    36   168   167    1
    37   181   182    1
    38   170   167    1
    39   170   171    1
    40    47    46    1
    41   186   188   am
    42   186   185    1
    43   167   166    1
    44   174   175    1
    45   174   177    1
    46   180   178   am
    47   175   176    2
    48   182   185    1
    49   182   183    1
    50    46    48    1
    51    46    43    1
    52   157   156    2
    53   177   178    1
    54   178   179    2
    55   166   156   am
    56   156   155    1
    57   183   189   am
    58   183   184    2
    59    42    43    1
    60    42    40   am
    61   198   199    1
    62    43    44    1
    63   189   190    1
    64    38    39    1
    65    39    40    1
    66   205   203    1
    67    40    41    2
    68   155   154    1
    69   155   158    1
    70   143   142    2
    71   203   204    1
    72   203   202    1
    73   191   190    1
    74   191   192    2
    75    44    45    2
    76   199   202    1
    77   199   200    1
    78   165   164    1
    79   162   164   ar
    80   162   160   ar
    81   190   193    1
    82   164   163   ar
    83   160   159   ar
    84   193   194    1
    85   163   161   ar
    86   142   141    1
    87   159   161   ar
    88   159   158    1
    89   200   206   am
    90   200   201    2
    91   206   207    1
    92   194   195    1
    93   196   195   ar
    94   208   207    1
    95   208   209    2
    96   195   197   ar
    97   135   134    2
    98   141   144    1
    99   141   140    1
   100   138   137    1
   101   138   139    1
   102   207   210    1
   103    22    21    1
   104   217   218    1
   105   144   145    1
   106    57    59   ar
   107    57    55   ar
   108   210   211    1
   109    59    60   ar
   110   134   133    1
   111    54    55    1
   112    54    51    1
   113    23    21    1
   114   136   137    1
   115   136   133    1
   116    55    56   ar
   117   226   227   ar
   118   226   224   ar
   119    21    20    1
   120   213   211   ar
   121   213   215   ar
   122   227   225   ar
   123   224   222   ar
   124    50    51    1
   125   133   132    1
   126    60    58   ar
   127   211   212   ar
   128   218   219    1
   129   218   221    1
   130    52    51    1
   131    52    53    2
   132   145   147   ar
   133   145   146   ar
   134   102   100    1
   135   225   223   ar
   136    56    58   ar
   137   222   223   ar
   138   222   221    1
   139   219   220    2
   140    19    18    2
   141   101   100    1
   142   150   147   ar
   143   150   152   ar
   144   215   216   ar
   145   147   149   ar
   146    20    17    1
   147   146   148   ar
   148   100    99    2
   149   126   127   ar
   150   126   124   ar
   151    91    89   am
   152   212   214   ar
   153   129   127   ar
   154   129   131   ar
   155    17    18    1
   156    17    16    1
   157   152   153   ar
   158   127   125   ar
   159    90    89    2
   160   124   123   ar
   161    89    88    1
   162   216   214   ar
   163   148   149   ar
   164   149   151   ar
   165   131   130   ar
   166    99    98    1
   167   121   120    2
   168    88    87    1
   169   153   151   ar
   170    68    70   ar
   171    68    66   ar
   172   125   123   ar
   173   125   128   ar
   174   123   122    1
   175    65    66    1
   176    65    62    1
   177    70    71   ar
   178    98    97    1
   179    66    67   ar
   180   120   119    1
   181   130   128   ar
   182    87    84    1
   183    63    62    1
   184    63    64    2
   185    78    76    1
   186    61    62    1
   187    71    69   ar
   188   122   119    1
   189    67    69   ar
   190    97    96    1
   191   119   118    1
   192    96    93    1
   193    84    85    1
   194    84    83    1
   195    86    85    2
   196    76    77    1
   197    76    73    1
   198    75    74    2
   199   118   112   am
   200   113   112    2
   201    83    81   am
   202    94    95    2
   203    94    93    1
   204    74    73    1
   205    93    92    1
   206    73    72    1
   207   112   111    1
   208    12    11    2
   209    14    13    1
   210    82    81    2
   211    81    80    1
   212    15    13    1
   213   106   105    2
   214    10    13    1
   215    10    11    1
   216    10     9    1
   217   110   111    1
   218   111   114    1
   219   105   104    1
   220    80    79    1
   221   108   107    1
   222   114   115    1
   223   115   116    1
   224   115   117    1
   225   104   107    1
   226   104   103    1
   227   107   109    1
   228     8     6    1
   229     4     3    2
   230     7     6    1
   231     6     5    1
   232     5     2    1
   233     3     2    1
   234     2     1    1
