@<TRIPOS>MOLECULE
tmp/5mynA00.pdb
 192 189 0 0 0
SMALL
GASTEIGER

@<TRIPOS>ATOM
      1  N        -35.6000    6.8650   -5.1380 N.3    66  LEU66      -0.1245
      2  CA       -34.3360    6.6060   -4.4580 C.3    66  LEU66       0.1561
      3  C        -34.5280    5.6020   -3.3270 C.2    66  LEU66       0.2260
      4  O        -33.6900    4.7120   -3.1190 O.2    66  LEU66      -0.2867
      5  CB       -33.7630    7.9230   -3.9340 C.3    66  LEU66       0.0270
      6  CG       -32.3340    7.8830   -3.4100 C.3    66  LEU66       0.0019
      7  CD1      -31.3810    7.4770   -4.5320 C.3    66  LEU66       0.0001
      8  CD2      -31.9690    9.2550   -2.8720 C.3    66  LEU66       0.0001
      9  N        -34.6290    2.0960   -4.8430 N.3    69  LEU69      -0.1245
     10  CA       -33.2650    1.6300   -5.0760 C.3    69  LEU69       0.1561
     11  C        -32.5880    1.2140   -3.7800 C.2    69  LEU69       0.2260
     12  O        -31.9040    0.1860   -3.7320 O.2    69  LEU69      -0.2867
     13  CB       -32.4400    2.7230   -5.7510 C.3    69  LEU69       0.0270
     14  CG       -32.4570    2.8410   -7.2630 C.3    69  LEU69       0.0019
     15  CD1      -31.4910    3.9470   -7.6580 C.3    69  LEU69       0.0001
     16  CD2      -32.0760    1.5130   -7.9030 C.3    69  LEU69       0.0001
     17  N        -23.7270    1.3860   -9.4350 N.3    81  MET81      -0.1230
     18  CA       -24.5720    1.7340   -8.2940 C.3    81  MET81       0.1702
     19  C        -24.7970    3.2450   -8.2110 C.2    81  MET81       0.2592
     20  O        -25.9330    3.7080   -8.0430 O.2    81  MET81      -0.2718
     21  CB       -23.9530    1.2040   -6.9960 C.3    81  MET81       0.0401
     22  CG       -24.6310    1.7160   -5.7250 C.3    81  MET81       0.0596
     23  SD       -23.8370    1.1600   -4.1860 S.3    81  MET81      -0.1393
     24  CE       -22.5220    2.3710   -4.0070 C.3    81  MET81       0.0692
     25  N        -23.7260    4.0350   -8.3530 N.am   82  TRP82      -0.1976
     26  CA       -23.8780    5.4850   -8.3010 C.3    82  TRP82       0.1640
     27  C        -24.5940    6.0150   -9.5340 C.2    82  TRP82       0.2290
     28  O        -25.3860    6.9570   -9.4420 O.2    82  TRP82      -0.2864
     29  CB       -22.5190    6.1600   -8.1550 C.3    82  TRP82       0.0576
     30  CG       -21.8580    5.8350   -6.8540 C.ar   82  TRP82       0.0006
     31  CD1      -20.8070    4.9830   -6.6570 C.ar   82  TRP82       0.0946
     32  CD2      -22.2170    6.3450   -5.5600 C.ar   82  TRP82       0.0152
     33  NE1      -20.4780    4.9430   -5.3090 N.ar   82  TRP82      -0.2442
     34  CE2      -21.3310    5.7670   -4.6240 C.ar   82  TRP82       0.0810
     35  CE3      -23.2030    7.2280   -5.1030 C.ar   82  TRP82       0.0012
     36  CZ2      -21.3950    6.0530   -3.2540 C.ar   82  TRP82       0.0191
     37  CZ3      -23.2630    7.5050   -3.7230 C.ar   82  TRP82       0.0001
     38  CH2      -22.3660    6.9190   -2.8330 C.ar   82  TRP82       0.0015
     39  N        -28.3100    5.6130   -9.1460 N.3    85  GLY85      -0.1210
     40  CA       -28.8580    6.5960   -8.2200 C.3    85  GLY85       0.1956
     41  C        -28.9420    7.9920   -8.8100 C.2    85  GLY85       0.2611
     42  O        -29.9740    8.6630   -8.7020 O.2    85  GLY85      -0.2717
     43  N        -27.8690    8.4440   -9.4660 N.am   86  ILE86      -0.1979
     44  CA       -27.9220    9.7610  -10.0880 C.3    86  ILE86       0.1595
     45  C        -28.9940    9.7950  -11.1610 C.2    86  ILE86       0.2287
     46  O        -29.6810   10.8070  -11.3370 O.2    86  ILE86      -0.2864
     47  CB       -26.5440   10.1450  -10.6470 C.3    86  ILE86       0.0276
     48  CG1      -25.5130   10.2480   -9.5150 C.3    86  ILE86       0.0022
     49  CG2      -26.6170   11.4580  -11.4050 C.3    86  ILE86       0.0022
     50  CD1      -24.0910   10.4500  -10.0330 C.3    86  ILE86       0.0001
     51  N        -32.5450   11.0910  -10.3970 N.3    89  PHE89      -0.1241
     52  CA       -32.7650   12.5330  -10.4600 C.3    89  PHE89       0.1605
     53  C        -32.7770   13.0270  -11.8950 C.2    89  PHE89       0.2264
     54  O        -33.6240   13.8530  -12.2610 O.2    89  PHE89      -0.2867
     55  CB       -31.7020   13.2420   -9.6280 C.3    89  PHE89       0.0534
     56  CG       -31.8410   12.9490   -8.1770 C.ar   89  PHE89      -0.0203
     57  CD1      -31.2500   11.8210   -7.6190 C.ar   89  PHE89      -0.0042
     58  CD2      -32.6410   13.7470   -7.3900 C.ar   89  PHE89      -0.0042
     59  CE1      -31.4170   11.5250   -6.2660 C.ar   89  PHE89      -0.0003
     60  CE2      -32.8040   13.4660   -6.0310 C.ar   89  PHE89      -0.0003
     61  CZ       -32.1990   12.3460   -5.4800 C.ar   89  PHE89      -0.0000
     62  N        -36.4500   14.6140  -12.6260 N.3    93  PHE93      -0.1241
     63  CA       -36.5320   16.0490  -12.8790 C.3    93  PHE93       0.1605
     64  C        -36.4980   16.3550  -14.3710 C.2    93  PHE93       0.2264
     65  O        -37.1360   17.3160  -14.8180 O.2    93  PHE93      -0.2867
     66  CB       -35.4220   16.7720  -12.1180 C.3    93  PHE93       0.0534
     67  CG       -35.6530   16.7880  -10.6300 C.ar   93  PHE93      -0.0203
     68  CD1      -36.6090   17.6290  -10.0890 C.ar   93  PHE93      -0.0042
     69  CD2      -34.9510   15.9480   -9.7930 C.ar   93  PHE93      -0.0042
     70  CE1      -36.8540   17.6480   -8.7170 C.ar   93  PHE93      -0.0003
     71  CE2      -35.1970   15.9620   -8.4020 C.ar   93  PHE93      -0.0003
     72  CZ       -36.1470   16.8090   -7.8870 C.ar   93  PHE93      -0.0000
     73  N        -37.1750   22.4700   -0.8480 N.3   117  TRP117     -0.1241
     74  CA       -35.9460   22.0330   -1.4990 C.3   117  TRP117      0.1605
     75  C        -34.8550   21.7540   -0.4700 C.2   117  TRP117      0.2264
     76  O        -34.1420   20.7470   -0.5640 O.2   117  TRP117     -0.2867
     77  CB       -35.4880   23.0770   -2.5190 C.3   117  TRP117      0.0550
     78  CG       -34.3890   22.5460   -3.3500 C.ar  117  TRP117      0.0003
     79  CD1      -33.0750   22.9040   -3.3090 C.ar  117  TRP117      0.0946
     80  CD2      -34.4940   21.4990   -4.3220 C.ar  117  TRP117      0.0152
     81  NE1      -32.3560   22.1530   -4.2170 N.ar  117  TRP117     -0.2442
     82  CE2      -33.2060   21.2860   -4.8480 C.ar  117  TRP117      0.0810
     83  CE3      -35.5590   20.7280   -4.8020 C.ar  117  TRP117      0.0012
     84  CZ2      -32.9460   20.3200   -5.8350 C.ar  117  TRP117      0.0191
     85  CZ3      -35.3060   19.7770   -5.7910 C.ar  117  TRP117      0.0001
     86  CH2      -34.0080   19.5800   -6.2860 C.ar  117  TRP117      0.0015
     87  N        -32.8920   18.1830   -0.0120 N.3   121  MET121     -0.1245
     88  CA       -31.4470   18.1620   -0.2200 C.3   121  MET121      0.1570
     89  C        -30.7190   17.6180    1.0050 C.2   121  MET121      0.2261
     90  O        -29.7730   16.8300    0.8730 O.2   121  MET121     -0.2867
     91  CB       -30.9370   19.5570   -0.5720 C.3   121  MET121      0.0387
     92  CG       -31.3140   19.9840   -1.9880 C.3   121  MET121      0.0595
     93  SD       -30.4850   19.0070   -3.2750 S.3   121  MET121     -0.1393
     94  CE       -28.8120   19.6300   -3.1530 C.3   121  MET121      0.0692
     95  N        -31.1180   13.8790    0.9560 N.3   124  TRP124     -0.1241
     96  CA       -30.3510   13.2070   -0.0840 C.3   124  TRP124      0.1605
     97  C        -28.8600   13.2300    0.2260 C.2   124  TRP124      0.2264
     98  O        -28.1520   12.2430   -0.0260 O.2   124  TRP124     -0.2867
     99  CB       -30.6580   13.8590   -1.4340 C.3   124  TRP124      0.0550
    100  CG       -32.1080   13.6710   -1.8110 C.ar  124  TRP124      0.0003
    101  CD1      -32.9160   12.6360   -1.4380 C.ar  124  TRP124      0.0946
    102  CD2      -32.9200   14.5460   -2.6140 C.ar  124  TRP124      0.0152
    103  NE1      -34.1770   12.7970   -1.9770 N.ar  124  TRP124     -0.2442
    104  CE2      -34.2070   13.9680   -2.6890 C.ar  124  TRP124      0.0810
    105  CE3      -32.6870   15.7630   -3.2660 C.ar  124  TRP124      0.0012
    106  CZ2      -35.2550   14.5540   -3.4150 C.ar  124  TRP124      0.0191
    107  CZ3      -33.7360   16.3550   -3.9730 C.ar  124  TRP124      0.0001
    108  CH2      -34.9880   15.7460   -4.0550 C.ar  124  TRP124      0.0015
    109  N        -28.1830   10.6400    2.9070 N.3   127  TYR127     -0.1227
    110  CA       -28.1380    9.2970    2.3460 C.3   127  TYR127      0.1736
    111  C        -26.8390    9.0730    1.5810 C.2   127  TYR127      0.2596
    112  O        -26.2000    8.0230    1.7230 O.2   127  TYR127     -0.2718
    113  CB       -29.3460    9.0650    1.4390 C.3   127  TYR127      0.0548
    114  CG       -29.3560    7.6910    0.8210 C.ar  127  TYR127     -0.0200
    115  CD1      -29.4560    6.5550    1.6090 C.ar  127  TYR127     -0.0009
    116  CD2      -29.2440    7.5330   -0.5450 C.ar  127  TYR127     -0.0009
    117  CE1      -29.4570    5.2870    1.0430 C.ar  127  TYR127      0.0417
    118  CE2      -29.2450    6.2770   -1.1170 C.ar  127  TYR127      0.0417
    119  CZ       -29.3440    5.1620   -0.3240 C.ar  127  TYR127      0.1957
    120  OH       -29.3380    3.9180   -0.9140 O.3   127  TYR127     -0.2866
    121  N        -26.4300   10.0540    0.7730 N.am  128  THR128     -0.1953
    122  CA       -25.1480    9.9630    0.0810 C.3   128  THR128      0.1897
    123  C        -24.0140    9.7060    1.0640 C.2   128  THR128      0.2313
    124  O        -23.1890    8.8050    0.8630 O.2   128  THR128     -0.2863
    125  CB       -24.8720   11.2510   -0.7020 C.3   128  THR128      0.1794
    126  OG1      -25.9060   11.4480   -1.6920 O.3   128  THR128     -0.2208
    127  CG2      -23.5410   11.1230   -1.4340 C.3   128  THR128      0.0378
    128  N        -23.9490    6.1540    2.4100 N.3   131  VAL131     -0.1245
    129  CA       -23.4450    5.1520    1.4750 C.3   131  VAL131      0.1561
    130  C        -21.9310    5.2600    1.3460 C.2   131  VAL131      0.2260
    131  O        -21.2280    4.2430    1.3550 O.2   131  VAL131     -0.2867
    132  CB       -24.1410    5.2830    0.1100 C.3   131  VAL131      0.0252
    133  CG1      -23.5430    4.2700   -0.8720 C.3   131  VAL131      0.0019
    134  CG2      -25.6480    5.0750    0.2640 C.3   131  VAL131      0.0019
    135  N        -23.7550   16.6770   -4.1520 N.3   155  ASN155     -0.1240
    136  CA       -25.1800   16.8960   -4.3880 C.3   155  ASN155      0.1653
    137  C        -25.4330   18.2970   -4.9360 C.2   155  ASN155      0.2266
    138  O        -26.2960   18.4780   -5.8020 O.2   155  ASN155     -0.2867
    139  CB       -25.9820   16.6940   -3.0990 C.3   155  ASN155      0.1155
    140  CG       -26.3630   15.2380   -2.8260 C.2   155  ASN155      0.2627
    141  OD1      -27.5490   14.8960   -2.8600 O.2   155  ASN155     -0.2716
    142  ND2      -25.3850   14.3970   -2.4860 N.am  155  ASN155     -0.0877
    143  N        -24.6530   18.3120   -8.5400 N.3   158  ASN158     -0.1225
    144  CA       -25.6960   17.7170   -9.3760 C.3   158  ASN158      0.1785
    145  C        -26.8540   18.6790   -9.5530 C.2   158  ASN158      0.2597
    146  O        -27.4080   18.7920  -10.6560 O.2   158  ASN158     -0.2718
    147  CB       -26.2220   16.4220   -8.7720 C.3   158  ASN158      0.1169
    148  CG       -25.2620   15.2680   -8.9340 C.2   158  ASN158      0.2627
    149  OD1      -24.0980   15.4450   -9.2950 O.2   158  ASN158     -0.2716
    150  ND2      -25.7450   14.0780   -8.6310 N.am  158  ASN158     -0.0877
    151  N        -27.2660   19.3480   -8.4680 N.am  159  GLU159     -0.1979
    152  CA       -28.3540   20.3120   -8.5650 C.3   159  GLU159      0.1602
    153  C        -28.0470   21.3370   -9.6460 C.2   159  GLU159      0.2287
    154  O        -28.8280   21.5320  -10.5890 O.2   159  GLU159     -0.2864
    155  CB       -28.5690   21.0060   -7.2140 C.3   159  GLU159      0.0415
    156  CG       -29.5830   22.1500   -7.2820 C.3   159  GLU159      0.1163
    157  CD       -29.5600   23.0380   -6.0390 C.2   159  GLU159      0.3649
    158  OE1      -29.6160   22.5070   -4.9190 O.co2 159  GLU159     -0.2457
    159  OE2      -29.4960   24.2730   -6.1870 O.co2 159  GLU159     -0.2457
    160  N        -27.3340   19.5090  -13.3850 N.3   162  LEU162     -0.1231
    161  CA       -28.5260   18.9650  -14.0310 C.3   162  LEU162      0.1693
    162  C        -29.4610   20.0800  -14.4570 C.2   162  LEU162      0.2592
    163  O        -29.9760   20.0850  -15.5800 O.2   162  LEU162     -0.2718
    164  CB       -29.2650   17.9990  -13.1030 C.3   162  LEU162      0.0284
    165  CG       -28.6010   16.6510  -12.8510 C.3   162  LEU162      0.0019
    166  CD1      -29.3880   15.8990  -11.7600 C.3   162  LEU162      0.0001
    167  CD2      -28.5440   15.8160  -14.1530 C.3   162  LEU162      0.0001
    168  N        -29.6960   21.0440  -13.5720 N.am  163  PHE163     -0.1976
    169  CA       -30.6950   22.0470  -13.9080 C.3   163  PHE163      0.1639
    170  C        -30.1860   23.0140  -14.9770 C.2   163  PHE163      0.2290
    171  O        -30.9790   23.4750  -15.8080 O.2   163  PHE163     -0.2864
    172  CB       -31.1560   22.7480  -12.6280 C.3   163  PHE163      0.0560
    173  CG       -31.8170   21.8030  -11.6440 C.ar  163  PHE163     -0.0200
    174  CD1      -32.2220   20.5320  -12.0450 C.ar  163  PHE163     -0.0042
    175  CD2      -32.0230   22.1730  -10.3280 C.ar  163  PHE163     -0.0042
    176  CE1      -32.8180   19.6490  -11.1530 C.ar  163  PHE163     -0.0003
    177  CE2      -32.6300   21.2940   -9.4320 C.ar  163  PHE163     -0.0003
    178  CZ       -33.0240   20.0390   -9.8470 C.ar  163  PHE163     -0.0000
    179  N        -18.3550   11.8020   -9.3530 N.3   186  TRP186     -0.1241
    180  CA       -18.7050   11.1080   -8.1010 C.3   186  TRP186      0.1605
    181  C        -17.7580    9.9440   -7.8420 C.2   186  TRP186      0.2264
    182  O        -17.2210    9.7960   -6.7370 O.2   186  TRP186     -0.2867
    183  CB       -20.1460   10.6000   -8.1720 C.3   186  TRP186      0.0550
    184  CG       -21.1990   11.6460   -7.8720 C.ar  186  TRP186      0.0003
    185  CD1      -21.3980   12.8470   -8.5180 C.ar  186  TRP186      0.0946
    186  CD2      -22.2080   11.5600   -6.8570 C.ar  186  TRP186      0.0152
    187  NE1      -22.4720   13.5210   -7.9340 N.ar  186  TRP186     -0.2442
    188  CE2      -22.9850   12.7420   -6.9250 C.ar  186  TRP186      0.0810
    189  CE3      -22.5400   10.5830   -5.9050 C.ar  186  TRP186      0.0012
    190  CZ2      -24.0660   12.9840   -6.0520 C.ar  186  TRP186      0.0191
    191  CZ3      -23.6190   10.8200   -5.0420 C.ar  186  TRP186      0.0001
    192  CH2      -24.3580   12.0130   -5.1170 C.ar  186  TRP186      0.0015
@<TRIPOS>BOND
     1   171   170    2
     2   163   162    2
     3   170   169    1
     4    65    64    2
     5   162   161    1
     6   162   168   am
     7    64    63    1
     8   167   165    1
     9   161   160    1
    10   161   164    1
    11   169   168    1
    12   169   172    1
    13   164   165    1
    14    63    62    1
    15    63    66    1
    16   165   166    1
    17   172   173    1
    18    54    53    2
    19    66    67    1
    20   174   173   ar
    21   174   176   ar
    22    53    52    1
    23   173   175   ar
    24    49    47    1
    25    46    45    2
    26    45    44    1
    27   176   178   ar
    28   146   145    2
    29    47    44    1
    30    47    48    1
    31    67    68   ar
    32    67    69   ar
    33   154   153    2
    34    52    51    1
    35    52    55    1
    36   175   177   ar
    37    68    70   ar
    38    44    43    1
    39    50    48    1
    40   178   177   ar
    41    69    71   ar
    42   153   152    1
    43    55    56    1
    44   145   144    1
    45   145   151   am
    46    27    28    2
    47    27    26    1
    48    43    41   am
    49    17    18    1
    50   144   147    1
    51   144   143    1
    52   179   180    1
    53   149   148    2
    54    39    40    1
    55   148   147    1
    56   148   150   am
    57    41    42    2
    58    41    40    1
    59    70    72   ar
    60   152   151    1
    61   152   155    1
    62   185   187   ar
    63   185   184   ar
    64    71    72   ar
    65    25    26    1
    66    25    19   am
    67    26    29    1
    68    18    19    1
    69    18    21    1
    70    19    20    2
    71    56    57   ar
    72    56    58   ar
    73   183   180    1
    74   183   184    1
    75    29    30    1
    76   180   181    1
    77   187   188   ar
    78    16    14    1
    79   184   186   ar
    80   181   182    2
    81    15    14    1
    82    57    59   ar
    83    58    60   ar
    84   156   155    1
    85   156   157    1
    86    14    13    1
    87    21    22    1
    88   188   186   ar
    89   188   190   ar
    90   186   189   ar
    91    30    31   ar
    92    30    32   ar
    93    31    33   ar
    94    86    84   ar
    95    86    85   ar
    96    59    61   ar
    97   159   157   ar
    98   190   192   ar
    99   157   158   ar
   100    60    61   ar
   101   189   191   ar
   102    84    82   ar
   103   138   137    2
   104    85    83   ar
   105    13    10    1
   106    22    23    1
   107    32    35   ar
   108    32    34   ar
   109    33    34   ar
   110     1     2    1
   111   192   191   ar
   112    35    37   ar
   113    10     9    1
   114    10    11    1
   115   137   136    1
   116    82    80   ar
   117    82    81   ar
   118    83    80   ar
   119    34    36   ar
   120     7     6    1
   121     2     5    1
   122     2     3    1
   123   136   135    1
   124   136   139    1
   125    80    78   ar
   126    81    79   ar
   127    23    24    1
   128   108   107   ar
   129   108   106   ar
   130   107   105   ar
   131     5     6    1
   132    11    12    2
   133    37    38   ar
   134   106   104   ar
   135     6     8    1
   136    78    79   ar
   137    78    77    1
   138     3     4    2
   139    93    94    1
   140    93    92    1
   141   105   102   ar
   142    36    38   ar
   143   139   140    1
   144   141   140    2
   145   140   142   am
   146   104   102   ar
   147   104   103   ar
   148   102   100   ar
   149    77    74    1
   150    92    91    1
   151   103   101   ar
   152   100   101   ar
   153   100    99    1
   154   126   125    1
   155    74    73    1
   156    74    75    1
   157   127   125    1
   158    99    96    1
   159   118   116   ar
   160   118   119   ar
   161   120   119    1
   162   133   132    1
   163   125   122    1
   164    91    88    1
   165    76    75    2
   166   116   114   ar
   167   119   117   ar
   168    88    87    1
   169    88    89    1
   170    96    97    1
   171    96    95    1
   172    98    97    2
   173   122   121    1
   174   122   123    1
   175   132   134    1
   176   132   129    1
   177   121   111   am
   178   114   113    1
   179   114   115   ar
   180   124   123    2
   181    90    89    2
   182   117   115   ar
   183   130   131    2
   184   130   129    1
   185   113   110    1
   186   129   128    1
   187   111   112    2
   188   111   110    1
   189   110   109    1
