@<TRIPOS>MOLECULE
tmp/5myoB00.pdb
 130 123 0 0 0
SMALL
GASTEIGER

@<TRIPOS>ATOM
      1  N          4.2560  -11.4960    4.8730 N.3    33  THR33      -0.1218
      2  CA         4.9670  -12.5750    4.2030 C.3    33  THR33       0.1862
      3  C          4.4800  -12.7060    2.7640 C.2    33  THR33       0.2287
      4  O          3.3010  -12.4880    2.4750 O.2    33  THR33      -0.2866
      5  CB         4.7580  -13.8780    4.9690 C.3    33  THR33       0.1770
      6  OG1        5.4170  -13.7800    6.2390 O.3    33  THR33      -0.2211
      7  CG2        5.3380  -15.0650    4.1960 C.3    33  THR33       0.0375
      8  N          4.2550  -15.2970   -0.5950 N.3    35  ASN35      -0.1240
      9  CA         4.2870  -16.6760   -1.0740 C.3    35  ASN35       0.1653
     10  C          4.4770  -16.7180   -2.5820 C.2    35  ASN35       0.2266
     11  O          4.1710  -15.7580   -3.2940 O.2    35  ASN35      -0.2867
     12  CB         2.9900  -17.4280   -0.7610 C.3    35  ASN35       0.1155
     13  CG         2.6600  -17.4340    0.6910 C.2    35  ASN35       0.2627
     14  OD1        3.0010  -18.3660    1.4080 O.2    35  ASN35      -0.2716
     15  ND2        1.9680  -16.3940    1.1430 N.am   35  ASN35      -0.0877
     16  N          7.6570  -19.5580    0.9250 N.3    50  LEU50      -0.1245
     17  CA         7.3710  -18.2020    1.3700 C.3    50  LEU50       0.1561
     18  C          8.6430  -17.5090    1.8410 C.2    50  LEU50       0.2260
     19  O          9.6430  -18.1470    2.1800 O.2    50  LEU50      -0.2867
     20  CB         6.2980  -18.1810    2.4880 C.3    50  LEU50       0.0270
     21  CG         6.5630  -18.9380    3.7890 C.3    50  LEU50       0.0019
     22  CD1        7.5610  -18.2040    4.7010 C.3    50  LEU50       0.0001
     23  CD2        5.2630  -19.1810    4.5610 C.3    50  LEU50       0.0001
     24  N          9.6060  -13.9840    4.3990 N.3    52  ASN52      -0.1240
     25  CA         9.2150  -12.8500    5.2220 C.3    52  ASN52       0.1653
     26  C         10.2330  -11.7490    4.9840 C.2    52  ASN52       0.2266
     27  O         11.4010  -11.9090    5.3690 O.2    52  ASN52      -0.2867
     28  CB         9.1750  -13.2500    6.6960 C.3    52  ASN52       0.1155
     29  CG         8.6770  -12.1340    7.5990 C.2    52  ASN52       0.2627
     30  OD1        8.9620  -10.9600    7.3770 O.2    52  ASN52      -0.2716
     31  ND2        7.9420  -12.5060    8.6370 N.am   52  ASN52      -0.0877
     32  N         10.7500   -8.8840    6.3160 N.3    54  TYR54      -0.1227
     33  CA        11.2990   -8.2160    7.4880 C.3    54  TYR54       0.1736
     34  C         12.5260   -8.9520    8.0170 C.2    54  TYR54       0.2595
     35  O         13.6020   -8.3580    8.1660 O.2    54  TYR54      -0.2718
     36  CB        10.2440   -8.0820    8.5840 C.3    54  TYR54       0.0548
     37  CG        10.8510   -7.4680    9.8200 C.ar   54  TYR54      -0.0200
     38  CD1       11.5910   -6.3010    9.7200 C.ar   54  TYR54      -0.0009
     39  CD2       10.7320   -8.0700   11.0640 C.ar   54  TYR54      -0.0009
     40  CE1       12.1770   -5.7330   10.8160 C.ar   54  TYR54       0.0417
     41  CE2       11.3210   -7.5020   12.1820 C.ar   54  TYR54       0.0417
     42  CZ        12.0430   -6.3300   12.0410 C.ar   54  TYR54       0.1957
     43  OH        12.6520   -5.7300   13.1120 O.3    54  TYR54      -0.2866
     44  N         12.3910  -10.2530    8.2910 N.am   55  ASN55      -0.1974
     45  CA        13.4140  -10.9980    9.0110 C.3    55  ASN55       0.1688
     46  C         14.1390  -12.0220    8.1520 C.2    55  ASN55       0.2292
     47  O         14.9980  -12.7430    8.6740 O.2    55  ASN55      -0.2864
     48  CB        12.8020  -11.6930   10.2410 C.3    55  ASN55       0.1181
     49  CG        11.6700  -12.6480    9.8810 C.2    55  ASN55       0.2629
     50  OD1       11.4730  -12.9850    8.7130 O.2    55  ASN55      -0.2716
     51  ND2       10.9160  -13.0840   10.8880 N.am   55  ASN55      -0.0877
     52  N         13.1480  -14.8280    6.9610 N.3    57  VAL57      -0.1245
     53  CA        12.7120  -16.2170    7.0680 C.3    57  VAL57       0.1561
     54  C         12.2400  -16.6950    5.7030 C.2    57  VAL57       0.2260
     55  O         11.3890  -16.0630    5.0700 O.2    57  VAL57      -0.2867
     56  CB        11.5910  -16.3580    8.1030 C.3    57  VAL57       0.0252
     57  CG1       10.8240  -17.6830    7.8830 C.3    57  VAL57       0.0019
     58  CG2       12.1480  -16.2710    9.5190 C.3    57  VAL57       0.0019
     59  N         10.9350  -20.3070    3.8100 N.3    59  ARG59      -0.1245
     60  CA        10.5350  -21.7050    3.9220 C.3    59  ARG59       0.1563
     61  C         10.1470  -22.2280    2.5470 C.2    59  ARG59       0.2260
     62  O          9.3990  -21.5680    1.8230 O.2    59  ARG59      -0.2867
     63  CB         9.3680  -21.8690    4.8940 C.3    59  ARG59       0.0307
     64  CG         9.6240  -21.2350    6.2440 C.3    59  ARG59       0.0489
     65  CD         8.3920  -21.2880    7.1150 C.3    59  ARG59       0.2205
     66  NE         8.0630  -22.6580    7.4920 N.pl3  59  ARG59      -0.0865
     67  CZ         8.4790  -23.2460    8.6060 C.cat  59  ARG59       0.5346
     68  NH1        9.2500  -22.5820    9.4580 N.pl3  59  ARG59       0.1354
     69  NH2        8.1280  -24.5000    8.8640 N.pl3  59  ARG59       0.1354
     70  N          2.0730  -14.0800   -3.9730 N.3    97  THR97      -0.1203
     71  CA         0.9110  -13.7110   -3.1760 C.3    97  THR97       0.1994
     72  C          1.3870  -13.0310   -1.9050 C.2    97  THR97       0.2618
     73  O          2.4680  -13.3340   -1.3940 O.2    97  THR97      -0.2717
     74  CB         0.0260  -14.9060   -2.7660 C.3    97  THR97       0.1784
     75  OG1        0.5290  -15.4640   -1.5410 O.3    97  THR97      -0.2211
     76  CG2       -0.0460  -15.9820   -3.8390 C.3    97  THR97       0.0376
     77  N          0.5660  -12.1200   -1.3870 N.am   98  ARG98      -0.1965
     78  CA         0.8430  -11.4820   -0.1040 C.3    98  ARG98       0.1729
     79  C         -0.0950  -12.0520    0.9500 C.2    98  ARG98       0.2616
     80  O         -1.3240  -12.0080    0.7970 O.2    98  ARG98      -0.2715
     81  CB         0.7020   -9.9620   -0.1780 C.3    98  ARG98       0.0348
     82  CG         1.2650   -9.2800    1.0600 C.3    98  ARG98       0.0492
     83  CD         0.5160   -8.0120    1.3680 C.3    98  ARG98       0.2205
     84  NE        -0.7240   -8.2670    2.0990 N.pl3  98  ARG98      -0.0865
     85  CZ        -1.4580   -7.2970    2.6310 C.cat  98  ARG98       0.5346
     86  NH1       -1.0530   -6.0420    2.5040 N.pl3  98  ARG98       0.1354
     87  NH2       -2.5810   -7.5780    3.2780 N.pl3  98  ARG98       0.1354
     88  N          0.4970  -12.5860    2.0100 N.am   99  GLU99      -0.1963
     89  CA        -0.2070  -13.1980    3.1120 C.3    99  GLU99       0.1733
     90  C         -0.7670  -12.1170    4.0280 C.2    99  GLU99       0.2616
     91  O         -0.3670  -10.9490    3.9720 O.2    99  GLU99      -0.2715
     92  CB         0.7390  -14.1350    3.8680 C.3    99  GLU99       0.0429
     93  CG         0.0710  -15.0420    4.8810 C.3    99  GLU99       0.1163
     94  CD        -1.0930  -15.8130    4.2940 C.2    99  GLU99       0.3649
     95  OE1       -2.2450  -15.3100    4.3420 O.co2  99  GLU99      -0.2457
     96  OE2       -0.8500  -16.9250    3.7760 O.co2  99  GLU99      -0.2457
     97  N         -1.7360  -12.5140    4.8430 N.am  100  ALA100     -0.1963
     98  CA        -2.2340  -11.6630    5.9120 C.3   100  ALA100      0.1728
     99  C         -1.2580  -11.6580    7.0810 C.2   100  ALA100      0.2616
    100  O         -0.5710  -12.6490    7.3480 O.2   100  ALA100     -0.2715
    101  CB        -3.6000  -12.1590    6.3790 C.3   100  ALA100      0.0334
    102  N         -1.1920  -10.5230    7.7810 N.am  101  LYS101     -0.1963
    103  CA        -0.4540  -10.4660    9.0500 C.3   101  LYS101      0.1728
    104  C         -1.4350  -10.7150   10.1880 C.2   101  LYS101      0.2616
    105  O         -1.3410  -11.7240   10.8970 O.2   101  LYS101     -0.2715
    106  CB         0.2750   -9.1280    9.2130 C.3   101  LYS101      0.0311
    107  CG         1.1290   -9.0640   10.4860 C.3   101  LYS101      0.0038
    108  CD         2.5730   -9.4850   10.2150 C.3   101  LYS101      0.0206
    109  CE         3.5720   -8.4080   10.6330 C.3   101  LYS101      0.1093
    110  NZ         4.9650   -8.7760   10.2270 N.3   101  LYS101     -0.1314
    111  N         -2.3820   -9.8030   10.3710 N.am  102  ARG102     -0.1963
    112  CA        -3.4800  -10.0600   11.2850 C.3   102  ARG102      0.1729
    113  C         -4.5080  -10.9510   10.6060 C.2   102  ARG102      0.2616
    114  O         -4.5930  -11.0200    9.3770 O.2   102  ARG102     -0.2715
    115  CB        -4.1340   -8.7540   11.7310 C.3   102  ARG102      0.0348
    116  CG        -3.1680   -7.7760   12.3630 C.3   102  ARG102      0.0492
    117  CD        -3.5950   -6.3380   12.0900 C.3   102  ARG102      0.2205
    118  NE        -3.0480   -5.8360   10.8340 N.pl3 102  ARG102     -0.0865
    119  CZ        -1.7700   -5.5270   10.6360 C.cat 102  ARG102      0.5346
    120  NH1       -0.8860   -5.6510   11.6180 N.pl3 102  ARG102      0.1354
    121  NH2       -1.3780   -5.0820    9.4520 N.pl3 102  ARG102      0.1354
    122  N         -5.3020  -11.6330   11.4330 N.am  103  GLU103     -0.1977
    123  CA        -6.2960  -12.5680   10.9160 C.3   103  GLU103      0.1602
    124  C         -7.2320  -11.9020    9.9160 C.2   103  GLU103      0.2287
    125  O         -7.5990  -12.5070    8.9000 O.2   103  GLU103     -0.2864
    126  CB        -7.0870  -13.1670   12.0790 C.3   103  GLU103      0.0415
    127  CG        -8.2950  -13.9650   11.6530 C.3   103  GLU103      0.1163
    128  CD        -9.0190  -14.5760   12.8290 C.2   103  GLU103      0.3649
    129  OE1       -8.3420  -15.1390   13.7170 O.co2 103  GLU103     -0.2457
    130  OE2      -10.2640  -14.4860   12.8630 O.co2 103  GLU103     -0.2457
@<TRIPOS>BOND
     1    70    71    1
     2    76    74    1
     3    11    10    2
     4    71    74    1
     5    71    72    1
     6    74    75    1
     7    10     9    1
     8    72    73    2
     9    72    77   am
    10    77    78    1
    11     9    12    1
    12     9     8    1
    13    12    13    1
    14    81    78    1
    15    81    82    1
    16    78    79    1
    17    13    15   am
    18    13    14    2
    19    80    79    2
    20    16    17    1
    21    79    88   am
    22    82    83    1
    23    83    84    1
    24    17    18    1
    25    17    20    1
    26    62    61    2
    27    18    19    2
    28    88    89    1
    29    84    85    2
    30     4     3    2
    31    20    21    1
    32    86    85    1
    33    61    60    1
    34    85    87    1
    35     3     2    1
    36    89    92    1
    37    89    90    1
    38    96    94   ar
    39    21    23    1
    40    21    22    1
    41    59    60    1
    42    92    93    1
    43    60    63    1
    44    91    90    2
    45    90    97   am
    46     7     5    1
    47     2     1    1
    48     2     5    1
    49    94    95   ar
    50    94    93    1
    51    24    25    1
    52    97    98    1
    53    63    64    1
    54     5     6    1
    55    26    25    1
    56    26    27    2
    57    55    54    2
    58    25    28    1
    59    54    53    1
    60    98   101    1
    61    98    99    1
    62    64    65    1
    63    32    33    1
    64    28    29    1
    65    52    53    1
    66    53    56    1
    67    99   100    2
    68    99   102   am
    69    65    66    1
    70    30    29    2
    71    33    34    1
    72    33    36    1
    73    66    67    2
    74    29    31   am
    75   102   103    1
    76    57    56    1
    77    34    35    2
    78    34    44   am
    79    56    58    1
    80    46    47    2
    81    46    45    1
    82    44    45    1
    83    36    37    1
    84    67    69    1
    85    67    68    1
    86    50    49    2
    87   125   124    2
    88    45    48    1
    89   103   106    1
    90   103   104    1
    91   106   107    1
    92   114   113    2
    93   121   119    1
    94    38    37   ar
    95    38    40   ar
    96    37    39   ar
    97    49    48    1
    98    49    51   am
    99   124   123    1
   100   104   111   am
   101   104   105    2
   102   108   107    1
   103   108   109    1
   104   110   109    1
   105   111   112    1
   106   113   112    1
   107   113   122   am
   108   119   118    2
   109   119   120    1
   110    40    42   ar
   111   118   117    1
   112   123   122    1
   113   123   126    1
   114    39    41   ar
   115   112   115    1
   116   127   126    1
   117   127   128    1
   118   115   116    1
   119    42    41   ar
   120    42    43    1
   121   117   116    1
   122   128   130   ar
   123   128   129   ar
