@<TRIPOS>MOLECULE
tmp/5myoA00.pdb
 91 86 0 0 0
SMALL
GASTEIGER

@<TRIPOS>ATOM
      1  N         -4.7700  -26.5660   14.0390 N.3    31  TYR31      -0.1241
      2  CA        -3.4540  -26.1110   14.4520 C.3    31  TYR31       0.1605
      3  C         -3.3950  -25.9740   15.9780 C.2    31  TYR31       0.2264
      4  O         -4.4140  -26.0050   16.6720 O.2    31  TYR31      -0.2867
      5  CB        -3.1170  -24.7800   13.7640 C.3    31  TYR31       0.0534
      6  CG        -1.6610  -24.3750   13.8640 C.ar   31  TYR31      -0.0201
      7  CD1       -0.6700  -25.1030   13.2130 C.ar   31  TYR31      -0.0009
      8  CD2       -1.2800  -23.2570   14.5930 C.ar   31  TYR31      -0.0009
      9  CE1        0.6710  -24.7360   13.3030 C.ar   31  TYR31       0.0417
     10  CE2        0.0520  -22.8820   14.6890 C.ar   31  TYR31       0.0417
     11  CZ         1.0220  -23.6240   14.0430 C.ar   31  TYR31       0.1957
     12  OH         2.3410  -23.2480   14.1410 O.3    31  TYR31      -0.2866
     13  N         -6.7770  -23.8350    9.5550 N.3    37  TYR37      -0.1241
     14  CA        -6.3720  -22.9780    8.4390 C.3    37  TYR37       0.1605
     15  C         -6.7700  -23.6350    7.1170 C.2    37  TYR37       0.2264
     16  O         -5.9480  -24.0630    6.3050 O.2    37  TYR37      -0.2867
     17  CB        -4.8800  -22.6760    8.5140 C.3    37  TYR37       0.0534
     18  CG        -4.5300  -21.8510    9.7290 C.ar   37  TYR37      -0.0201
     19  CD1       -4.6890  -20.4750    9.7230 C.ar   37  TYR37      -0.0009
     20  CD2       -4.0730  -22.4500   10.8890 C.ar   37  TYR37      -0.0009
     21  CE1       -4.3960  -19.7130   10.8350 C.ar   37  TYR37       0.0417
     22  CE2       -3.7680  -21.6930   12.0120 C.ar   37  TYR37       0.0417
     23  CZ        -3.9340  -20.3250   11.9730 C.ar   37  TYR37       0.1957
     24  OH        -3.6340  -19.5620   13.0780 O.3    37  TYR37      -0.2866
     25  N         -8.8710  -22.8710    3.6590 N.3    39  ASN39      -0.1240
     26  CA        -9.2480  -21.7510    2.8160 C.3    39  ASN39       0.1653
     27  C         -9.9360  -22.2490    1.5540 C.2    39  ASN39       0.2266
     28  O         -9.6200  -23.3260    1.0460 O.2    39  ASN39      -0.2867
     29  CB        -8.0210  -20.9460    2.3910 C.3    39  ASN39       0.1155
     30  CG        -7.1280  -20.5790    3.5520 C.2    39  ASN39       0.2627
     31  OD1       -7.3210  -19.5410    4.1810 O.2    39  ASN39      -0.2716
     32  ND2       -6.1180  -21.4180    3.8250 N.am   39  ASN39      -0.0877
     33  N        -10.6150  -20.9500   -2.4120 N.3    41  LEU41      -0.1245
     34  CA       -10.3070  -20.0300   -3.4950 C.3    41  LEU41       0.1561
     35  C        -11.2590  -20.2500   -4.6600 C.2    41  LEU41       0.2260
     36  O        -11.7320  -21.3650   -4.8870 O.2    41  LEU41      -0.2867
     37  CB        -8.8710  -20.2290   -4.0070 C.3    41  LEU41       0.0270
     38  CG        -7.7750  -20.4140   -2.9720 C.3    41  LEU41       0.0019
     39  CD1       -6.4150  -20.6190   -3.6700 C.3    41  LEU41       0.0001
     40  CD2       -7.7270  -19.2180   -2.0550 C.3    41  LEU41       0.0001
     41  N         -9.1440  -15.6040   -2.8010 N.3    51  ARG51      -0.1245
     42  CA        -9.7250  -16.2950   -1.6600 C.3    51  ARG51       0.1563
     43  C        -11.1310  -15.7830   -1.3810 C.2    51  ARG51       0.2260
     44  O        -11.3760  -14.5720   -1.3900 O.2    51  ARG51      -0.2867
     45  CB        -8.8560  -16.1400   -0.4160 C.3    51  ARG51       0.0307
     46  CG        -9.2990  -17.0690    0.7020 C.3    51  ARG51       0.0489
     47  CD        -8.2810  -17.0840    1.8300 C.3    51  ARG51       0.2205
     48  NE        -8.3220  -15.8270    2.5760 N.pl3  51  ARG51      -0.0865
     49  CZ        -7.5330  -15.5500    3.6170 C.cat  51  ARG51       0.5346
     50  NH1       -6.6370  -16.4390    4.0360 N.pl3  51  ARG51       0.1354
     51  NH2       -7.6470  -14.3840    4.2400 N.pl3  51  ARG51       0.1354
     52  N         -7.4690  -25.0720    0.0380 N.3    94  VAL94      -0.1245
     53  CA        -6.0280  -25.0760    0.2700 C.3    94  VAL94       0.1561
     54  C         -5.7980  -24.9950    1.7700 C.2    94  VAL94       0.2260
     55  O         -6.4410  -24.1970    2.4580 O.2    94  VAL94      -0.2867
     56  CB        -5.3300  -23.9250   -0.4860 C.3    94  VAL94       0.0252
     57  CG1       -5.9030  -22.5490   -0.1130 C.3    94  VAL94       0.0019
     58  CG2       -3.8270  -23.9520   -0.2490 C.3    94  VAL94       0.0019
     59  N         -3.3770  -24.4180    5.1700 N.3    96  GLY96      -0.1210
     60  CA        -2.1890  -23.7230    5.6240 C.3    96  GLY96       0.1956
     61  C         -1.7560  -24.1280    7.0180 C.2    96  GLY96       0.2612
     62  O         -0.9140  -23.4680    7.6260 O.2    96  GLY96      -0.2717
     63  N         -2.3080  -25.2290    7.5260 N.am   97  THR97      -0.1952
     64  CA        -1.9480  -25.6890    8.8640 C.3    97  THR97       0.1897
     65  C         -0.6040  -26.4080    8.8820 C.2    97  THR97       0.2313
     66  O          0.1820  -26.2430    9.8260 O.2    97  THR97      -0.2863
     67  CB        -3.0520  -26.5990    9.3960 C.3    97  THR97       0.1794
     68  OG1       -4.2530  -25.8320    9.5460 O.3    97  THR97      -0.2208
     69  CG2       -2.6550  -27.2130   10.7310 C.3    97  THR97       0.0378
     70  N          3.0380  -27.4590    6.8350 N.3    99  PHE99      -0.1241
     71  CA         3.9970  -27.2560    5.7600 C.3    99  PHE99       0.1605
     72  C          4.3440  -28.6000    5.1200 C.2    99  PHE99       0.2264
     73  O          4.5690  -29.5850    5.8320 O.2    99  PHE99      -0.2867
     74  CB         5.2730  -26.5930    6.2830 C.3    99  PHE99       0.0534
     75  CG         5.1320  -25.1210    6.5600 C.ar   99  PHE99      -0.0203
     76  CD1        5.0910  -24.2030    5.5250 C.ar   99  PHE99      -0.0042
     77  CD2        5.0570  -24.6560    7.8670 C.ar   99  PHE99      -0.0042
     78  CE1        4.9750  -22.8520    5.7800 C.ar   99  PHE99      -0.0003
     79  CE2        4.9410  -23.3080    8.1320 C.ar   99  PHE99      -0.0003
     80  CZ         4.8860  -22.4010    7.0820 C.ar   99  PHE99      -0.0000
     81  N          2.2090  -26.0900    2.4130 N.3   101  PHE101     -0.1241
     82  CA         0.8130  -25.8240    2.0970 C.3   101  PHE101      0.1605
     83  C          0.4480  -26.5990    0.8430 C.2   101  PHE101      0.2264
     84  O          1.2560  -26.6970   -0.0820 O.2   101  PHE101     -0.2867
     85  CB         0.5640  -24.3280    1.8680 C.3   101  PHE101      0.0534
     86  CG         0.9970  -23.4510    3.0030 C.ar  101  PHE101     -0.0203
     87  CD1        1.0260  -23.9390    4.3040 C.ar  101  PHE101     -0.0042
     88  CD2        1.3870  -22.1380    2.7690 C.ar  101  PHE101     -0.0042
     89  CE1        1.4260  -23.1290    5.3620 C.ar  101  PHE101     -0.0003
     90  CE2        1.7880  -21.3240    3.8240 C.ar  101  PHE101     -0.0003
     91  CZ         1.8020  -21.8220    5.1180 C.ar  101  PHE101     -0.0000
@<TRIPOS>BOND
     1    36    35    2
     2    35    34    1
     3    37    34    1
     4    37    38    1
     5    39    38    1
     6    34    33    1
     7    38    40    1
     8    41    42    1
     9    42    43    1
    10    42    45    1
    11    44    43    2
    12    56    58    1
    13    56    57    1
    14    56    53    1
    15    45    46    1
    16    84    83    2
    17    52    53    1
    18    53    54    1
    19    46    47    1
    20    83    82    1
    21    28    27    2
    22    27    26    1
    23    54    55    2
    24    47    48    1
    25    85    82    1
    26    85    86    1
    27    82    81    1
    28    29    26    1
    29    29    30    1
    30    48    49    2
    31    88    86   ar
    32    88    90   ar
    33    26    25    1
    34    86    87   ar
    35    30    32   am
    36    30    31    2
    37    49    50    1
    38    49    51    1
    39    90    91   ar
    40    87    89   ar
    41    91    89   ar
    42    72    71    1
    43    72    73    2
    44    59    60    1
    45    76    78   ar
    46    76    75   ar
    47    60    61    1
    48    71    74    1
    49    71    70    1
    50    78    80   ar
    51    74    75    1
    52    16    15    2
    53    75    77   ar
    54    61    63   am
    55    61    62    2
    56    80    79   ar
    57    15    14    1
    58    63    64    1
    59    77    79   ar
    60    14    17    1
    61    14    13    1
    62    17    18    1
    63    64    65    1
    64    64    67    1
    65    65    66    2
    66    67    68    1
    67    67    69    1
    68    19    18   ar
    69    19    21   ar
    70    18    20   ar
    71    21    23   ar
    72    20    22   ar
    73    23    22   ar
    74    23    24    1
    75     7     9   ar
    76     7     6   ar
    77     9    11   ar
    78     5     6    1
    79     5     2    1
    80     6     8   ar
    81     1     2    1
    82    11    12    1
    83    11    10   ar
    84     2     3    1
    85     8    10   ar
    86     3     4    2
