@<TRIPOS>MOLECULE
tmp/5myqC00.pdb
 177 167 0 0 0
SMALL
GASTEIGER

@<TRIPOS>ATOM
      1  N          3.3680   20.9070   20.1000 N.3    11  ASN11      -0.1240
      2  CA         2.6210   21.9170   19.3440 C.3    11  ASN11       0.1653
      3  C          2.8410   21.8600   17.8360 C.2    11  ASN11       0.2266
      4  O          3.5480   21.0180   17.3360 O.2    11  ASN11      -0.2867
      5  CB         2.7860   23.3200   19.9680 C.3    11  ASN11       0.1155
      6  CG         4.1420   23.9550   19.7550 C.2    11  ASN11       0.2627
      7  OD1        4.8930   23.6220   18.8520 O.2    11  ASN11      -0.2716
      8  ND2        4.4390   24.9580   20.6250 N.am   11  ASN11      -0.0877
      9  N          4.5600   23.7170   15.8780 N.3    13  LEU13      -0.1245
     10  CA         5.9220   23.9560   15.3680 C.3    13  LEU13       0.1561
     11  C          6.8780   22.7820   15.6920 C.2    13  LEU13       0.2260
     12  O          8.0010   22.7780   15.2200 O.2    13  LEU13      -0.2867
     13  CB         6.4930   25.2510   15.9270 C.3    13  LEU13       0.0270
     14  CG         5.7270   26.5660   15.6930 C.3    13  LEU13       0.0019
     15  CD1        6.1920   27.6870   16.5950 C.3    13  LEU13       0.0001
     16  CD2        5.8680   26.9620   14.2600 C.3    13  LEU13       0.0001
     17  N          7.6380   21.8690   18.9610 N.3    15  SER15      -0.1217
     18  CA         8.1220   22.0130   20.3460 C.3    15  SER15       0.1889
     19  C          7.3650   21.0600   21.2890 C.2    15  SER15       0.2288
     20  O          6.1770   20.8040   21.1080 O.2    15  SER15      -0.2866
     21  CB         7.9340   23.4490   20.8330 C.3    15  SER15       0.2089
     22  OG         8.5070   24.3550   19.9560 O.3    15  SER15      -0.2183
     23  N         10.1020   23.0880   28.8580 N.3    32  TYR32      -0.1241
     24  CA         9.7930   23.5070   27.4720 C.3    32  TYR32       0.1605
     25  C         10.9950   23.3240   26.5920 C.2    32  TYR32       0.2264
     26  O         12.0460   23.8510   26.9020 O.2    32  TYR32      -0.2867
     27  CB         9.2890   24.9380   27.4300 C.3    32  TYR32       0.0534
     28  CG         8.4380   25.2640   26.2020 C.ar   32  TYR32      -0.0201
     29  CD1        7.0240   25.3560   26.3000 C.ar   32  TYR32      -0.0009
     30  CD2        9.0010   25.4970   24.9580 C.ar   32  TYR32      -0.0009
     31  CE1        6.2350   25.6240   25.1850 C.ar   32  TYR32       0.0417
     32  CE2        8.1950   25.7730   23.8350 C.ar   32  TYR32       0.0417
     33  CZ         6.7950   25.8320   23.9580 C.ar   32  TYR32       0.1957
     34  OH         5.9560   26.1400   22.8830 O.3    32  TYR32      -0.2866
     35  N         11.7710   23.9150   22.7150 N.3    34  THR34      -0.1218
     36  CA        11.2880   24.5340   21.4990 C.3    34  THR34       0.1862
     37  C         11.9100   23.8690   20.2850 C.2    34  THR34       0.2287
     38  O         13.0490   23.4470   20.3410 O.2    34  THR34      -0.2866
     39  CB        11.5120   26.0530   21.4460 C.3    34  THR34       0.1770
     40  OG1       10.9650   26.5630   20.2300 O.3    34  THR34      -0.2211
     41  CG2       12.9910   26.4450   21.6100 C.3    34  THR34       0.0375
     42  N         12.1230   25.5530   17.4760 N.3    36  VAL36      -0.1231
     43  CA        12.5340   26.6630   16.6420 C.3    36  VAL36       0.1692
     44  C         13.1590   27.7250   17.5640 C.2    36  VAL36       0.2593
     45  O         12.6760   27.9660   18.6930 O.2    36  VAL36      -0.2718
     46  CB        11.3610   27.2670   15.7850 C.3    36  VAL36       0.0266
     47  CG1       10.7910   26.1990   14.8560 C.3    36  VAL36       0.0020
     48  CG2       10.2210   27.8450   16.6780 C.3    36  VAL36       0.0020
     49  N         14.2500   28.2850   17.0550 N.am   37  THR37      -0.1939
     50  CA        14.9340   29.4370   17.6090 C.3    37  THR37       0.2028
     51  C         15.3570   30.3010   16.3970 C.2    37  THR37       0.2642
     52  O         14.8820   30.0690   15.2750 O.2    37  THR37      -0.2714
     53  CB        16.1690   28.9790   18.4140 C.3    37  THR37       0.1808
     54  OG1       16.8190   30.1110   19.0010 O.3    37  THR37      -0.2208
     55  CG2       17.1760   28.2560   17.5630 C.3    37  THR37       0.0379
     56  N         16.2340   31.2840   16.6120 N.am   38  ALA38      -0.1963
     57  CA        16.7410   32.1060   15.5220 C.3    38  ALA38       0.1728
     58  C         18.1250   32.7590   15.7160 C.2    38  ALA38       0.2616
     59  O         18.4320   33.7350   15.0150 O.2    38  ALA38      -0.2715
     60  CB        15.7200   33.1890   15.1980 C.3    38  ALA38       0.0334
     61  N         18.9470   32.2760   16.6520 N.am   39  THR39      -0.1951
     62  CA        20.3580   32.7840   16.7900 C.3    39  THR39       0.1897
     63  C         21.2440   31.5410   17.0690 C.2    39  THR39       0.2313
     64  O         20.7140   30.4970   17.4750 O.2    39  THR39      -0.2863
     65  CB        20.4410   34.0200   17.7950 C.3    39  THR39       0.1794
     66  OG1       20.4120   35.2670   17.0680 O.3    39  THR39      -0.2208
     67  CG2       21.7030   34.0170   18.6340 C.3    39  THR39       0.0378
     68  N         22.7770   30.6040   19.4040 N.3    41  ASN41      -0.1240
     69  CA        22.2490   30.0460   20.6680 C.3    41  ASN41       0.1653
     70  C         21.5600   28.6840   20.3780 C.2    41  ASN41       0.2266
     71  O         20.5510   28.6040   19.6200 O.2    41  ASN41      -0.2867
     72  CB        21.4230   31.1010   21.5000 C.3    41  ASN41       0.1155
     73  CG        20.1160   31.6480   20.8080 C.2    41  ASN41       0.2627
     74  OD1       19.3500   30.9390   20.1210 O.2    41  ASN41      -0.2716
     75  ND2       19.8260   32.9230   21.0830 N.am   41  ASN41      -0.0877
     76  N         13.7060   31.1290   29.3890 N.3    69  TRP69      -0.1241
     77  CA        14.6480   30.4770   28.4560 C.3    69  TRP69       0.1605
     78  C         16.0780   30.4490   29.0430 C.2    69  TRP69       0.2264
     79  O         16.5880   31.4880   29.4950 O.2    69  TRP69      -0.2867
     80  CB        14.6680   31.1950   27.0960 C.3    69  TRP69       0.0550
     81  CG        13.2860   31.2410   26.4240 C.ar   69  TRP69       0.0003
     82  CD1       12.5270   32.3030   26.2510 C.ar   69  TRP69       0.0946
     83  CD2       12.5820   30.1300   25.8470 C.ar   69  TRP69       0.0152
     84  NE1       11.3870   31.9720   25.5700 N.ar   69  TRP69      -0.2442
     85  CE2       11.3830   30.6290   25.3380 C.ar   69  TRP69       0.0810
     86  CE3       12.8640   28.7510   25.7180 C.ar   69  TRP69       0.0012
     87  CZ2       10.4470   29.8350   24.7210 C.ar   69  TRP69       0.0191
     88  CZ3       11.8830   27.9230   25.0810 C.ar   69  TRP69       0.0001
     89  CH2       10.7090   28.4860   24.6060 C.ar   69  TRP69       0.0015
     90  N         18.6720   29.6300   27.2780 N.3    71  PHE71      -0.1227
     91  CA        19.6150   29.8870   26.1900 C.3    71  PHE71       0.1736
     92  C         19.4770   31.2720   25.4850 C.2    71  PHE71       0.2596
     93  O         20.1010   31.5060   24.4190 O.2    71  PHE71      -0.2718
     94  CB        19.5310   28.7560   25.1690 C.3    71  PHE71       0.0547
     95  CG        18.2450   28.7280   24.4550 C.ar   71  PHE71      -0.0202
     96  CD1       17.1300   28.1440   25.0580 C.ar   71  PHE71      -0.0042
     97  CD2       18.1100   29.3270   23.1960 C.ar   71  PHE71      -0.0042
     98  CE1       15.9250   28.1240   24.4260 C.ar   71  PHE71      -0.0003
     99  CE2       16.8910   29.3130   22.5380 C.ar   71  PHE71      -0.0003
    100  CZ        15.7820   28.7090   23.1640 C.ar   71  PHE71      -0.0000
    101  N         18.7310   32.1760   26.1160 N.am   72  SER72      -0.1952
    102  CA        18.3340   33.4440   25.5340 C.3    72  SER72       0.1924
    103  C         18.1130   34.4400   26.6570 C.2    72  SER72       0.2314
    104  O         17.7080   34.0600   27.7560 O.2    72  SER72      -0.2863
    105  CB        17.0090   33.2550   24.7550 C.3    72  SER72       0.2116
    106  OG        16.7310   34.3950   23.9730 O.3    72  SER72      -0.2180
    107  N         15.7530   36.5040   26.3500 N.3    74  SER74      -0.1217
    108  CA        14.3300   36.7680   26.1550 C.3    74  SER74       0.1889
    109  C         13.4370   35.9560   27.1290 C.2    74  SER74       0.2288
    110  O         13.9210   35.0340   27.8140 O.2    74  SER74      -0.2866
    111  CB        14.0600   36.4640   24.6700 C.3    74  SER74       0.2089
    112  OG        13.6370   35.1320   24.5130 O.3    74  SER74      -0.2183
    113  N          9.2580   34.3520   27.0300 N.3    76  THR76      -0.1218
    114  CA         7.8810   34.1510   26.4820 C.3    76  THR76       0.1862
    115  C          6.7850   33.8630   27.5330 C.2    76  THR76       0.2287
    116  O          6.9660   33.1000   28.4980 O.2    76  THR76      -0.2866
    117  CB         7.8900   33.0280   25.4340 C.3    76  THR76       0.1770
    118  OG1        8.9830   33.1700   24.5230 O.3    76  THR76      -0.2211
    119  CG2        6.6350   32.9590   24.6640 C.3    76  THR76       0.0375
    120  N          2.6900   32.5400   27.6240 N.3    78  PHE78      -0.1241
    121  CA         1.6480   31.8490   26.8720 C.3    78  PHE78       0.1605
    122  C          0.3390   31.9340   27.7070 C.2    78  PHE78       0.2264
    123  O          0.3790   31.8810   28.9390 O.2    78  PHE78      -0.2867
    124  CB         1.9640   30.3940   26.7460 C.3    78  PHE78       0.0534
    125  CG         3.0390   30.0380   25.7960 C.ar   78  PHE78      -0.0203
    126  CD1        4.3690   30.1550   26.1370 C.ar   78  PHE78      -0.0042
    127  CD2        2.7210   29.5000   24.5530 C.ar   78  PHE78      -0.0042
    128  CE1        5.3660   29.7740   25.2580 C.ar   78  PHE78      -0.0003
    129  CE2        3.7070   29.1380   23.6730 C.ar   78  PHE78      -0.0003
    130  CZ         5.0130   29.3030   23.9970 C.ar   78  PHE78      -0.0000
    131  N          0.8480   33.7540   22.5350 N.3    96  TRP96      -0.1241
    132  CA         2.1000   34.0740   23.2630 C.3    96  TRP96       0.1605
    133  C          2.6110   35.4660   22.9330 C.2    96  TRP96       0.2264
    134  O          2.2640   36.0220   21.8970 O.2    96  TRP96      -0.2867
    135  CB         3.1720   32.9730   23.0120 C.3    96  TRP96       0.0550
    136  CG         3.4540   32.6450   21.6190 C.ar   96  TRP96       0.0003
    137  CD1        3.0690   31.5000   20.9300 C.ar   96  TRP96       0.0946
    138  CD2        4.3180   33.3720   20.7040 C.ar   96  TRP96       0.0152
    139  NE1        3.6020   31.5330   19.6620 N.ar   96  TRP96      -0.2442
    140  CE2        4.3600   32.6550   19.4990 C.ar   96  TRP96       0.0810
    141  CE3        5.0380   34.5900   20.7840 C.ar   96  TRP96       0.0012
    142  CZ2        5.1060   33.1070   18.3890 C.ar   96  TRP96       0.0191
    143  CZ3        5.7830   35.0190   19.6760 C.ar   96  TRP96       0.0001
    144  CH2        5.7980   34.2910   18.5150 C.ar   96  TRP96       0.0015
    145  N          6.5250   37.0880   23.0410 N.3    98  LEU98      -0.1301
    146  CA         7.9850   36.8400   23.2070 C.3    98  LEU98       0.1247
    147  C          8.6580   38.1960   23.3310 C.3    98  LEU98       0.2009
    148  O          8.6930   39.0420   22.3460 O.3    98  LEU98      -0.2188
    149  CB         8.5070   36.0430   22.0090 C.3    98  LEU98       0.0217
    150  CG        10.0130   35.6100   22.0970 C.3    98  LEU98       0.0015
    151  CD1       10.3980   34.5120   21.1280 C.3    98  LEU98       0.0000
    152  CD2       10.8420   36.7980   21.8700 C.3    98  LEU98       0.0000
    153  N         11.9230   40.3210   23.6390 N.3   100  SER100     -0.1217
    154  CA        13.3490   40.4020   23.5220 C.3   100  SER100      0.1889
    155  C         13.9960   41.4650   24.4820 C.2   100  SER100      0.2288
    156  O         13.3750   42.3770   24.8990 O.2   100  SER100     -0.2866
    157  CB        13.7610   40.7750   22.0680 C.3   100  SER100      0.2089
    158  OG        13.3630   39.7570   21.1710 O.3   100  SER100     -0.2183
    159  N          7.2290   40.3200   20.1880 N.3   113  ARG113     -0.1245
    160  CA         6.5830   39.5380   19.1360 C.3   113  ARG113      0.1563
    161  C          5.3580   38.8170   19.6650 C.2   113  ARG113      0.2260
    162  O          5.2770   38.5630   20.8650 O.2   113  ARG113     -0.2867
    163  CB         7.5180   38.5000   18.5750 C.3   113  ARG113      0.0307
    164  CG         8.6690   39.1270   17.7820 C.3   113  ARG113      0.0489
    165  CD         9.6420   38.0110   17.5500 C.3   113  ARG113      0.2205
    166  NE        10.6030   38.1660   16.4540 N.pl3 113  ARG113     -0.0865
    167  CZ        11.7270   38.8590   16.5350 C.cat 113  ARG113      0.5346
    168  NH1       12.0180   39.5240   17.6310 N.pl3 113  ARG113      0.1354
    169  NH2       12.5280   38.9350   15.4960 N.pl3 113  ARG113      0.1354
    170  N         -0.0540   29.1950   19.4320 N.3   117  ASN117     -0.1240
    171  CA         0.3230   27.7300   19.3790 C.3   117  ASN117      0.1653
    172  C         -0.8280   26.8650   19.8140 C.2   117  ASN117      0.2266
    173  O         -1.6110   27.2280   20.6970 O.2   117  ASN117     -0.2867
    174  CB         1.5660   27.3430   20.1800 C.3   117  ASN117      0.1155
    175  CG         2.9050   27.7140   19.4940 C.2   117  ASN117      0.2627
    176  OD1        3.7070   28.4360   20.1080 O.2   117  ASN117     -0.2716
    177  ND2        3.1680   27.2250   18.2590 N.am  117  ASN117     -0.0877
@<TRIPOS>BOND
     1    16    14    1
     2    47    46    1
     3    59    58    2
     4    60    57    1
     5    12    11    2
     6    52    51    2
     7    10    11    1
     8    10     9    1
     9    10    13    1
    10   169   167    1
    11    57    58    1
    12    57    56    1
    13    14    13    1
    14    14    15    1
    15    58    61   am
    16    46    43    1
    17    46    48    1
    18    51    56   am
    19    51    50    1
    20   166   167    2
    21   166   165    1
    22   167   168    1
    23    43    42    1
    24    43    44    1
    25    61    62    1
    26    62    63    1
    27    62    65    1
    28    49    44   am
    29    49    50    1
    30    66    65    1
    31    63    64    2
    32     4     3    2
    33   165   164    1
    34    55    53    1
    35    44    45    2
    36    50    53    1
    37   164   163    1
    38    65    67    1
    39     3     2    1
    40   177   175   am
    41   142   144   ar
    42   142   140   ar
    43    53    54    1
    44   144   143   ar
    45   163   160    1
    46     7     6    2
    47    17    18    1
    48   160   161    1
    49   160   159    1
    50     2     5    1
    51     2     1    1
    52   171   170    1
    53   171   172    1
    54   171   174    1
    55    68    69    1
    56   175   176    2
    57   175   174    1
    58   140   139   ar
    59   140   138   ar
    60    71    70    2
    61   139   137   ar
    62   161   162    2
    63   143   141   ar
    64     6     5    1
    65     6     8   am
    66   172   173    2
    67    22    21    1
    68    74    73    2
    69    40    39    1
    70    37    38    2
    71    37    36    1
    72    18    21    1
    73    18    19    1
    74    70    69    1
    75    69    72    1
    76   138   141   ar
    77   138   136   ar
    78    73    75   am
    79    73    72    1
    80   137   136   ar
    81    20    19    2
    82   151   150    1
    83   158   157    1
    84    39    36    1
    85    39    41    1
    86    36    35    1
    87   136   135    1
    88   152   150    1
    89   134   133    2
    90   149   150    1
    91   149   146    1
    92   157   154    1
    93   148   147    1
    94   131   132    1
    95    99   100   ar
    96    99    97   ar
    97    34    33    1
    98   133   132    1
    99   135   132    1
   100   145   146    1
   101   100    98   ar
   102    97    95   ar
   103   146   147    1
   104   154   153    1
   105   154   155    1
   106   129   130   ar
   107   129   127   ar
   108    32    33   ar
   109    32    30   ar
   110    33    31   ar
   111   106   105    1
   112   130   128   ar
   113    93    92    2
   114    98    96   ar
   115    95    96   ar
   116    95    94    1
   117   155   156    2
   118   112   111    1
   119   118   117    1
   120   127   125   ar
   121    89    87   ar
   122    89    88   ar
   123   119   117    1
   124   111   108    1
   125    87    85   ar
   126   105   102    1
   127    30    28   ar
   128    88    86   ar
   129    94    91    1
   130    31    29   ar
   131   128   126   ar
   132    85    84   ar
   133    85    83   ar
   134   117   114    1
   135    92   101   am
   136    92    91    1
   137   102   101    1
   138   102   103    1
   139    84    82   ar
   140    86    83   ar
   141   125   126   ar
   142   125   124    1
   143    83    81   ar
   144   108   107    1
   145   108   109    1
   146    91    90    1
   147    28    29   ar
   148    28    27    1
   149    82    81   ar
   150    81    80    1
   151   114   113    1
   152   114   115    1
   153    25    26    2
   154    25    24    1
   155   103   104    2
   156   124   121    1
   157   121   120    1
   158   121   122    1
   159    80    77    1
   160   109   110    2
   161    27    24    1
   162    24    23    1
   163   115   116    2
   164   122   123    2
   165    77    78    1
   166    77    76    1
   167    78    79    2
