@<TRIPOS>MOLECULE
tmp/5myrA00.pdb
 192 189 0 0 0
SMALL
GASTEIGER

@<TRIPOS>ATOM
      1  N         -6.5920  -35.3810    3.2490 N.3    66  LEU66      -0.1245
      2  CA        -6.3290  -34.1050    3.9060 C.3    66  LEU66       0.1561
      3  C         -5.3550  -34.2800    5.0670 C.2    66  LEU66       0.2260
      4  O         -4.4610  -33.4490    5.2730 O.2    66  LEU66      -0.2867
      5  CB        -7.6460  -33.4810    4.3870 C.3    66  LEU66       0.0270
      6  CG        -7.5300  -32.0370    4.8920 C.3    66  LEU66       0.0019
      7  CD1       -6.9750  -31.1380    3.7890 C.3    66  LEU66       0.0001
      8  CD2       -8.8760  -31.5100    5.3720 C.3    66  LEU66       0.0001
      9  N         -1.8460  -34.4130    3.5760 N.3    69  LEU69      -0.1245
     10  CA        -1.3720  -33.0630    3.2890 C.3    69  LEU69       0.1561
     11  C         -0.9020  -32.3560    4.5510 C.2    69  LEU69       0.2260
     12  O          0.1720  -31.7430    4.5680 O.2    69  LEU69      -0.2867
     13  CB        -2.4910  -32.2600    2.6430 C.3    69  LEU69       0.0270
     14  CG        -2.5120  -32.0670    1.1430 C.3    69  LEU69       0.0019
     15  CD1       -3.5200  -30.9680    0.8690 C.3    69  LEU69       0.0001
     16  CD2       -1.1300  -31.7050    0.6310 C.3    69  LEU69       0.0001
     17  N         -1.0160  -23.3980   -1.1030 N.3    81  MET81      -0.1230
     18  CA        -1.3720  -24.2120    0.0610 C.3    81  MET81       0.1702
     19  C         -2.8760  -24.4430    0.1120 C.2    81  MET81       0.2592
     20  O         -3.3380  -25.5820    0.2340 O.2    81  MET81      -0.2718
     21  CB        -0.8930  -23.5500    1.3700 C.3    81  MET81       0.0401
     22  CG        -1.5750  -24.1080    2.6590 C.3    81  MET81       0.0596
     23  SD        -1.0860  -23.4300    4.3000 S.3    81  MET81      -0.1393
     24  CE        -1.8510  -21.8090    4.3040 C.3    81  MET81       0.0692
     25  N         -3.6570  -23.3630    0.0220 N.am   82  TRP82      -0.1976
     26  CA        -5.1080  -23.4910    0.0750 C.3    82  TRP82       0.1640
     27  C         -5.6380  -24.2670   -1.1220 C.2    82  TRP82       0.2290
     28  O         -6.5250  -25.1210   -0.9720 O.2    82  TRP82      -0.2864
     29  CB        -5.7390  -22.1020    0.1700 C.3    82  TRP82       0.0576
     30  CG        -5.4160  -21.4550    1.5100 C.ar   82  TRP82       0.0006
     31  CD1       -4.5590  -20.4160    1.7410 C.ar   82  TRP82       0.0946
     32  CD2       -5.9240  -21.8530    2.7920 C.ar   82  TRP82       0.0152
     33  NE1       -4.5200  -20.1240    3.0990 N.ar   82  TRP82      -0.2442
     34  CE2       -5.3490  -20.9920    3.7600 C.ar   82  TRP82       0.0810
     35  CE3       -6.8090  -22.8500    3.2150 C.ar   82  TRP82       0.0012
     36  CZ2       -5.6280  -21.1020    5.1320 C.ar   82  TRP82       0.0191
     37  CZ3       -7.0930  -22.9490    4.5890 C.ar   82  TRP82       0.0001
     38  CH2       -6.5040  -22.0810    5.5180 C.ar   82  TRP82       0.0015
     39  N         -5.2710  -27.9910   -0.7330 N.3    85  GLY85      -0.1210
     40  CA        -6.2150  -28.5530    0.2200 C.3    85  GLY85       0.1956
     41  C         -7.6290  -28.6360   -0.3270 C.2    85  GLY85       0.2611
     42  O         -8.2880  -29.6770   -0.2110 O.2    85  GLY85      -0.2717
     43  N         -8.1230  -27.5390   -0.9210 N.am   86  ILE86      -0.1979
     44  CA        -9.4390  -27.5740   -1.5510 C.3    86  ILE86       0.1595
     45  C         -9.4780  -28.6550   -2.6260 C.2    86  ILE86       0.2287
     46  O        -10.5040  -29.3220   -2.8230 O.2    86  ILE86      -0.2864
     47  CB        -9.8000  -26.1990   -2.1420 C.3    86  ILE86       0.0276
     48  CG1      -10.0320  -25.1630   -1.0310 C.3    86  ILE86       0.0022
     49  CG2      -11.0750  -26.2990   -2.9610 C.3    86  ILE86       0.0022
     50  CD1       -9.9010  -23.7260   -1.5390 C.3    86  ILE86       0.0001
     51  N        -10.8000  -32.2330   -1.9310 N.3    89  PHE89      -0.1241
     52  CA       -12.2410  -32.4680   -1.9890 C.3    89  PHE89       0.1605
     53  C        -12.7430  -32.4550   -3.4230 C.2    89  PHE89       0.2264
     54  O        -13.5830  -33.2860   -3.7970 O.2    89  PHE89      -0.2867
     55  CB       -12.9630  -31.4210   -1.1390 C.3    89  PHE89       0.0534
     56  CG       -12.6390  -31.5370    0.3160 C.ar   89  PHE89      -0.0203
     57  CD1      -13.2730  -32.4870    1.1050 C.ar   89  PHE89      -0.0042
     58  CD2      -11.6470  -30.7520    0.8810 C.ar   89  PHE89      -0.0042
     59  CE1      -12.9670  -32.6270    2.4460 C.ar   89  PHE89      -0.0003
     60  CE2      -11.3270  -30.8820    2.2290 C.ar   89  PHE89      -0.0003
     61  CZ       -11.9810  -31.8340    3.0140 C.ar   89  PHE89      -0.0000
     62  N        -14.3110  -36.1310   -4.1940 N.3    93  PHE93      -0.1241
     63  CA       -15.7520  -36.1940   -4.4300 C.3    93  PHE93       0.1605
     64  C        -16.0700  -36.1660   -5.9140 C.2    93  PHE93       0.2264
     65  O        -17.0220  -36.8240   -6.3540 O.2    93  PHE93      -0.2867
     66  CB       -16.4610  -35.0530   -3.6970 C.3    93  PHE93       0.0534
     67  CG       -16.4580  -35.2010   -2.2090 C.ar   93  PHE93      -0.0203
     68  CD1      -17.1250  -36.2550   -1.6090 C.ar   93  PHE93      -0.0042
     69  CD2      -15.8040  -34.2910   -1.4110 C.ar   93  PHE93      -0.0042
     70  CE1      -17.1280  -36.4040   -0.2190 C.ar   93  PHE93      -0.0003
     71  CE2      -15.8120  -34.4330   -0.0230 C.ar   93  PHE93      -0.0003
     72  CZ       -16.4580  -35.4890    0.5630 C.ar   93  PHE93      -0.0000
     73  N        -22.1860  -36.7990    7.6700 N.3   117  TRP117     -0.1241
     74  CA       -21.7360  -35.5760    7.0180 C.3   117  TRP117      0.1605
     75  C        -21.4130  -34.4940    8.0430 C.2   117  TRP117      0.2264
     76  O        -20.3790  -33.8140    7.9440 O.2   117  TRP117     -0.2867
     77  CB       -22.7960  -35.0810    6.0300 C.3   117  TRP117      0.0550
     78  CG       -22.2670  -34.0020    5.1800 C.ar  117  TRP117      0.0003
     79  CD1      -22.6000  -32.6780    5.2160 C.ar  117  TRP117      0.0946
     80  CD2      -21.2580  -34.1380    4.1750 C.ar  117  TRP117      0.0152
     81  NE1      -21.8660  -31.9830    4.2720 N.ar  117  TRP117     -0.2442
     82  CE2      -21.0300  -32.8610    3.6320 C.ar  117  TRP117      0.0810
     83  CE3      -20.5300  -35.2230    3.6790 C.ar  117  TRP117      0.0012
     84  CZ2      -20.1050  -32.6410    2.6050 C.ar  117  TRP117      0.0191
     85  CZ3      -19.6120  -35.0030    2.6610 C.ar  117  TRP117      0.0001
     86  CH2      -19.4070  -33.7250    2.1430 C.ar  117  TRP117      0.0015
     87  N        -17.8300  -32.5780    8.4910 N.3   121  MET121     -0.1245
     88  CA       -17.7890  -31.1380    8.2470 C.3   121  MET121      0.1570
     89  C        -17.2580  -30.3910    9.4720 C.2   121  MET121      0.2261
     90  O        -16.4760  -29.4410    9.3390 O.2   121  MET121     -0.2867
     91  CB       -19.1760  -30.6230    7.8520 C.3   121  MET121      0.0387
     92  CG       -19.5660  -30.9560    6.4020 C.3   121  MET121      0.0595
     93  SD       -18.5540  -30.1240    5.1290 S.3   121  MET121     -0.1393
     94  CE       -19.2510  -28.4740    5.1760 C.3   121  MET121      0.0692
     95  N        -13.4880  -30.7910    9.4350 N.3   124  TRP124     -0.1241
     96  CA       -12.8010  -30.0490    8.3920 C.3   124  TRP124      0.1605
     97  C        -12.8310  -28.5520    8.6730 C.2   124  TRP124      0.2264
     98  O        -11.8460  -27.8440    8.4290 O.2   124  TRP124     -0.2867
     99  CB       -13.4470  -30.3910    7.0470 C.3   124  TRP124      0.0550
    100  CG       -13.2540  -31.8680    6.6980 C.ar  124  TRP124      0.0003
    101  CD1      -12.2260  -32.6820    7.1060 C.ar  124  TRP124      0.0946
    102  CD2      -14.1110  -32.6860    5.8790 C.ar  124  TRP124      0.0152
    103  NE1      -12.3860  -33.9490    6.5740 N.ar  124  TRP124     -0.2442
    104  CE2      -13.5410  -33.9760    5.8280 C.ar  124  TRP124      0.0810
    105  CE3      -15.3120  -32.4530    5.1960 C.ar  124  TRP124      0.0012
    106  CZ2      -14.1260  -35.0320    5.1050 C.ar  124  TRP124      0.0191
    107  CZ3      -15.8930  -33.5130    4.4620 C.ar  124  TRP124      0.0001
    108  CH2      -15.2930  -34.7730    4.4260 C.ar  124  TRP124      0.0015
    109  N        -10.2260  -27.8310   11.3330 N.3   127  TYR127     -0.1227
    110  CA        -8.8870  -27.7970   10.7550 C.3   127  TYR127      0.1736
    111  C         -8.6650  -26.5010    9.9850 C.2   127  TYR127      0.2596
    112  O         -7.6120  -25.8680   10.1160 O.2   127  TYR127     -0.2718
    113  CB        -8.6710  -29.0040    9.8460 C.3   127  TYR127      0.0548
    114  CG        -7.3200  -28.9890    9.1740 C.ar  127  TYR127     -0.0200
    115  CD1       -6.1540  -29.1160    9.9150 C.ar  127  TYR127     -0.0009
    116  CD2       -7.2090  -28.8290    7.7960 C.ar  127  TYR127     -0.0009
    117  CE1       -4.9090  -29.0940    9.3050 C.ar  127  TYR127      0.0417
    118  CE2       -5.9690  -28.8090    7.1810 C.ar  127  TYR127      0.0417
    119  CZ        -4.8270  -28.9370    7.9370 C.ar  127  TYR127      0.1957
    120  OH        -3.5940  -28.9120    7.3100 O.3   127  TYR127     -0.2866
    121  N         -9.6530  -26.0840    9.1930 N.am  128  THR128     -0.1953
    122  CA        -9.5400  -24.8110    8.4790 C.3   128  THR128      0.1897
    123  C         -9.3000  -23.6620    9.4540 C.2   128  THR128      0.2313
    124  O         -8.4310  -22.8080    9.2340 O.2   128  THR128     -0.2863
    125  CB       -10.8030  -24.5340    7.6740 C.3   128  THR128      0.1794
    126  OG1      -10.9360  -25.5060    6.6360 O.3   128  THR128     -0.2208
    127  CG2      -10.7080  -23.1400    7.0160 C.3   128  THR128      0.0378
    128  N         -5.7830  -23.5840   10.8150 N.3   131  VAL131     -0.1245
    129  CA        -4.7820  -23.0620    9.8930 C.3   131  VAL131      0.1561
    130  C         -4.8890  -21.5460    9.7910 C.2   131  VAL131      0.2260
    131  O         -3.8700  -20.8430    9.8050 O.2   131  VAL131     -0.2867
    132  CB        -4.9020  -23.7350    8.5140 C.3   131  VAL131      0.0252
    133  CG1       -3.8760  -23.1260    7.5540 C.3   131  VAL131      0.0019
    134  CG2       -4.6770  -25.2480    8.6420 C.3   131  VAL131      0.0019
    135  N        -16.2730  -23.3580    4.1890 N.3   155  ASN155     -0.1240
    136  CA       -16.4950  -24.7870    3.9800 C.3   155  ASN155      0.1653
    137  C        -17.9070  -25.0620    3.4760 C.2   155  ASN155      0.2266
    138  O        -18.1000  -25.9430    2.6330 O.2   155  ASN155     -0.2867
    139  CB       -16.2100  -25.5460    5.2830 C.3   155  ASN155      0.1155
    140  CG       -14.7170  -25.8180    5.4880 C.2   155  ASN155      0.2627
    141  OD1      -14.2230  -26.8480    5.0940 O.2   155  ASN155     -0.2716
    142  ND2      -14.0050  -24.8840    6.0900 N.am  155  ASN155     -0.0877
    143  N        -17.9140  -24.2430   -0.1680 N.3   158  ASN158     -0.1225
    144  CA       -17.2980  -25.3120   -0.9550 C.3   158  ASN158      0.1785
    145  C        -18.2550  -26.4790   -1.1430 C.2   158  ASN158      0.2597
    146  O        -18.3380  -27.0540   -2.2340 O.2   158  ASN158     -0.2718
    147  CB       -16.0140  -25.8110   -0.2900 C.3   158  ASN158      0.1169
    148  CG       -14.8520  -24.8590   -0.4830 C.2   158  ASN158      0.2627
    149  OD1      -15.0460  -23.7060   -0.8700 O.2   158  ASN158     -0.2716
    150  ND2      -13.6390  -25.3340   -0.2210 N.am  158  ASN158     -0.0877
    151  N        -18.9520  -26.8720   -0.0780 N.am  159  GLU159     -0.1979
    152  CA       -19.9340  -27.9510   -0.1770 C.3   159  GLU159      0.1602
    153  C        -20.9760  -27.6430   -1.2430 C.2   159  GLU159      0.2287
    154  O        -21.1720  -28.4130   -2.1950 O.2   159  GLU159     -0.2864
    155  CB       -20.6070  -28.1620    1.1750 C.3   159  GLU159      0.0415
    156  CG       -21.7090  -29.2250    1.1440 C.3   159  GLU159      0.1163
    157  CD       -22.6300  -29.1550    2.3590 C.2   159  GLU159      0.3649
    158  OE1      -22.1430  -29.2320    3.5020 O.co2 159  GLU159     -0.2457
    159  OE2      -23.8600  -29.0340    2.1530 O.co2 159  GLU159     -0.2457
    160  N        -19.2570  -26.9850   -4.9770 N.3   162  LEU162     -0.1231
    161  CA       -18.6930  -28.1670   -5.6230 C.3   162  LEU162      0.1693
    162  C        -19.7950  -29.1190   -6.0480 C.2   162  LEU162      0.2592
    163  O        -19.8160  -29.5990   -7.1900 O.2   162  LEU162     -0.2718
    164  CB       -17.6980  -28.8660   -4.6930 C.3   162  LEU162      0.0284
    165  CG       -16.2730  -28.2730   -4.6320 C.3   162  LEU162      0.0019
    166  CD1      -15.4770  -28.8700   -3.4910 C.3   162  LEU162      0.0001
    167  CD2      -15.5260  -28.5030   -5.9130 C.3   162  LEU162      0.0001
    168  N        -20.7580  -29.3560   -5.1630 N.am  163  PHE163     -0.1976
    169  CA       -21.8370  -30.2830   -5.4880 C.3   163  PHE163      0.1639
    170  C        -22.7540  -29.7380   -6.5810 C.2   163  PHE163      0.2290
    171  O        -23.2500  -30.5110   -7.4110 O.2   163  PHE163     -0.2864
    172  CB       -22.6240  -30.6160   -4.2260 C.3   163  PHE163      0.0560
    173  CG       -21.8480  -31.4630   -3.2590 C.ar  163  PHE163     -0.0200
    174  CD1      -20.6490  -32.0300   -3.6480 C.ar  163  PHE163     -0.0042
    175  CD2      -22.3120  -31.7010   -1.9780 C.ar  163  PHE163     -0.0042
    176  CE1      -19.9250  -32.7990   -2.7850 C.ar  163  PHE163     -0.0003
    177  CE2      -21.5880  -32.4910   -1.1040 C.ar  163  PHE163     -0.0003
    178  CZ       -20.4070  -33.0530   -1.5140 C.ar  163  PHE163     -0.0000
    179  N        -11.3890  -17.9310   -0.9460 N.3   186  TRP186     -0.1241
    180  CA       -10.7370  -18.3140    0.3110 C.3   186  TRP186      0.1605
    181  C         -9.5670  -17.3830    0.6060 C.2   186  TRP186      0.2264
    182  O         -9.4430  -16.8430    1.7110 O.2   186  TRP186     -0.2867
    183  CB       -10.2490  -19.7690    0.2350 C.3   186  TRP186      0.0550
    184  CG       -11.2870  -20.8420    0.5590 C.ar  186  TRP186      0.0003
    185  CD1      -12.4730  -21.0790   -0.0930 C.ar  186  TRP186      0.0946
    186  CD2      -11.1830  -21.8410    1.5740 C.ar  186  TRP186      0.0152
    187  NE1      -13.1200  -22.1470    0.4860 N.ar  186  TRP186     -0.2442
    188  CE2      -12.3480  -22.6340    1.5060 C.ar  186  TRP186      0.0810
    189  CE3      -10.2170  -22.1430    2.5370 C.ar  186  TRP186      0.0012
    190  CZ2      -12.5710  -23.7030    2.3710 C.ar  186  TRP186      0.0191
    191  CZ3      -10.4450  -23.1990    3.4040 C.ar  186  TRP186      0.0001
    192  CH2      -11.6120  -23.9660    3.3140 C.ar  186  TRP186      0.0015
@<TRIPOS>BOND
     1   171   170    2
     2   163   162    2
     3   170   169    1
     4    65    64    2
     5   162   161    1
     6   162   168   am
     7    64    63    1
     8   167   165    1
     9   161   160    1
    10   161   164    1
    11   169   168    1
    12   169   172    1
    13   164   165    1
    14   165   166    1
    15    63    62    1
    16    63    66    1
    17   172   173    1
    18    54    53    2
    19    66    67    1
    20   174   173   ar
    21   174   176   ar
    22    53    52    1
    23   173   175   ar
    24    49    47    1
    25    46    45    2
    26   176   178   ar
    27    45    44    1
    28   146   145    2
    29    67    68   ar
    30    67    69   ar
    31   154   153    2
    32    47    44    1
    33    47    48    1
    34    52    51    1
    35    52    55    1
    36   175   177   ar
    37    68    70   ar
    38    44    43    1
    39    50    48    1
    40   178   177   ar
    41    69    71   ar
    42   153   152    1
    43   145   144    1
    44   145   151   am
    45    55    56    1
    46    27    28    2
    47    27    26    1
    48    17    18    1
    49   144   147    1
    50   144   143    1
    51   179   180    1
    52    43    41   am
    53   149   148    2
    54    39    40    1
    55   148   147    1
    56   148   150   am
    57    41    42    2
    58    41    40    1
    59    70    72   ar
    60   152   151    1
    61   152   155    1
    62   185   187   ar
    63   185   184   ar
    64    71    72   ar
    65    25    26    1
    66    25    19   am
    67    18    19    1
    68    18    21    1
    69    26    29    1
    70    19    20    2
    71    29    30    1
    72   183   180    1
    73   183   184    1
    74   180   181    1
    75    56    58   ar
    76    56    57   ar
    77   187   188   ar
    78   184   186   ar
    79   181   182    2
    80    16    14    1
    81    15    14    1
    82    58    60   ar
    83    57    59   ar
    84    14    13    1
    85   156   155    1
    86   156   157    1
    87    21    22    1
    88   188   186   ar
    89   188   190   ar
    90    30    31   ar
    91    30    32   ar
    92   186   189   ar
    93    31    33   ar
    94    86    84   ar
    95    86    85   ar
    96   159   157   ar
    97    60    61   ar
    98   157   158   ar
    99   190   192   ar
   100    59    61   ar
   101   189   191   ar
   102    84    82   ar
   103   138   137    2
   104    13    10    1
   105    22    23    1
   106    85    83   ar
   107    32    35   ar
   108    32    34   ar
   109    33    34   ar
   110    35    37   ar
   111     1     2    1
   112    10     9    1
   113    10    11    1
   114   192   191   ar
   115   137   136    1
   116    82    80   ar
   117    82    81   ar
   118    83    80   ar
   119    34    36   ar
   120     7     6    1
   121     2     5    1
   122     2     3    1
   123   136   135    1
   124   136   139    1
   125    80    78   ar
   126    81    79   ar
   127    23    24    1
   128     5     6    1
   129   108   107   ar
   130   108   106   ar
   131   107   105   ar
   132    11    12    2
   133    37    38   ar
   134     6     8    1
   135     3     4    2
   136   141   140    2
   137   106   104   ar
   138    93    94    1
   139    93    92    1
   140    36    38   ar
   141    78    79   ar
   142    78    77    1
   143   105   102   ar
   144   139   140    1
   145   140   142   am
   146   104   102   ar
   147   104   103   ar
   148   102   100   ar
   149    77    74    1
   150    92    91    1
   151   103   101   ar
   152   126   125    1
   153   100    99    1
   154   100   101   ar
   155   127   125    1
   156    74    73    1
   157    74    75    1
   158    99    96    1
   159   118   116   ar
   160   118   119   ar
   161   120   119    1
   162   133   132    1
   163   125   122    1
   164   116   114   ar
   165    91    88    1
   166   119   117   ar
   167    76    75    2
   168    88    87    1
   169    88    89    1
   170    96    97    1
   171    96    95    1
   172    98    97    2
   173   122   121    1
   174   122   123    1
   175   132   134    1
   176   132   129    1
   177   114   113    1
   178   114   115   ar
   179   121   111   am
   180   124   123    2
   181   117   115   ar
   182    90    89    2
   183   130   131    2
   184   130   129    1
   185   113   110    1
   186   129   128    1
   187   111   112    2
   188   111   110    1
   189   110   109    1
