@<TRIPOS>MOLECULE
tmp/5mysA00.pdb
 192 189 0 0 0
SMALL
GASTEIGER

@<TRIPOS>ATOM
      1  N        -35.4810   -6.7070   -3.2350 N.3    66  LEU66      -0.1245
      2  CA       -34.2230   -6.4280   -3.9150 C.3    66  LEU66       0.1561
      3  C        -34.4250   -5.4270   -5.0440 C.2    66  LEU66       0.2260
      4  O        -33.5970   -4.5300   -5.2410 O.2    66  LEU66      -0.2867
      5  CB       -33.6120   -7.7260   -4.4420 C.3    66  LEU66       0.0270
      6  CG       -32.1840   -7.6140   -4.9850 C.3    66  LEU66       0.0019
      7  CD1      -31.2290   -7.0750   -3.9290 C.3    66  LEU66       0.0001
      8  CD2      -31.7100   -8.9780   -5.4820 C.3    66  LEU66       0.0001
      9  N        -34.5690   -1.9790   -3.5250 N.3    69  LEU69      -0.1245
     10  CA       -33.2380   -1.5120   -3.1690 C.3    69  LEU69       0.1561
     11  C        -32.4570   -1.0890   -4.4040 C.2    69  LEU69       0.2260
     12  O        -31.7650   -0.0650   -4.3880 O.2    69  LEU69      -0.2867
     13  CB       -32.5020   -2.6210   -2.4180 C.3    69  LEU69       0.0270
     14  CG       -31.3890   -2.2720   -1.4450 C.3    69  LEU69       0.0019
     15  CD1      -31.8420   -1.2240   -0.4430 C.3    69  LEU69       0.0001
     16  CD2      -30.9260   -3.5490   -0.7540 C.3    69  LEU69       0.0001
     17  N        -23.4700   -1.2150    1.3530 N.3    81  MET81      -0.1182
     18  CA       -24.2850   -1.4440    0.1670 C.3    81  MET81       0.1917
     19  C        -24.5230   -2.9630    0.0390 C.2    81  MET81       0.2634
     20  O        -25.6240   -3.3890   -0.1220 O.2    81  MET81      -0.2714
     21  CB       -23.6350   -0.8930   -1.1320 C.2    81  MET81       0.0083
     22  CG       -24.0350   -1.5730   -2.4630 C.2    81  MET81       0.0282
     23  SD       -23.5420   -1.0340   -4.1620 S.3    81  MET81      -0.1125
     24  CE       -22.0200   -1.9120   -4.4470 C.3    81  MET81       0.0742
     25  N        -23.4640   -3.7590    0.0990 N.am   82  TRP82      -0.1973
     26  CA       -23.6350   -5.2070    0.0010 C.3    82  TRP82       0.1640
     27  C        -24.3940   -5.7530    1.2020 C.2    82  TRP82       0.2290
     28  O        -25.2030   -6.6770    1.0640 O.2    82  TRP82      -0.2864
     29  CB       -22.2750   -5.8870   -0.1470 C.3    82  TRP82       0.0576
     30  CG       -21.6600   -5.5980   -1.4800 C.ar   82  TRP82       0.0006
     31  CD1      -20.6210   -4.7510   -1.7400 C.ar   82  TRP82       0.0946
     32  CD2      -22.0650   -6.1450   -2.7480 C.ar   82  TRP82       0.0152
     33  NE1      -20.3480   -4.7400   -3.1000 N.ar   82  TRP82      -0.2442
     34  CE2      -21.2210   -5.5880   -3.7320 C.ar   82  TRP82       0.0810
     35  CE3      -23.0620   -7.0450   -3.1440 C.ar   82  TRP82       0.0012
     36  CZ2      -21.3400   -5.9040   -5.0960 C.ar   82  TRP82       0.0191
     37  CZ3      -23.1790   -7.3550   -4.5060 C.ar   82  TRP82       0.0001
     38  CH2      -22.3190   -6.7940   -5.4520 C.ar   82  TRP82       0.0015
     39  N        -28.0990   -5.4270    0.7510 N.3    85  GLY85      -0.1210
     40  CA       -28.6480   -6.3740   -0.2030 C.3    85  GLY85       0.1956
     41  C        -28.7330   -7.7840    0.3500 C.2    85  GLY85       0.2611
     42  O        -29.7590   -8.4520    0.2040 O.2    85  GLY85      -0.2717
     43  N        -27.6580   -8.2570    0.9960 N.am   86  ILE86      -0.1979
     44  CA       -27.7010   -9.5770    1.6170 C.3    86  ILE86       0.1595
     45  C        -28.7760   -9.6220    2.6860 C.2    86  ILE86       0.2287
     46  O        -29.4600  -10.6380    2.8540 O.2    86  ILE86      -0.2864
     47  CB       -26.3160   -9.9410    2.1880 C.3    86  ILE86       0.0276
     48  CG1      -25.3030   -9.9860    1.0360 C.3    86  ILE86       0.0022
     49  CG2      -26.3880  -11.2870    2.9170 C.3    86  ILE86       0.0022
     50  CD1      -23.8680  -10.1800    1.4970 C.3    86  ILE86       0.0001
     51  N        -32.2710  -10.9680    1.9220 N.3    89  PHE89      -0.1241
     52  CA       -32.4830  -12.4110    1.9660 C.3    89  PHE89       0.1605
     53  C        -32.4770  -12.9320    3.3930 C.2    89  PHE89       0.2264
     54  O        -33.3040  -13.7820    3.7510 O.2    89  PHE89      -0.2867
     55  CB       -31.4280  -13.0950    1.0920 C.3    89  PHE89       0.0534
     56  CG       -31.5640  -12.7180   -0.3380 C.ar   89  PHE89      -0.0203
     57  CD1      -32.4720  -13.3720   -1.1390 C.ar   89  PHE89      -0.0042
     58  CD2      -30.8770  -11.6310   -0.8520 C.ar   89  PHE89      -0.0042
     59  CE1      -32.6500  -12.9970   -2.4640 C.ar   89  PHE89      -0.0003
     60  CE2      -31.0520  -11.2500   -2.1710 C.ar   89  PHE89      -0.0003
     61  CZ       -31.9380  -11.9360   -2.9750 C.ar   89  PHE89      -0.0000
     62  N        -36.1790  -14.5770    4.1250 N.3    93  PHE93      -0.1241
     63  CA       -36.2590  -16.0130    4.3760 C.3    93  PHE93       0.1605
     64  C        -36.2290  -16.3110    5.8670 C.2    93  PHE93       0.2264
     65  O        -36.8710  -17.2670    6.3190 O.2    93  PHE93      -0.2867
     66  CB       -35.1390  -16.7470    3.6260 C.3    93  PHE93       0.0534
     67  CG       -35.3240  -16.7590    2.1390 C.ar   93  PHE93      -0.0203
     68  CD1      -36.2400  -17.6250    1.5550 C.ar   93  PHE93      -0.0042
     69  CD2      -34.5920  -15.9160    1.3270 C.ar   93  PHE93      -0.0042
     70  CE1      -36.4240  -17.6480    0.1820 C.ar   93  PHE93      -0.0003
     71  CE2      -34.7700  -15.9320   -0.0580 C.ar   93  PHE93      -0.0003
     72  CZ       -35.6890  -16.7930   -0.6240 C.ar   93  PHE93      -0.0000
     73  N        -36.9560  -22.3270   -7.7090 N.3   117  TRP117     -0.1241
     74  CA       -35.7230  -21.9170   -7.0530 C.3   117  TRP117      0.1605
     75  C        -34.6380  -21.5810   -8.0700 C.2   117  TRP117      0.2264
     76  O        -33.9430  -20.5650   -7.9340 O.2   117  TRP117     -0.2867
     77  CB       -35.2540  -23.0130   -6.1000 C.3   117  TRP117      0.0550
     78  CG       -34.1900  -22.5190   -5.2230 C.ar  117  TRP117      0.0003
     79  CD1      -32.8820  -22.8970   -5.2200 C.ar  117  TRP117      0.0946
     80  CD2      -34.3200  -21.4950   -4.2320 C.ar  117  TRP117      0.0152
     81  NE1      -32.1910  -22.1860   -4.2650 N.ar  117  TRP117     -0.2442
     82  CE2      -33.0540  -21.3180   -3.6480 C.ar  117  TRP117      0.0810
     83  CE3      -35.3890  -20.7190   -3.7760 C.ar  117  TRP117      0.0012
     84  CZ2      -32.8300  -20.3990   -2.6290 C.ar  117  TRP117      0.0191
     85  CZ3      -35.1650  -19.8110   -2.7650 C.ar  117  TRP117      0.0001
     86  CH2      -33.8970  -19.6560   -2.2070 C.ar  117  TRP117      0.0015
     87  N        -32.7080  -17.9960   -8.4680 N.3   121  MET121     -0.1245
     88  CA       -31.2620  -17.9730   -8.2600 C.3   121  MET121      0.1570
     89  C        -30.5390  -17.4330   -9.4910 C.2   121  MET121      0.2261
     90  O        -29.5840  -16.6570   -9.3710 O.2   121  MET121     -0.2867
     91  CB       -30.7540  -19.3690   -7.9010 C.3   121  MET121      0.0387
     92  CG       -31.1220  -19.8190   -6.4840 C.3   121  MET121      0.0595
     93  SD       -30.3030  -18.8180   -5.1940 S.3   121  MET121     -0.1393
     94  CE       -28.5830  -19.2320   -5.5130 C.3   121  MET121      0.0692
     95  N        -30.9730  -13.6460   -9.4450 N.3   124  TRP124     -0.1241
     96  CA       -30.2090  -12.9570   -8.4160 C.3   124  TRP124      0.1605
     97  C        -28.7180  -13.0080   -8.7030 C.2   124  TRP124      0.2264
     98  O        -28.0050  -12.0390   -8.4140 O.2   124  TRP124     -0.2867
     99  CB       -30.5460  -13.5530   -7.0440 C.3   124  TRP124      0.0550
    100  CG       -32.0040  -13.3380   -6.7000 C.ar  124  TRP124      0.0003
    101  CD1      -32.8080  -12.3280   -7.1470 C.ar  124  TRP124      0.0946
    102  CD2      -32.8300  -14.1610   -5.8550 C.ar  124  TRP124      0.0152
    103  NE1      -34.0780  -12.4580   -6.6230 N.ar  124  TRP124     -0.2442
    104  CE2      -34.1120  -13.5760   -5.8250 C.ar  124  TRP124      0.0810
    105  CE3      -32.6050  -15.3350   -5.1240 C.ar  124  TRP124      0.0012
    106  CZ2      -35.1770  -14.1260   -5.0980 C.ar  124  TRP124      0.0191
    107  CZ3      -33.6680  -15.8780   -4.3940 C.ar  124  TRP124      0.0001
    108  CH2      -34.9230  -15.2700   -4.3790 C.ar  124  TRP124      0.0015
    109  N        -27.9920  -10.4130  -11.3190 N.3   127  TYR127     -0.1227
    110  CA       -27.9380   -9.0730  -10.7490 C.3   127  TYR127      0.1736
    111  C        -26.6230   -8.8570  -10.0030 C.2   127  TYR127      0.2596
    112  O        -25.9730   -7.8170  -10.1560 O.2   127  TYR127     -0.2718
    113  CB       -29.1330   -8.8560   -9.8220 C.3   127  TYR127      0.0548
    114  CG       -29.1110   -7.5170   -9.1470 C.ar  127  TYR127     -0.0200
    115  CD1      -29.2950   -6.3540   -9.8680 C.ar  127  TYR127     -0.0009
    116  CD2      -28.8660   -7.4200   -7.7920 C.ar  127  TYR127     -0.0009
    117  CE1      -29.2610   -5.1250   -9.2550 C.ar  127  TYR127      0.0417
    118  CE2      -28.8420   -6.1930   -7.1700 C.ar  127  TYR127      0.0417
    119  CZ       -29.0270   -5.0560   -7.9050 C.ar  127  TYR127      0.1957
    120  OH       -28.9890   -3.8340   -7.2720 O.3   127  TYR127     -0.2866
    121  N        -26.2150   -9.8330   -9.1880 N.am  128  THR128     -0.1953
    122  CA       -24.9300   -9.7340   -8.5040 C.3   128  THR128      0.1897
    123  C        -23.8100   -9.4950   -9.4970 C.2   128  THR128      0.2313
    124  O        -22.9580   -8.6260   -9.2980 O.2   128  THR128     -0.2863
    125  CB       -24.6400  -11.0100   -7.7190 C.3   128  THR128      0.1794
    126  OG1      -25.6700  -11.2080   -6.7450 O.3   128  THR128     -0.2208
    127  CG2      -23.2770  -10.9080   -7.0180 C.3   128  THR128      0.0378
    128  N        -23.7500   -5.9570  -10.8460 N.3   131  VAL131     -0.1245
    129  CA       -23.2270   -4.9650   -9.9100 C.3   131  VAL131      0.1561
    130  C        -21.7130   -5.0730   -9.8180 C.2   131  VAL131      0.2260
    131  O        -21.0060   -4.0590   -9.8280 O.2   131  VAL131     -0.2867
    132  CB       -23.8830   -5.1210   -8.5280 C.3   131  VAL131      0.0252
    133  CG1      -23.2490   -4.1280   -7.5470 C.3   131  VAL131      0.0019
    134  CG2      -25.3940   -4.8770   -8.6250 C.3   131  VAL131      0.0019
    135  N        -23.5310  -16.4730   -4.2340 N.3   155  ASN155     -0.1240
    136  CA       -24.9570  -16.6780   -3.9950 C.3   155  ASN155      0.1653
    137  C        -25.2390  -18.0840   -3.4790 C.2   155  ASN155      0.2266
    138  O        -26.1200  -18.2620   -2.6350 O.2   155  ASN155     -0.2867
    139  CB       -25.7480  -16.3920   -5.2770 C.3   155  ASN155      0.1155
    140  CG       -26.0800  -14.9210   -5.4470 C.2   155  ASN155      0.2627
    141  OD1      -27.1300  -14.4650   -4.9990 O.2   155  ASN155     -0.2716
    142  ND2      -25.1860  -14.1670   -6.0740 N.am  155  ASN155     -0.0877
    143  N        -24.4360  -18.1150    0.1400 N.3   158  ASN158     -0.1225
    144  CA       -25.4830  -17.5090    0.9680 C.3   158  ASN158      0.1785
    145  C        -26.6560  -18.4560    1.1460 C.2   158  ASN158      0.2597
    146  O        -27.1950  -18.5910    2.2570 O.2   158  ASN158     -0.2718
    147  CB       -25.9760  -16.2060    0.3530 C.3   158  ASN158      0.1169
    148  CG       -25.0260  -15.0620    0.5590 C.2   158  ASN158      0.2627
    149  OD1      -23.8620  -15.2510    0.8860 O.2   158  ASN158     -0.2716
    150  ND2      -25.5150  -13.8550    0.3200 N.am  158  ASN158     -0.0877
    151  N        -27.0790  -19.1130    0.0580 N.am  159  GLU159     -0.1979
    152  CA       -28.1720  -20.0770    0.1510 C.3   159  GLU159      0.1602
    153  C        -27.8760  -21.1380    1.2050 C.2   159  GLU159      0.2287
    154  O        -28.6790  -21.3740    2.1190 O.2   159  GLU159     -0.2864
    155  CB       -28.3980  -20.7330   -1.2110 C.3   159  GLU159      0.0415
    156  CG       -29.4340  -21.8730   -1.1790 C.3   159  GLU159      0.1163
    157  CD       -29.3560  -22.7640   -2.4090 C.2   159  GLU159      0.3649
    158  OE1      -29.4010  -22.2290   -3.5270 O.co2 159  GLU159     -0.2457
    159  OE2      -29.2600  -24.0000   -2.2580 O.co2 159  GLU159     -0.2457
    160  N        -27.1440  -19.3520    4.9730 N.3   162  LEU162     -0.1231
    161  CA       -28.3420  -18.8330    5.6350 C.3   162  LEU162      0.1693
    162  C        -29.2580  -19.9720    6.0360 C.2   162  LEU162      0.2592
    163  O        -29.7670  -20.0010    7.1580 O.2   162  LEU162     -0.2718
    164  CB       -29.0840  -17.8580    4.7190 C.3   162  LEU162      0.0284
    165  CG       -28.3910  -16.5120    4.4780 C.3   162  LEU162      0.0019
    166  CD1      -29.1600  -15.7070    3.4430 C.3   162  LEU162      0.0001
    167  CD2      -28.2970  -15.7200    5.7730 C.3   162  LEU162      0.0001
    168  N        -29.4520  -20.9430    5.1450 N.am  163  PHE163     -0.1976
    169  CA       -30.4090  -21.9950    5.4550 C.3   163  PHE163      0.1639
    170  C        -29.8940  -22.9080    6.5680 C.2   163  PHE163      0.2290
    171  O        -30.6900  -23.3470    7.4150 O.2   163  PHE163     -0.2864
    172  CB       -30.7610  -22.7560    4.1690 C.3   163  PHE163      0.0560
    173  CG       -31.4890  -21.9020    3.1470 C.ar  163  PHE163     -0.0200
    174  CD1      -31.8950  -20.6080    3.4620 C.ar  163  PHE163     -0.0042
    175  CD2      -31.7730  -22.3890    1.8820 C.ar  163  PHE163     -0.0042
    176  CE1      -32.5540  -19.8160    2.5330 C.ar  163  PHE163     -0.0003
    177  CE2      -32.4420  -21.6010    0.9510 C.ar  163  PHE163     -0.0003
    178  CZ       -32.8320  -20.3170    1.2790 C.ar  163  PHE163     -0.0000
    179  N        -18.1470  -11.6070    0.9520 N.3   186  TRP186     -0.1241
    180  CA       -18.5070  -10.9240   -0.3020 C.3   186  TRP186      0.1605
    181  C        -17.5720   -9.7520   -0.5660 C.2   186  TRP186      0.2264
    182  O        -17.0380   -9.6020   -1.6730 O.2   186  TRP186     -0.2867
    183  CB       -19.9600  -10.4300   -0.2400 C.3   186  TRP186      0.0550
    184  CG       -21.0140  -11.4900   -0.5530 C.ar  186  TRP186      0.0003
    185  CD1      -21.2290  -12.6620    0.1190 C.ar  186  TRP186      0.0946
    186  CD2      -22.0190  -11.4220   -1.5710 C.ar  186  TRP186      0.0152
    187  NE1      -22.2940  -13.3460   -0.4490 N.ar  186  TRP186     -0.2442
    188  CE2      -22.7970  -12.5980   -1.4860 C.ar  186  TRP186      0.0810
    189  CE3      -22.3360  -10.4780   -2.5550 C.ar  186  TRP186      0.0012
    190  CZ2      -23.8560  -12.8620   -2.3500 C.ar  186  TRP186      0.0191
    191  CZ3      -23.4040  -10.7390   -3.4180 C.ar  186  TRP186      0.0001
    192  CH2      -24.1440  -11.9200   -3.3080 C.ar  186  TRP186      0.0015
@<TRIPOS>BOND
     1   109   110    1
     2   128   129    1
     3   110   111    1
     4   110   113    1
     5   112   111    2
     6   111   121   am
     7   129   130    1
     8   129   132    1
     9   115   117   ar
    10   115   114   ar
    11   131   130    2
    12   113   114    1
    13   123   124    2
    14   123   122    1
    15    89    90    2
    16    89    88    1
    17    95    96    1
    18   117   119   ar
    19   121   122    1
    20   114   116   ar
    21    97    96    1
    22    97    98    2
    23   134   132    1
    24   132   133    1
    25   122   125    1
    26    87    88    1
    27    96    99    1
    28    88    91    1
    29    75    76    2
    30    75    74    1
    31   119   120    1
    32   119   118   ar
    33    91    92    1
    34   116   118   ar
    35   125   127    1
    36   125   126    1
    37    73    74    1
    38   101   100   ar
    39   101   103   ar
    40    74    77    1
    41    99   100    1
    42   100   102   ar
    43   103   104   ar
    44    92    93    1
    45    77    78    1
    46   142   140   am
    47   102   104   ar
    48   102   105   ar
    49   104   106   ar
    50    94    93    1
    51     8     6    1
    52    38    36   ar
    53    38    37   ar
    54   140   139    1
    55   140   141    2
    56   139   136    1
    57     4     3    2
    58    78    79   ar
    59    78    80   ar
    60    79    81   ar
    61   105   107   ar
    62   106   108   ar
    63    36    34   ar
    64     3     2    1
    65     6     5    1
    66     6     7    1
    67    37    35   ar
    68    24    23    1
    69     5     2    1
    70    11    12    2
    71    11    10    1
    72   107   108   ar
    73    81    82   ar
    74   135   136    1
    75    80    83   ar
    76    80    82   ar
    77    23    22    1
    78   136   137    1
    79     2     1    1
    80    83    85   ar
    81    34    33   ar
    82    34    32   ar
    83    82    84   ar
    84   158   157   ar
    85     9    10    1
    86   137   138    2
    87   191   192   ar
    88   191   189   ar
    89   192   190   ar
    90    10    13    1
    91    35    32   ar
    92    33    31   ar
    93    61    59   ar
    94    61    60   ar
    95    85    86   ar
    96    32    30   ar
    97    84    86   ar
    98   189   186   ar
    99    59    57   ar
   100    22    21    2
   101    13    14    1
   102   157   159   ar
   103   157   156    1
   104   190   188   ar
   105    60    58   ar
   106    31    30   ar
   107   182   181    2
   108   186   188   ar
   109   186   184   ar
   110   188   187   ar
   111    30    29    1
   112    14    16    1
   113    14    15    1
   114   155   156    1
   115   155   152    1
   116    57    56   ar
   117    21    18    1
   118    58    56   ar
   119    72    71   ar
   120    72    70   ar
   121   181   180    1
   122   184   183    1
   123   184   185   ar
   124   187   185   ar
   125    56    55    1
   126   180   183    1
   127   180   179    1
   128    40    41    1
   129    40    39    1
   130    29    26    1
   131    20    19    2
   132    71    69   ar
   133    26    25    1
   134    26    27    1
   135    19    25   am
   136    19    18    1
   137   151   152    1
   138   151   145   am
   139   143   144    1
   140   152   153    1
   141    18    17    1
   142    70    68   ar
   143    42    41    2
   144   150   148   am
   145    41    43   am
   146   147   148    1
   147   147   144    1
   148   148   149    2
   149   177   178   ar
   150   177   175   ar
   151   144   145    1
   152    43    44    1
   153    48    50    1
   154    48    47    1
   155    28    27    2
   156    55    52    1
   157   145   146    2
   158   153   154    2
   159   178   176   ar
   160    69    67   ar
   161    68    67   ar
   162    44    47    1
   163    44    45    1
   164   175   173   ar
   165    51    52    1
   166    52    53    1
   167    67    66    1
   168    47    49    1
   169   176   174   ar
   170    45    46    2
   171   173   174   ar
   172   173   172    1
   173    53    54    2
   174   166   165    1
   175    66    63    1
   176    62    63    1
   177   172   169    1
   178    63    64    1
   179   165   164    1
   180   165   167    1
   181   164   161    1
   182   160   161    1
   183   168   169    1
   184   168   162   am
   185   169   170    1
   186   161   162    1
   187    64    65    2
   188   162   163    2
   189   170   171    2
