@<TRIPOS>MOLECULE
tmp/5mytA00.pdb
 210 207 0 0 0
SMALL
GASTEIGER

@<TRIPOS>ATOM
      1  N        -43.5970  -20.8290   -1.2210 N.3    55  LEU55      -0.1245
      2  CA       -42.2210  -20.5100   -1.5780 C.3    55  LEU55       0.1561
      3  C        -42.1780  -19.4510   -2.6660 C.2    55  LEU55       0.2260
      4  O        -41.3330  -18.5500   -2.6320 O.2    55  LEU55      -0.2867
      5  CB       -41.4940  -21.7730   -2.0270 C.3    55  LEU55       0.0270
      6  CG       -40.0060  -21.6100   -2.3200 C.3    55  LEU55       0.0019
      7  CD1      -39.2550  -21.1700   -1.0620 C.3    55  LEU55       0.0001
      8  CD2      -39.4520  -22.9150   -2.8630 C.3    55  LEU55       0.0001
      9  N        -39.9990  -15.9390   -2.3700 N.3    59  VAL59      -0.1245
     10  CA       -38.9020  -15.5420   -3.2560 C.3    59  VAL59       0.1561
     11  C        -39.2610  -14.2710   -4.0160 C.2    59  VAL59       0.2260
     12  O        -38.3970  -13.4170   -4.2500 O.2    59  VAL59      -0.2867
     13  CB       -38.4770  -16.6820   -4.2070 C.3    59  VAL59       0.0252
     14  CG1      -38.0800  -17.9280   -3.4150 C.3    59  VAL59       0.0019
     15  CG2      -39.5410  -16.9940   -5.2460 C.3    59  VAL59       0.0019
     16  N        -35.2650   -6.4820   -3.3780 N.3    66  LEU66      -0.1245
     17  CA       -34.0120   -6.1910   -4.0640 C.3    66  LEU66       0.1561
     18  C        -34.2240   -5.1910   -5.1970 C.2    66  LEU66       0.2260
     19  O        -33.4040   -4.2840   -5.3990 O.2    66  LEU66      -0.2867
     20  CB       -33.3990   -7.4860   -4.5980 C.3    66  LEU66       0.0270
     21  CG       -32.0130   -7.3550   -5.2260 C.3    66  LEU66       0.0019
     22  CD1      -31.0040   -6.7550   -4.2570 C.3    66  LEU66       0.0001
     23  CD2      -31.5240   -8.7190   -5.7020 C.3    66  LEU66       0.0001
     24  N        -23.2200   -0.8430    1.0690 N.3    81  MET81      -0.1230
     25  CA       -24.0550   -1.1910   -0.0790 C.3    81  MET81       0.1702
     26  C        -24.2760   -2.6990   -0.1540 C.2    81  MET81       0.2592
     27  O        -25.4100   -3.1630   -0.3200 O.2    81  MET81      -0.2718
     28  CB       -23.4230   -0.6750   -1.3800 C.3    81  MET81       0.0401
     29  CG       -24.1110   -1.1740   -2.6510 C.3    81  MET81       0.0596
     30  SD       -23.2820   -0.7170   -4.2070 S.3    81  MET81      -0.1393
     31  CE       -21.9390   -1.9100   -4.2650 C.3    81  MET81       0.0692
     32  N        -23.1980   -3.4830   -0.0290 N.am   82  TRP82      -0.1976
     33  CA       -23.3420   -4.9370   -0.0880 C.3    82  TRP82       0.1640
     34  C        -24.1000   -5.4700    1.1220 C.2    82  TRP82       0.2290
     35  O        -24.9180   -6.3940    0.9960 O.2    82  TRP82      -0.2864
     36  CB       -21.9700   -5.6020   -0.2020 C.3    82  TRP82       0.0576
     37  CG       -21.3340   -5.3280   -1.5340 C.ar   82  TRP82       0.0006
     38  CD1      -20.2970   -4.4880   -1.7840 C.ar   82  TRP82       0.0946
     39  CD2      -21.7420   -5.8600   -2.8020 C.ar   82  TRP82       0.0152
     40  NE1      -20.0070   -4.4830   -3.1430 N.ar   82  TRP82      -0.2442
     41  CE2      -20.8850   -5.3180   -3.7800 C.ar   82  TRP82       0.0810
     42  CE3      -22.7460   -6.7510   -3.2010 C.ar   82  TRP82       0.0012
     43  CZ2      -20.9980   -5.6390   -5.1340 C.ar   82  TRP82       0.0191
     44  CZ3      -22.8530   -7.0690   -4.5500 C.ar   82  TRP82       0.0001
     45  CH2      -21.9850   -6.5160   -5.4910 C.ar   82  TRP82       0.0015
     46  N        -27.8250   -5.0580    0.6870 N.3    85  GLY85      -0.1210
     47  CA       -28.3680   -6.0100   -0.2730 C.3    85  GLY85       0.1956
     48  C        -28.4610   -7.4250    0.2740 C.2    85  GLY85       0.2611
     49  O        -29.4930   -8.0860    0.1370 O.2    85  GLY85      -0.2717
     50  N        -27.3910   -7.9070    0.9150 N.am   86  ILE86      -0.1979
     51  CA       -27.4410   -9.2360    1.5180 C.3    86  ILE86       0.1595
     52  C        -28.5190   -9.2870    2.5940 C.2    86  ILE86       0.2287
     53  O        -29.2160  -10.2960    2.7500 O.2    86  ILE86      -0.2864
     54  CB       -26.0560   -9.6220    2.0750 C.3    86  ILE86       0.0276
     55  CG1      -25.0360   -9.7330    0.9350 C.3    86  ILE86       0.0022
     56  CG2      -26.1370  -10.9430    2.8670 C.3    86  ILE86       0.0022
     57  CD1      -23.5840   -9.7860    1.3940 C.3    86  ILE86       0.0001
     58  N        -32.0360  -10.6680    1.8440 N.3    89  PHE89      -0.1241
     59  CA       -32.2540  -12.1070    1.8890 C.3    89  PHE89       0.1605
     60  C        -32.2320  -12.6290    3.3120 C.2    89  PHE89       0.2264
     61  O        -33.0580  -13.4750    3.6740 O.2    89  PHE89      -0.2867
     62  CB       -31.2050  -12.7790    1.0170 C.3    89  PHE89       0.0534
     63  CG       -31.3480  -12.3800   -0.4040 C.ar   89  PHE89      -0.0203
     64  CD1      -32.2520  -13.0350   -1.2120 C.ar   89  PHE89      -0.0042
     65  CD2      -30.6750  -11.2750   -0.9020 C.ar   89  PHE89      -0.0042
     66  CE1      -32.4420  -12.6390   -2.5260 C.ar   89  PHE89      -0.0003
     67  CE2      -30.8690  -10.8660   -2.2220 C.ar   89  PHE89      -0.0003
     68  CZ       -31.7520  -11.5500   -3.0260 C.ar   89  PHE89      -0.0000
     69  N        -35.9690  -14.2330    4.0550 N.3    93  PHE93      -0.1241
     70  CA       -36.0080  -15.6650    4.3210 C.3    93  PHE93       0.1605
     71  C        -36.0050  -15.9470    5.8180 C.2    93  PHE93       0.2264
     72  O        -36.6590  -16.8910    6.2750 O.2    93  PHE93      -0.2867
     73  CB       -34.8320  -16.3600    3.6360 C.3    93  PHE93       0.0534
     74  CG       -34.9520  -16.4150    2.1400 C.ar   93  PHE93      -0.0203
     75  CD1      -35.9040  -17.2290    1.5390 C.ar   93  PHE93      -0.0042
     76  CD2      -34.1160  -15.6640    1.3410 C.ar   93  PHE93      -0.0042
     77  CE1      -36.0230  -17.2840    0.1500 C.ar   93  PHE93      -0.0003
     78  CE2      -34.2330  -15.7110   -0.0590 C.ar   93  PHE93      -0.0003
     79  CZ       -35.1860  -16.5120   -0.6400 C.ar   93  PHE93      -0.0000
     80  N        -36.5650  -22.2240   -7.7060 N.3   117  TRP117     -0.1241
     81  CA       -35.3010  -21.9000   -7.0540 C.3   117  TRP117      0.1605
     82  C        -34.2530  -21.4700   -8.0740 C.2   117  TRP117      0.2264
     83  O        -33.6110  -20.4190   -7.9300 O.2   117  TRP117     -0.2867
     84  CB       -34.8460  -23.1430   -6.2860 C.3   117  TRP117      0.0550
     85  CG       -33.9500  -22.9340   -5.1350 C.ar  117  TRP117      0.0003
     86  CD1      -32.6220  -22.6220   -5.1680 C.ar  117  TRP117      0.0946
     87  CD2      -34.2940  -23.0960   -3.7550 C.ar  117  TRP117      0.0152
     88  NE1      -32.1240  -22.5450   -3.8870 N.ar  117  TRP117     -0.2442
     89  CE2      -33.1300  -22.8420   -3.0020 C.ar  117  TRP117      0.0810
     90  CE3      -35.4790  -23.4180   -3.0820 C.ar  117  TRP117      0.0012
     91  CZ2      -33.1180  -22.8940   -1.6070 C.ar  117  TRP117      0.0191
     92  CZ3      -35.4650  -23.4680   -1.7000 C.ar  117  TRP117      0.0001
     93  CH2      -34.2920  -23.2050   -0.9780 C.ar  117  TRP117      0.0015
     94  N        -34.8690  -17.9200   -9.7860 N.3   120  PHE120     -0.1227
     95  CA       -34.5430  -16.7360   -9.0110 C.3   120  PHE120      0.1736
     96  C        -33.0610  -16.6580   -8.6760 C.2   120  PHE120      0.2595
     97  O        -32.5030  -15.5550   -8.6640 O.2   120  PHE120     -0.2718
     98  CB       -35.4440  -16.6730   -7.7750 C.3   120  PHE120      0.0547
     99  CG       -36.7930  -16.0970   -8.0960 C.ar  120  PHE120     -0.0202
    100  CD1      -37.8110  -16.9060   -8.6070 C.ar  120  PHE120     -0.0042
    101  CD2      -37.0070  -14.7300   -8.0180 C.ar  120  PHE120     -0.0042
    102  CE1      -39.0390  -16.3630   -8.9570 C.ar  120  PHE120     -0.0003
    103  CE2      -38.2340  -14.1810   -8.3730 C.ar  120  PHE120     -0.0003
    104  CZ       -39.2530  -15.0020   -8.8410 C.ar  120  PHE120     -0.0000
    105  N        -32.3880  -17.7930   -8.4530 N.am  121  MET121     -0.1979
    106  CA       -30.9450  -17.7230   -8.2380 C.3   121  MET121      0.1605
    107  C        -30.2300  -17.1980   -9.4750 C.2   121  MET121      0.2287
    108  O        -29.2900  -16.4040   -9.3550 O.2   121  MET121     -0.2864
    109  CB       -30.3680  -19.0810   -7.8410 C.3   121  MET121      0.0413
    110  CG       -30.6900  -19.4470   -6.4320 C.3   121  MET121      0.0598
    111  SD       -29.5980  -18.5990   -5.2610 S.3   121  MET121     -0.1393
    112  CE       -28.0050  -19.1550   -5.8620 C.3   121  MET121      0.0692
    113  N        -30.6930  -13.4250   -9.4150 N.3   124  TRP124     -0.1241
    114  CA       -29.9460  -12.7110   -8.4010 C.3   124  TRP124      0.1605
    115  C        -28.4540  -12.7730   -8.6730 C.2   124  TRP124      0.2264
    116  O        -27.7390  -11.8090   -8.3830 O.2   124  TRP124     -0.2867
    117  CB       -30.2990  -13.2840   -7.0320 C.3   124  TRP124      0.0550
    118  CG       -31.7570  -13.0640   -6.7260 C.ar  124  TRP124      0.0003
    119  CD1      -32.5590  -12.0800   -7.2280 C.ar  124  TRP124      0.0946
    120  CD2      -32.5850  -13.8510   -5.8550 C.ar  124  TRP124      0.0152
    121  NE1      -33.8270  -12.1890   -6.7020 N.ar  124  TRP124     -0.2442
    122  CE2      -33.8710  -13.2790   -5.8730 C.ar  124  TRP124      0.0810
    123  CE3      -32.3640  -14.9870   -5.0740 C.ar  124  TRP124      0.0012
    124  CZ2      -34.9390  -13.7980   -5.1270 C.ar  124  TRP124      0.0191
    125  CZ3      -33.4340  -15.5050   -4.3360 C.ar  124  TRP124      0.0001
    126  CH2      -34.6900  -14.9060   -4.3590 C.ar  124  TRP124      0.0015
    127  N        -27.7560  -10.1320  -11.3310 N.3   127  TYR127     -0.1227
    128  CA       -27.7120   -8.7970  -10.7490 C.3   127  TYR127      0.1736
    129  C        -26.4010   -8.5830   -9.9990 C.2   127  TYR127      0.2596
    130  O        -25.7430   -7.5460  -10.1610 O.2   127  TYR127     -0.2718
    131  CB       -28.9080   -8.5830   -9.8230 C.3   127  TYR127      0.0548
    132  CG       -28.8620   -7.2410   -9.1270 C.ar  127  TYR127     -0.0200
    133  CD1      -29.1380   -6.0740   -9.8200 C.ar  127  TYR127     -0.0009
    134  CD2      -28.5030   -7.1480   -7.7920 C.ar  127  TYR127     -0.0009
    135  CE1      -29.0820   -4.8430   -9.2010 C.ar  127  TYR127      0.0417
    136  CE2      -28.4520   -5.9160   -7.1580 C.ar  127  TYR127      0.0417
    137  CZ       -28.7380   -4.7730   -7.8710 C.ar  127  TYR127      0.1957
    138  OH       -28.6820   -3.5460   -7.2520 O.3   127  TYR127     -0.2866
    139  N        -25.9940   -9.5700   -9.1950 N.am  128  THR128     -0.1953
    140  CA       -24.7180   -9.4790   -8.4890 C.3   128  THR128      0.1897
    141  C        -23.5770   -9.2340   -9.4620 C.2   128  THR128      0.2313
    142  O        -22.7310   -8.3580   -9.2400 O.2   128  THR128     -0.2863
    143  CB       -24.4470  -10.7640   -7.7150 C.3   128  THR128      0.1794
    144  OG1      -25.4760  -10.9690   -6.7400 O.3   128  THR128     -0.2208
    145  CG2      -23.0770  -10.6640   -7.0050 C.3   128  THR128      0.0378
    146  N        -23.5260   -5.7000  -10.8180 N.3   131  VAL131     -0.1245
    147  CA       -22.9960   -4.7120   -9.8830 C.3   131  VAL131      0.1561
    148  C        -21.4770   -4.8300   -9.7910 C.2   131  VAL131      0.2260
    149  O        -20.7630   -3.8190   -9.7780 O.2   131  VAL131     -0.2867
    150  CB       -23.6710   -4.8590   -8.5090 C.3   131  VAL131      0.0252
    151  CG1      -23.0690   -3.8620   -7.5190 C.3   131  VAL131      0.0019
    152  CG2      -25.1820   -4.6280   -8.6520 C.3   131  VAL131      0.0019
    153  N        -23.3090  -16.2520   -4.2200 N.3   155  ASN155     -0.1240
    154  CA       -24.7310  -16.4980   -4.0040 C.3   155  ASN155      0.1653
    155  C        -24.9820  -17.9020   -3.4640 C.2   155  ASN155      0.2266
    156  O        -25.8460  -18.0890   -2.5910 O.2   155  ASN155     -0.2867
    157  CB       -25.5010  -16.2890   -5.3030 C.3   155  ASN155      0.1155
    158  CG       -25.9330  -14.8580   -5.4990 C.2   155  ASN155      0.2627
    159  OD1      -27.0890  -14.5280   -5.2540 O.2   155  ASN155     -0.2716
    160  ND2      -25.0160  -13.9970   -5.9580 N.am  155  ASN155     -0.0877
    161  N        -24.1900  -17.8780    0.1560 N.3   158  ASN158     -0.1225
    162  CA       -25.2410  -17.2580    0.9630 C.3   158  ASN158      0.1785
    163  C        -26.4190  -18.1960    1.1410 C.2   158  ASN158      0.2597
    164  O        -26.9860  -18.2890    2.2370 O.2   158  ASN158     -0.2718
    165  CB       -25.7210  -15.9610    0.3250 C.3   158  ASN158      0.1169
    166  CG       -24.7610  -14.8170    0.5270 C.2   158  ASN158      0.2627
    167  OD1      -23.6000  -15.0170    0.8810 O.2   158  ASN158     -0.2716
    168  ND2      -25.2460  -13.6020    0.3010 N.am  158  ASN158     -0.0877
    169  N        -26.8230  -18.8770    0.0690 N.am  159  GLU159     -0.1979
    170  CA       -27.9350  -19.8150    0.1780 C.3   159  GLU159      0.1602
    171  C        -27.6430  -20.8710    1.2370 C.2   159  GLU159      0.2287
    172  O        -28.4200  -21.0600    2.1880 O.2   159  GLU159     -0.2864
    173  CB       -28.2070  -20.4670   -1.1750 C.3   159  GLU159      0.0415
    174  CG       -29.3260  -21.5060   -1.1110 C.3   159  GLU159      0.1163
    175  CD       -29.0930  -22.6500   -2.0710 C.2   159  GLU159      0.3649
    176  OE1      -29.1730  -22.4170   -3.2900 O.co2 159  GLU159     -0.2457
    177  OE2      -28.8140  -23.7730   -1.6040 O.co2 159  GLU159     -0.2457
    178  N        -26.9050  -19.0880    4.9540 N.3   162  LEU162     -0.1231
    179  CA       -28.0920  -18.5310    5.5980 C.3   162  LEU162      0.1693
    180  C        -29.0160  -19.6380    6.0390 C.2   162  LEU162      0.2592
    181  O        -29.5150  -19.6380    7.1710 O.2   162  LEU162     -0.2718
    182  CB       -28.8370  -17.5890    4.6490 C.3   162  LEU162      0.0284
    183  CG       -28.1990  -16.2300    4.3830 C.3   162  LEU162      0.0019
    184  CD1      -29.0470  -15.4870    3.3410 C.3   162  LEU162      0.0001
    185  CD2      -28.1190  -15.4040    5.6550 C.3   162  LEU162      0.0001
    186  N        -29.2430  -20.6110    5.1630 N.am  163  PHE163     -0.1976
    187  CA       -30.2340  -21.6140    5.5120 C.3   163  PHE163      0.1639
    188  C        -29.7100  -22.5730    6.5830 C.2   163  PHE163      0.2290
    189  O        -30.4930  -23.0460    7.4100 O.2   163  PHE163     -0.2864
    190  CB       -30.7010  -22.3240    4.2460 C.3   163  PHE163      0.0560
    191  CG       -31.3690  -21.3860    3.2530 C.ar  163  PHE163     -0.0200
    192  CD1      -31.6650  -20.0720    3.6050 C.ar  163  PHE163     -0.0042
    193  CD2      -31.6900  -21.8110    1.9810 C.ar  163  PHE163     -0.0042
    194  CE1      -32.2670  -19.2010    2.7090 C.ar  163  PHE163     -0.0003
    195  CE2      -32.3030  -20.9500    1.0840 C.ar  163  PHE163     -0.0003
    196  CZ       -32.5870  -19.6480    1.4470 C.ar  163  PHE163     -0.0000
    197  N        -17.8830  -11.3210    0.9360 N.3   186  TRP186     -0.1241
    198  CA       -18.2410  -10.6590   -0.3230 C.3   186  TRP186      0.1605
    199  C        -17.3110   -9.4810   -0.5910 C.2   186  TRP186      0.2264
    200  O        -16.7690   -9.3390   -1.6930 O.2   186  TRP186     -0.2867
    201  CB       -19.6950  -10.1690   -0.2750 C.3   186  TRP186      0.0550
    202  CG       -20.7340  -11.2180   -0.5680 C.ar  186  TRP186      0.0003
    203  CD1      -20.9240  -12.4110    0.0850 C.ar  186  TRP186      0.0946
    204  CD2      -21.7570  -11.1370   -1.5630 C.ar  186  TRP186      0.0152
    205  NE1      -21.9870  -13.0920   -0.4770 N.ar  186  TRP186     -0.2442
    206  CE2      -22.5200  -12.3270   -1.4820 C.ar  186  TRP186      0.0810
    207  CE3      -22.1050  -10.1710   -2.5200 C.ar  186  TRP186      0.0012
    208  CZ2      -23.5960  -12.5900   -2.3550 C.ar  186  TRP186      0.0191
    209  CZ3      -23.1840  -10.4310   -3.3840 C.ar  186  TRP186      0.0001
    210  CH2      -23.9150  -11.6260   -3.2880 C.ar  186  TRP186      0.0015
@<TRIPOS>BOND
     1   127   128    1
     2   146   147    1
     3   128   129    1
     4   128   131    1
     5   130   129    2
     6   129   139   am
     7   147   148    1
     8   147   150    1
     9   131   132    1
    10   133   135   ar
    11   133   132   ar
    12   148   149    2
    13    94    95    1
    14   107   108    2
    15   107   106    1
    16   141   142    2
    17   141   140    1
    18   113   114    1
    19   135   137   ar
    20   139   140    1
    21   132   134   ar
    22    95    96    1
    23    95    98    1
    24   102   104   ar
    25   102   100   ar
    26   104   103   ar
    27    96    97    2
    28    96   105   am
    29   115   114    1
    30   115   116    2
    31   152   150    1
    32   100    99   ar
    33   150   151    1
    34   140   143    1
    35   105   106    1
    36   114   117    1
    37   103   101   ar
    38   106   109    1
    39    99   101   ar
    40    99    98    1
    41    82    83    2
    42    82    81    1
    43   137   138    1
    44   137   136   ar
    45   109   110    1
    46   134   136   ar
    47   143   145    1
    48   143   144    1
    49    80    81    1
    50   119   118   ar
    51   119   121   ar
    52    81    84    1
    53   117   118    1
    54   118   120   ar
    55   121   122   ar
    56   110   111    1
    57    84    85    1
    58   160   158   am
    59   122   120   ar
    60   122   124   ar
    61   112   111    1
    62   120   123   ar
    63    23    21    1
    64   158   157    1
    65   158   159    2
    66    45    43   ar
    67    45    44   ar
    68    19    18    2
    69   157   154    1
    70    15    13    1
    71    21    20    1
    72    21    22    1
    73    18    17    1
    74    86    85   ar
    75    86    88   ar
    76    85    87   ar
    77    43    41   ar
    78   124   126   ar
    79   123   125   ar
    80    20    17    1
    81    44    42   ar
    82   126   125   ar
    83    31    30    1
    84    12    11    2
    85   153   154    1
    86    13    14    1
    87    13    10    1
    88    30    29    1
    89    17    16    1
    90    11    10    1
    91   154   155    1
    92    88    89   ar
    93    41    40   ar
    94    41    39   ar
    95    87    90   ar
    96    87    89   ar
    97   155   156    2
    98   209   210   ar
    99   209   207   ar
   100   176   175   ar
   101   210   208   ar
   102    10     9    1
   103    42    39   ar
   104    40    38   ar
   105    90    92   ar
   106    68    66   ar
   107    68    67   ar
   108    89    91   ar
   109     8     6    1
   110    39    37   ar
   111     3     4    2
   112     3     2    1
   113    29    28    1
   114    66    64   ar
   115   207   204   ar
   116   208   206   ar
   117     6     5    1
   118     6     7    1
   119    67    65   ar
   120   175   177   ar
   121   175   174    1
   122     5     2    1
   123    38    37   ar
   124    92    93   ar
   125   200   199    2
   126    91    93   ar
   127     2     1    1
   128   204   206   ar
   129   204   202   ar
   130    37    36    1
   131   206   205   ar
   132    28    25    1
   133    64    63   ar
   134   173   174    1
   135   173   170    1
   136    65    63   ar
   137    79    78   ar
   138    79    77   ar
   139   199   198    1
   140   202   201    1
   141   202   203   ar
   142   205   203   ar
   143    63    62    1
   144   198   201    1
   145   198   197    1
   146    27    26    2
   147    47    48    1
   148    47    46    1
   149    36    33    1
   150    26    25    1
   151    26    32   am
   152    33    32    1
   153    33    34    1
   154    25    24    1
   155    78    76   ar
   156   169   170    1
   157   169   163   am
   158    49    48    2
   159    77    75   ar
   160   161   162    1
   161   170   171    1
   162    48    50   am
   163   168   166   am
   164   165   166    1
   165   165   162    1
   166   166   167    2
   167    50    51    1
   168    55    57    1
   169    55    54    1
   170   162   163    1
   171    35    34    2
   172    62    59    1
   173   195   196   ar
   174   195   193   ar
   175   163   164    2
   176   171   172    2
   177    76    74   ar
   178   196   194   ar
   179    51    54    1
   180    51    52    1
   181    75    74   ar
   182    58    59    1
   183    59    60    1
   184   193   191   ar
   185    54    56    1
   186    74    73    1
   187    52    53    2
   188   194   192   ar
   189   191   192   ar
   190   191   190    1
   191    60    61    2
   192   184   183    1
   193    73    70    1
   194    69    70    1
   195   190   187    1
   196    70    71    1
   197   183   182    1
   198   183   185    1
   199   182   179    1
   200   178   179    1
   201   186   187    1
   202   186   180   am
   203   187   188    1
   204   179   180    1
   205    71    72    2
   206   180   181    2
   207   188   189    2
