@<TRIPOS>MOLECULE
tmp/5mywA00.pdb
 143 140 0 0 0
SMALL
GASTEIGER

@<TRIPOS>ATOM
      1  N         -6.5160  -35.4110    3.2360 N.3    66  LEU66      -0.1245
      2  CA        -6.2670  -34.1390    3.9010 C.3    66  LEU66       0.1561
      3  C         -5.2740  -34.3040    5.0470 C.2    66  LEU66       0.2260
      4  O         -4.3890  -33.4590    5.2350 O.2    66  LEU66      -0.2867
      5  CB        -7.5830  -33.5540    4.4100 C.3    66  LEU66       0.0270
      6  CG        -7.5410  -32.0490    4.6460 C.3    66  LEU66       0.0019
      7  CD1       -7.3650  -31.3590    3.2980 C.3    66  LEU66       0.0001
      8  CD2       -8.8110  -31.5800    5.3390 C.3    66  LEU66       0.0001
      9  N         -1.7770  -34.4650    3.5840 N.3    69  LEU69      -0.1231
     10  CA        -1.3240  -33.1230    3.2510 C.3    69  LEU69       0.1693
     11  C         -0.8790  -32.3690    4.4940 C.2    69  LEU69       0.2591
     12  O          0.1620  -31.7010    4.4900 O.2    69  LEU69      -0.2718
     13  CB        -2.4590  -32.3740    2.5540 C.3    69  LEU69       0.0284
     14  CG        -2.1150  -31.4720    1.3820 C.3    69  LEU69       0.0019
     15  CD1       -1.2700  -32.2200    0.3710 C.3    69  LEU69       0.0001
     16  CD2       -3.4050  -30.9620    0.7590 C.3    69  LEU69       0.0001
     17  N         -1.6790  -32.4440    5.5650 N.am   70  ALA70      -0.1980
     18  CA        -1.3780  -31.6870    6.7760 C.3    70  ALA70       0.1597
     19  C         -0.0500  -32.1090    7.3870 C.2    70  ALA70       0.2287
     20  O          0.6360  -31.2900    8.0060 O.2    70  ALA70      -0.2864
     21  CB        -2.5070  -31.8490    7.7950 C.3    70  ALA70       0.0319
     22  N          3.6650  -30.5910    4.6070 N.3    73  PRO73      -0.2116
     23  CA         3.5840  -29.2950    3.9220 C.3    73  PRO73       0.1372
     24  C          4.3150  -29.2860    2.5890 C.2    73  PRO73       0.2244
     25  O          5.4430  -29.7800    2.4830 O.2    73  PRO73      -0.2868
     26  CB         4.2400  -28.3230    4.9150 C.3    73  PRO73       0.0268
     27  CG         4.4520  -29.1020    6.2050 C.3    73  PRO73       0.0207
     28  CD         3.7600  -30.4270    6.0670 C.3    73  PRO73       0.0892
     29  N         -1.0020  -23.4560   -1.2030 N.3    81  MET81      -0.1182
     30  CA        -1.2920  -24.2790   -0.0400 C.3    81  MET81       0.1917
     31  C         -2.8010  -24.4750    0.0660 C.2    81  MET81       0.2634
     32  O         -3.2630  -25.5620    0.2350 O.2    81  MET81      -0.2714
     33  CB        -0.7190  -23.6840    1.2680 C.2    81  MET81       0.0083
     34  CG        -1.5030  -23.9750    2.5590 C.2    81  MET81       0.0282
     35  SD        -1.0200  -23.3610    4.2220 S.3    81  MET81      -0.1125
     36  CE        -1.5440  -21.6710    4.1680 C.3    81  MET81       0.0742
     37  N         -3.5550  -23.3920   -0.0290 N.am   82  TRP82      -0.1973
     38  CA        -5.0090  -23.5170    0.0380 C.3    82  TRP82       0.1640
     39  C         -5.5500  -24.2740   -1.1690 C.2    82  TRP82       0.2290
     40  O         -6.4390  -25.1270   -1.0360 O.2    82  TRP82      -0.2864
     41  CB        -5.6440  -22.1300    0.1540 C.3    82  TRP82       0.0576
     42  CG        -5.3480  -21.4930    1.4880 C.ar   82  TRP82       0.0006
     43  CD1       -4.4840  -20.4680    1.7390 C.ar   82  TRP82       0.0946
     44  CD2       -5.9000  -21.8780    2.7570 C.ar   82  TRP82       0.0152
     45  NE1       -4.4790  -20.1760    3.0940 N.ar   82  TRP82      -0.2442
     46  CE2       -5.3310  -21.0390    3.7340 C.ar   82  TRP82       0.0810
     47  CE3       -6.8200  -22.8530    3.1530 C.ar   82  TRP82       0.0012
     48  CZ2       -5.6700  -21.1250    5.0940 C.ar   82  TRP82       0.0191
     49  CZ3       -7.1380  -22.9520    4.5170 C.ar   82  TRP82       0.0001
     50  CH2       -6.5680  -22.0910    5.4560 C.ar   82  TRP82       0.0015
     51  N         -5.2380  -28.0050   -0.8280 N.3    85  GLY85      -0.1210
     52  CA        -6.1680  -28.5570    0.1360 C.3    85  GLY85       0.1956
     53  C         -7.5770  -28.6460   -0.4040 C.2    85  GLY85       0.2611
     54  O         -8.2230  -29.6930   -0.2950 O.2    85  GLY85      -0.2717
     55  N         -8.0670  -27.5520   -0.9920 N.am   86  ILE86      -0.1979
     56  CA        -9.3880  -27.5770   -1.6100 C.3    86  ILE86       0.1595
     57  C         -9.4420  -28.6420   -2.6980 C.2    86  ILE86       0.2287
     58  O        -10.4600  -29.3220   -2.8790 O.2    86  ILE86      -0.2864
     59  CB        -9.7370  -26.1790   -2.1520 C.3    86  ILE86       0.0276
     60  CG1       -9.8710  -25.1730   -0.9930 C.3    86  ILE86       0.0022
     61  CG2      -10.9990  -26.2260   -2.9990 C.3    86  ILE86       0.0022
     62  CD1       -9.9880  -23.7560   -1.4360 C.3    86  ILE86       0.0001
     63  N        -10.7850  -32.2130   -1.9130 N.3    89  PHE89      -0.1241
     64  CA       -12.2230  -32.4260   -1.9800 C.3    89  PHE89       0.1605
     65  C        -12.7040  -32.4340   -3.4190 C.2    89  PHE89       0.2264
     66  O        -13.5320  -33.2700   -3.8000 O.2    89  PHE89      -0.2867
     67  CB       -12.9320  -31.3520   -1.1560 C.3    89  PHE89       0.0534
     68  CG       -12.5780  -31.4170    0.2980 C.ar   89  PHE89      -0.0203
     69  CD1      -13.1510  -32.3810    1.1160 C.ar   89  PHE89      -0.0042
     70  CD2      -11.6290  -30.5650    0.8380 C.ar   89  PHE89      -0.0042
     71  CE1      -12.7980  -32.4740    2.4470 C.ar   89  PHE89      -0.0003
     72  CE2      -11.2880  -30.6540    2.1690 C.ar   89  PHE89      -0.0003
     73  CZ       -11.8680  -31.6080    2.9690 C.ar   89  PHE89      -0.0000
     74  N        -13.3530  -30.6990    9.4800 N.3   124  TRP124     -0.1241
     75  CA       -12.6460  -29.9330    8.4660 C.3   124  TRP124      0.1605
     76  C        -12.7180  -28.4420    8.7540 C.2   124  TRP124      0.2264
     77  O        -11.7600  -27.7090    8.4850 O.2   124  TRP124     -0.2867
     78  CB       -13.2300  -30.2650    7.0860 C.3   124  TRP124      0.0550
     79  CG       -13.0520  -31.7180    6.7460 C.ar  124  TRP124      0.0003
     80  CD1      -12.0590  -32.5410    7.1980 C.ar  124  TRP124      0.0946
     81  CD2      -13.8940  -32.5320    5.9000 C.ar  124  TRP124      0.0152
     82  NE1      -12.2230  -33.8040    6.6910 N.ar  124  TRP124     -0.2442
     83  CE2      -13.3340  -33.8280    5.8830 C.ar  124  TRP124      0.0810
     84  CE3      -15.0590  -32.2900    5.1570 C.ar  124  TRP124      0.0012
     85  CZ2      -13.8990  -34.8850    5.1490 C.ar  124  TRP124      0.0191
     86  CZ3      -15.6160  -33.3440    4.4180 C.ar  124  TRP124      0.0001
     87  CH2      -15.0330  -34.6210    4.4250 C.ar  124  TRP124      0.0015
     88  N        -10.1190  -27.7370   11.4400 N.3   127  TYR127     -0.1227
     89  CA        -8.7560  -27.6820   10.9210 C.3   127  TYR127      0.1736
     90  C         -8.5210  -26.3890   10.1390 C.2   127  TYR127      0.2596
     91  O         -7.4780  -25.7420   10.2960 O.2   127  TYR127     -0.2718
     92  CB        -8.4690  -28.9000   10.0500 C.3   127  TYR127      0.0548
     93  CG        -7.0610  -28.8820    9.4940 C.ar  127  TYR127     -0.0200
     94  CD1       -5.9660  -29.1580   10.3040 C.ar  127  TYR127     -0.0009
     95  CD2       -6.8280  -28.5640    8.1590 C.ar  127  TYR127     -0.0009
     96  CE1       -4.6740  -29.1260    9.7980 C.ar  127  TYR127      0.0417
     97  CE2       -5.5520  -28.5280    7.6490 C.ar  127  TYR127      0.0417
     98  CZ        -4.4790  -28.8080    8.4660 C.ar  127  TYR127      0.1957
     99  OH        -3.2100  -28.7640    7.9410 O.3   127  TYR127     -0.2866
    100  N         -9.4780  -26.0040    9.2940 N.am  128  THR128     -0.1953
    101  CA        -9.3900  -24.7320    8.5730 C.3   128  THR128      0.1897
    102  C         -9.1960  -23.5730    9.5340 C.2   128  THR128      0.2313
    103  O         -8.3430  -22.7020    9.3280 O.2   128  THR128     -0.2863
    104  CB       -10.6580  -24.4870    7.7570 C.3   128  THR128      0.1794
    105  OG1      -10.7950  -25.5030    6.7740 O.3   128  THR128     -0.2208
    106  CG2      -10.5740  -23.1140    7.0450 C.3   128  THR128      0.0378
    107  N         -5.6630  -23.4190   10.9290 N.3   131  VAL131     -0.1245
    108  CA        -4.6700  -22.8940    9.9980 C.3   131  VAL131      0.1561
    109  C         -4.7770  -21.3770    9.9070 C.2   131  VAL131      0.2260
    110  O         -3.7630  -20.6650    9.9450 O.2   131  VAL131     -0.2867
    111  CB        -4.8200  -23.5660    8.6200 C.3   131  VAL131      0.0252
    112  CG1       -3.8460  -22.9400    7.6330 C.3   131  VAL131      0.0019
    113  CG2       -4.5480  -25.0800    8.7430 C.3   131  VAL131      0.0019
    114  N        -16.1740  -23.2890    4.1880 N.3   155  ASN155     -0.1240
    115  CA       -16.4060  -24.7090    3.9560 C.3   155  ASN155      0.1653
    116  C        -17.8260  -24.9720    3.4610 C.2   155  ASN155      0.2266
    117  O        -18.0370  -25.8430    2.6150 O.2   155  ASN155     -0.2867
    118  CB       -16.1090  -25.4820    5.2430 C.3   155  ASN155      0.1155
    119  CG       -14.6240  -25.7190    5.4280 C.2   155  ASN155      0.2627
    120  OD1      -13.9260  -24.9750    6.1220 O.2   155  ASN155     -0.2716
    121  ND2      -14.1170  -26.7130    4.7170 N.am  155  ASN155     -0.0877
    122  N        -17.8150  -24.2000   -0.1980 N.3   158  ASN158     -0.1240
    123  CA       -17.2160  -25.2670   -0.9940 C.3   158  ASN158      0.1653
    124  C        -18.1750  -26.4320   -1.1680 C.2   158  ASN158      0.2266
    125  O        -18.2960  -26.9890   -2.2650 O.2   158  ASN158     -0.2867
    126  CB       -15.9250  -25.7630   -0.3540 C.3   158  ASN158      0.1155
    127  CG       -14.7870  -24.7890   -0.5070 C.2   158  ASN158      0.2627
    128  OD1      -14.9870  -23.6600   -0.9030 O.2   158  ASN158     -0.2716
    129  ND2      -13.5850  -25.2230   -0.1580 N.am  158  ASN158     -0.0877
    130  N        -11.3610  -17.9320   -0.9300 N.3   186  TRP186     -0.1241
    131  CA       -10.6700  -18.2850    0.3160 C.3   186  TRP186      0.1605
    132  C         -9.5110  -17.3320    0.5820 C.2   186  TRP186      0.2264
    133  O         -9.3730  -16.7890    1.6900 O.2   186  TRP186     -0.2867
    134  CB       -10.1480  -19.7270    0.2580 C.3   186  TRP186      0.0550
    135  CG       -11.1940  -20.7800    0.5600 C.ar  186  TRP186      0.0003
    136  CD1      -12.3670  -21.0100   -0.1170 C.ar  186  TRP186      0.0946
    137  CD2      -11.1340  -21.7560    1.5970 C.ar  186  TRP186      0.0152
    138  NE1      -13.0440  -22.0720    0.4480 N.ar  186  TRP186     -0.2442
    139  CE2      -12.3020  -22.5530    1.4980 C.ar  186  TRP186      0.0810
    140  CE3      -10.2070  -22.0340    2.6120 C.ar  186  TRP186      0.0012
    141  CZ2      -12.5710  -23.5970    2.3940 C.ar  186  TRP186      0.0191
    142  CZ3      -10.4690  -23.0760    3.4800 C.ar  186  TRP186      0.0001
    143  CH2      -11.6410  -23.8440    3.3670 C.ar  186  TRP186      0.0015
@<TRIPOS>BOND
     1    66    65    2
     2    65    64    1
     3    61    59    1
     4    58    57    2
     5    57    56    1
     6   125   124    2
     7    59    56    1
     8    59    60    1
     9    64    63    1
    10    64    67    1
    11    56    55    1
    12    62    60    1
    13    29    30    1
    14    39    40    2
    15    39    38    1
    16   124   123    1
    17    67    68    1
    18   123   126    1
    19   123   122    1
    20    55    53   am
    21   130   131    1
    22   128   127    2
    23    51    52    1
    24   127   126    1
    25   127   129   am
    26    53    54    2
    27    53    52    1
    28   136   138   ar
    29   136   135   ar
    30    30    31    1
    31    30    33    1
    32    37    38    1
    33    37    31   am
    34    38    41    1
    35    31    32    2
    36    41    42    1
    37   134   131    1
    38   134   135    1
    39    68    70   ar
    40    68    69   ar
    41   131   132    1
    42    15    14    1
    43   138   139   ar
    44   135   137   ar
    45   132   133    2
    46    16    14    1
    47    70    72   ar
    48    69    71   ar
    49    33    34    2
    50    14    13    1
    51    42    43   ar
    52    42    44   ar
    53   139   137   ar
    54   139   141   ar
    55   137   140   ar
    56    43    45   ar
    57    72    73   ar
    58   141   143   ar
    59    71    73   ar
    60    25    24    2
    61    13    10    1
    62    34    35    1
    63    24    23    1
    64   140   142   ar
    65   117   116    2
    66    44    47   ar
    67    44    46   ar
    68    45    46   ar
    69    47    49   ar
    70     1     2    1
    71    10     9    1
    72    10    11    1
    73     7     6    1
    74   143   142   ar
    75   116   115    1
    76    46    48   ar
    77     2     5    1
    78     2     3    1
    79    23    22    1
    80    23    26    1
    81   115   114    1
    82   115   118    1
    83    36    35    1
    84     5     6    1
    85    86    87   ar
    86    86    84   ar
    87    87    85   ar
    88    12    11    2
    89    11    17   am
    90    49    50   ar
    91    22    28    1
    92     6     8    1
    93   121   119   am
    94    26    27    1
    95     3     4    2
    96    48    50   ar
    97    85    83   ar
    98    84    81   ar
    99   118   119    1
   100   119   120    2
   101    17    18    1
   102    83    81   ar
   103    83    82   ar
   104    81    79   ar
   105    28    27    1
   106    82    80   ar
   107    79    78    1
   108    79    80   ar
   109   105   104    1
   110    18    19    1
   111    18    21    1
   112   106   104    1
   113    78    75    1
   114    19    20    2
   115   112   111    1
   116    97    95   ar
   117    97    98   ar
   118   104   101    1
   119    99    98    1
   120    95    93   ar
   121    75    76    1
   122    75    74    1
   123    98    96   ar
   124    77    76    2
   125   101   100    1
   126   101   102    1
   127   111   113    1
   128   111   108    1
   129   100    90   am
   130   103   102    2
   131    93    92    1
   132    93    94   ar
   133    96    94   ar
   134   109   110    2
   135   109   108    1
   136   108   107    1
   137    92    89    1
   138    90    91    2
   139    90    89    1
   140    89    88    1
