@<TRIPOS>MOLECULE
tmp/5mz3A00.pdb
 201 190 0 0 0
SMALL
GASTEIGER

@<TRIPOS>ATOM
      1  N          0.9550  -32.9510   40.2740 N.3    27  VAL27      -0.1231
      2  CA         1.9280  -32.9290   39.1710 C.3    27  VAL27       0.1692
      3  C          2.1150  -31.5140   38.5940 C.2    27  VAL27       0.2592
      4  O          3.0200  -31.2960   37.7830 O.2    27  VAL27      -0.2718
      5  CB         1.6780  -33.9860   38.0480 C.3    27  VAL27       0.0266
      6  CG1        1.7470  -35.4150   38.5840 C.3    27  VAL27       0.0020
      7  CG2        0.3740  -33.7440   37.3080 C.3    27  VAL27       0.0020
      8  N          1.2640  -30.5770   38.9960 N.am   28  GLY28      -0.1957
      9  CA         1.3610  -29.2170   38.4860 C.3    28  GLY28       0.1869
     10  C          0.2970  -28.2870   39.0010 C.2    28  GLY28       0.2309
     11  O         -0.8070  -28.7180   39.3470 O.2    28  GLY28      -0.2863
     12  N         -3.2410  -29.8820   38.7560 N.3    35  VAL35      -0.1245
     13  CA        -3.2930  -31.1860   38.1010 C.3    35  VAL35       0.1561
     14  C         -2.7350  -32.2500   39.0210 C.2    35  VAL35       0.2260
     15  O         -1.7050  -32.0330   39.6490 O.2    35  VAL35      -0.2867
     16  CB        -2.5900  -31.1910   36.7040 C.3    35  VAL35       0.0252
     17  CG1       -2.7740  -32.5290   35.9860 C.3    35  VAL35       0.0019
     18  CG2       -3.0880  -30.0450   35.8230 C.3    35  VAL35       0.0019
     19  N         -4.6910  -38.0120   34.3150 N.3    48  ALA48      -0.1231
     20  CA        -4.4080  -36.6640   34.8050 C.3    48  ALA48       0.1694
     21  C         -5.7770  -36.0150   35.0430 C.2    48  ALA48       0.2592
     22  O         -6.6340  -36.0140   34.1590 O.2    48  ALA48      -0.2718
     23  CB        -3.6170  -35.8570   33.7760 C.3    48  ALA48       0.0304
     24  N         -5.9800  -35.5130   36.2580 N.am   49  VAL49      -0.1966
     25  CA        -7.2020  -34.8510   36.7010 C.3    49  VAL49       0.1727
     26  C         -6.8520  -33.3810   36.9200 C.2    49  VAL49       0.2616
     27  O         -5.9960  -33.0700   37.7600 O.2    49  VAL49      -0.2715
     28  CB        -7.7350  -35.4830   38.0250 C.3    49  VAL49       0.0290
     29  CG1       -9.1120  -34.9370   38.3800 C.3    49  VAL49       0.0023
     30  CG2       -7.7510  -37.0180   37.9550 C.3    49  VAL49       0.0023
     31  N         -7.5130  -32.4920   36.1790 N.am   50  LYS50      -0.1977
     32  CA        -7.3180  -31.0600   36.3250 C.3    50  LYS50       0.1596
     33  C         -8.4990  -30.4310   37.0390 C.2    50  LYS50       0.2287
     34  O         -9.6240  -30.4910   36.5450 O.2    50  LYS50      -0.2864
     35  CB        -7.0560  -30.3650   34.9760 C.3    50  LYS50       0.0298
     36  CG        -6.8410  -28.8510   35.1120 C.3    50  LYS50       0.0038
     37  CD        -6.2890  -28.1680   33.8470 C.3    50  LYS50       0.0206
     38  CE        -7.2170  -28.0790   32.6590 C.3    50  LYS50       0.1093
     39  NZ        -6.7680  -27.0200   31.7010 N.3    50  LYS50      -0.1314
     40  N        -12.9930  -24.0830   27.0710 N.3    68  GLU68      -0.1245
     41  CA       -12.1250  -25.2440   27.1840 C.3    68  GLU68       0.1567
     42  C        -12.9550  -26.5380   27.2180 C.2    68  GLU68       0.2260
     43  O        -12.6250  -27.4820   26.5070 O.2    68  GLU68      -0.2867
     44  CB       -11.2030  -25.1350   28.3980 C.3    68  GLU68       0.0388
     45  CG       -10.1730  -26.2630   28.3930 C.3    68  GLU68       0.1160
     46  CD        -9.2730  -26.4530   29.5960 C.2    68  GLU68       0.3649
     47  OE1       -9.4440  -25.7240   30.5990 O.co2  68  GLU68      -0.2457
     48  OE2       -8.3910  -27.3400   29.5320 O.co2  68  GLU68      -0.2457
     49  N        -14.3180  -27.3210   23.6700 N.3    71  LEU71      -0.1231
     50  CA       -13.1970  -27.7760   22.8510 C.3    71  LEU71       0.1693
     51  C        -12.7780  -29.2330   23.1620 C.2    71  LEU71       0.2591
     52  O        -12.5870  -30.0220   22.2350 O.2    71  LEU71      -0.2718
     53  CB       -12.0070  -26.8250   23.0700 C.3    71  LEU71       0.0284
     54  CG       -10.7960  -27.0190   22.1390 C.3    71  LEU71       0.0019
     55  CD1      -11.2160  -26.8640   20.7030 C.3    71  LEU71       0.0001
     56  CD2       -9.7650  -25.9700   22.3890 C.3    71  LEU71       0.0001
     57  N        -12.6560  -29.5750   24.4610 N.am   72  LEU72      -0.1980
     58  CA       -12.2420  -30.9110   24.8840 C.3    72  LEU72       0.1596
     59  C        -13.2530  -31.9490   24.5410 C.2    72  LEU72       0.2287
     60  O        -12.8650  -32.9850   24.0450 O.2    72  LEU72      -0.2864
     61  CB       -11.8760  -30.9600   26.3580 C.3    72  LEU72       0.0297
     62  CG       -10.5780  -30.2660   26.6920 C.3    72  LEU72       0.0022
     63  CD1      -10.5750  -29.8560   28.1380 C.3    72  LEU72       0.0001
     64  CD2       -9.3810  -31.1450   26.3310 C.3    72  LEU72       0.0001
     65  N        -12.8390  -32.6670   20.5490 N.3    75  MET75      -0.1245
     66  CA       -11.6340  -33.3380   20.0470 C.3    75  MET75       0.1570
     67  C        -11.6880  -34.8440   20.1330 C.2    75  MET75       0.2261
     68  O        -11.6440  -35.3890   21.2350 O.2    75  MET75      -0.2867
     69  CB       -10.3530  -32.8040   20.7260 C.3    75  MET75       0.0387
     70  CG       -10.1260  -31.3050   20.5510 C.3    75  MET75       0.0595
     71  SD       -10.0380  -30.7530   18.8320 S.3    75  MET75      -0.1393
     72  CE       -11.6830  -30.0560   18.6160 C.3    75  MET75       0.0692
     73  N         -4.6020  -35.8360   18.9930 N.3    80  VAL80      -0.1231
     74  CA        -5.0160  -34.6510   19.7720 C.3    80  VAL80       0.1692
     75  C         -5.4830  -35.1930   21.0990 C.2    80  VAL80       0.2591
     76  O         -6.0740  -36.2530   21.1240 O.2    80  VAL80      -0.2718
     77  CB        -6.1300  -33.8050   19.0780 C.3    80  VAL80       0.0266
     78  CG1       -6.4940  -32.5710   19.9090 C.3    80  VAL80       0.0020
     79  CG2       -5.7420  -33.3980   17.6560 C.3    80  VAL80       0.0020
     80  N         -5.2480  -34.4580   22.1830 N.am   81  ILE81      -0.1980
     81  CA        -5.7200  -34.8230   23.5140 C.3    81  ILE81       0.1595
     82  C         -7.2600  -35.0690   23.4810 C.2    81  ILE81       0.2287
     83  O         -7.9940  -34.4040   22.7430 O.2    81  ILE81      -0.2864
     84  CB        -5.3120  -33.7160   24.5530 C.3    81  ILE81       0.0276
     85  CG1       -5.5230  -34.1490   26.0220 C.3    81  ILE81       0.0022
     86  CG2       -6.0200  -32.3860   24.3050 C.3    81  ILE81       0.0022
     87  CD1       -4.7720  -35.3520   26.4430 C.3    81  ILE81       0.0001
     88  N        -11.4750  -31.9810   35.0060 N.3   101  LEU101     -0.1245
     89  CA       -11.3470  -32.5720   33.6810 C.3   101  LEU101      0.1561
     90  C        -10.3150  -33.6640   33.7590 C.2   101  LEU101      0.2260
     91  O         -9.2740  -33.4600   34.3690 O.2   101  LEU101     -0.2867
     92  CB       -10.9570  -31.5230   32.6290 C.3   101  LEU101      0.0270
     93  CG       -11.7580  -30.2440   32.6260 C.3   101  LEU101      0.0019
     94  CD1      -10.8870  -29.0960   32.1920 C.3   101  LEU101      0.0001
     95  CD2      -12.9530  -30.3580   31.7250 C.3   101  LEU101      0.0001
     96  N         -7.9540  -36.5450   31.5980 N.3   103  THR103     -0.1203
     97  CA        -7.3570  -37.0050   30.3270 C.3   103  THR103      0.1994
     98  C         -6.3670  -38.1260   30.6670 C.2   103  THR103      0.2618
     99  O         -6.1190  -38.3690   31.8440 O.2   103  THR103     -0.2717
    100  CB        -6.5620  -35.8870   29.6160 C.3   103  THR103      0.1784
    101  OG1       -5.3860  -35.6160   30.3680 O.3   103  THR103     -0.2211
    102  CG2       -7.3880  -34.6090   29.3320 C.3   103  THR103      0.0376
    103  N         -5.7530  -38.7550   29.6510 N.am  104  HIS104     -0.1961
    104  CA        -4.6650  -39.7190   29.8400 C.3   104  HIS104      0.1787
    105  C         -3.4930  -38.9980   30.5000 C.2   104  HIS104      0.2620
    106  O         -3.2910  -37.8070   30.2490 O.2   104  HIS104     -0.2715
    107  CB        -4.1750  -40.2660   28.4890 C.3   104  HIS104      0.0785
    108  CG        -5.0690  -41.3230   27.9350 C.ar  104  HIS104      0.0821
    109  ND1       -6.0450  -41.0260   26.9940 N.ar  104  HIS104     -0.2267
    110  CD2       -5.1510  -42.6320   28.2530 C.ar  104  HIS104      0.1154
    111  CE1       -6.6690  -42.1670   26.7520 C.ar  104  HIS104      0.1986
    112  NE2       -6.1670  -43.1610   27.4890 N.ar  104  HIS104     -0.2212
    113  N         -2.7470  -39.7070   31.3550 N.am  105  LEU105     -0.1963
    114  CA        -1.5570  -39.1680   31.9970 C.3   105  LEU105      0.1728
    115  C         -0.4530  -39.2030   30.9450 C.2   105  LEU105      0.2616
    116  O         -0.1670  -40.2620   30.3790 O.2   105  LEU105     -0.2715
    117  CB        -1.1550  -40.0210   33.2300 C.3   105  LEU105      0.0311
    118  CG         0.0450  -39.5290   34.0760 C.3   105  LEU105      0.0022
    119  CD1       -0.1940  -38.1490   34.6840 C.3   105  LEU105      0.0001
    120  CD2        0.3490  -40.5020   35.1900 C.3   105  LEU105      0.0001
    121  N          0.1490  -38.0520   30.6620 N.am  106  MET106     -0.1963
    122  CA         1.2070  -38.0190   29.6550 C.3   106  MET106      0.1736
    123  C          2.5780  -38.2760   30.2740 C.2   106  MET106      0.2617
    124  O          2.8950  -37.7830   31.3570 O.2   106  MET106     -0.2715
    125  CB         1.1510  -36.7320   28.8100 C.3   106  MET106      0.0427
    126  CG        -0.1950  -36.5510   28.0740 C.3   106  MET106      0.0599
    127  SD        -0.6020  -37.9000   26.9270 S.3   106  MET106     -0.1393
    128  CE        -2.2590  -37.5390   26.5740 C.3   106  MET106      0.0692
    129  N          3.3460  -39.1230   29.6180 N.am  107  GLY107     -0.1955
    130  CA         4.6960  -39.4400   30.0560 C.3   107  GLY107      0.1869
    131  C          5.6280  -38.3280   29.6160 C.2   107  GLY107      0.2309
    132  O          5.5950  -37.2140   30.1620 O.2   107  GLY107     -0.2863
    133  N         -7.5070  -30.1380   13.8800 N.3   138  ILE138     -0.1245
    134  CA        -7.8000  -28.9740   14.7250 C.3   138  ILE138      0.1561
    135  C         -8.2430  -27.8210   13.8510 C.2   138  ILE138      0.2260
    136  O         -9.3180  -27.2500   14.0820 O.2   138  ILE138     -0.2867
    137  CB        -6.6110  -28.6230   15.6680 C.3   138  ILE138      0.0252
    138  CG1       -6.3840  -29.7340   16.7240 C.3   138  ILE138      0.0019
    139  CG2       -6.8080  -27.2630   16.3680 C.3   138  ILE138      0.0019
    140  CD1       -4.9710  -29.6230   17.4950 C.3   138  ILE138      0.0001
    141  N        -10.3160  -24.1290   14.6470 N.3   143  ILE143     -0.1245
    142  CA        -9.6530  -23.8830   15.9210 C.3   143  ILE143      0.1561
    143  C         -8.1900  -23.5750   15.6340 C.2   143  ILE143      0.2260
    144  O         -7.5640  -24.2460   14.8130 O.2   143  ILE143     -0.2867
    145  CB        -9.8090  -25.0650   16.9170 C.3   143  ILE143      0.0252
    146  CG1      -11.2800  -25.2560   17.2710 C.3   143  ILE143      0.0019
    147  CG2       -8.9700  -24.8100   18.2040 C.3   143  ILE143      0.0019
    148  CD1      -11.6510  -26.6460   17.4150 C.3   143  ILE143      0.0001
    149  N         -4.5740  -23.3970   17.5550 N.3   145  HIS145     -0.1241
    150  CA        -3.9220  -23.8090   18.7870 C.3   145  HIS145      0.1621
    151  C         -3.3050  -22.6070   19.4950 C.2   145  HIS145      0.2264
    152  O         -3.6330  -22.3690   20.6530 O.2   145  HIS145     -0.2867
    153  CB        -2.8930  -24.9300   18.5440 C.3   145  HIS145      0.0745
    154  CG        -2.3620  -25.5190   19.8160 C.ar  145  HIS145      0.0817
    155  ND1       -1.5330  -24.7940   20.6570 N.ar  145  HIS145     -0.2268
    156  CD2       -2.6050  -26.7210   20.3760 C.ar  145  HIS145      0.1154
    157  CE1       -1.2680  -25.5940   21.6770 C.ar  145  HIS145      0.1986
    158  NE2       -1.8840  -26.7680   21.5480 N.ar  145  HIS145     -0.2212
    159  N         -1.1910  -33.7330   20.4860 N.3   163  ILE163     -0.1231
    160  CA        -1.1850  -32.2780   20.6490 C.3   163  ILE163      0.1692
    161  C         -2.0550  -32.0120   21.8790 C.2   163  ILE163      0.2592
    162  O         -3.1690  -32.5360   21.9800 O.2   163  ILE163     -0.2718
    163  CB        -1.8020  -31.5700   19.4180 C.3   163  ILE163      0.0266
    164  CG1       -1.0100  -31.8990   18.1350 C.3   163  ILE163      0.0019
    165  CG2       -1.9630  -30.0580   19.6780 C.3   163  ILE163      0.0020
    166  CD1       -1.6070  -31.4520   16.8500 C.3   163  ILE163      0.0001
    167  N         -1.5490  -31.1950   22.7910 N.am  164  LEU164     -0.1966
    168  CA        -2.2380  -30.8410   24.0190 C.3   164  LEU164      0.1728
    169  C         -2.0500  -29.3630   24.2960 C.2   164  LEU164      0.2616
    170  O         -1.3870  -28.6470   23.5490 O.2   164  LEU164     -0.2715
    171  CB        -1.6170  -31.6150   25.2090 C.3   164  LEU164      0.0311
    172  CG        -0.5420  -32.6730   24.9600 C.3   164  LEU164      0.0022
    173  CD1        0.6560  -32.4110   25.7860 C.3   164  LEU164      0.0001
    174  CD2       -1.0730  -34.0570   25.2290 C.3   164  LEU164      0.0001
    175  N         -2.5750  -28.9240   25.4280 N.am  165  ASP165     -0.1957
    176  CA        -2.2920  -27.6110   25.9720 C.3   165  ASP165      0.1840
    177  C         -2.2630  -27.7900   27.4850 C.2   165  ASP165      0.2622
    178  O         -3.3110  -27.7770   28.1380 O.2   165  ASP165     -0.2715
    179  CB        -3.2530  -26.5240   25.4750 C.3   165  ASP165      0.1450
    180  CG        -2.7380  -25.1110   25.7490 C.2   165  ASP165      0.3671
    181  OD1       -1.7810  -24.9650   26.5550 O.co2 165  ASP165     -0.2456
    182  OD2       -3.3410  -24.1500   25.2280 O.co2 165  ASP165     -0.2456
    183  N         -1.0600  -28.0450   28.0160 N.am  166  PHE166     -0.1974
    184  CA        -0.7840  -28.3050   29.4270 C.3   166  PHE166      0.1639
    185  C         -0.4780  -27.0540   30.2270 C.2   166  PHE166      0.2290
    186  O         -0.0930  -27.1480   31.3990 O.2   166  PHE166     -0.2864
    187  CB         0.3500  -29.3450   29.5700 C.3   166  PHE166      0.0560
    188  CG        -0.0770  -30.7810   29.3430 C.ar  166  PHE166     -0.0200
    189  CD1       -1.3310  -31.0800   28.8060 C.ar  166  PHE166     -0.0042
    190  CD2        0.7670  -31.8330   29.6730 C.ar  166  PHE166     -0.0042
    191  CE1       -1.7250  -32.4020   28.5950 C.ar  166  PHE166     -0.0003
    192  CE2        0.3750  -33.1530   29.4540 C.ar  166  PHE166     -0.0003
    193  CZ        -0.8820  -33.4270   28.9470 C.ar  166  PHE166     -0.0000
    194  N         -1.0330  -23.9430   32.4970 N.3   168  LEU168     -0.1245
    195  CA        -1.8830  -23.7240   33.6690 C.3   168  LEU168      0.1561
    196  C         -1.9330  -22.2510   34.1010 C.2   168  LEU168      0.2260
    197  O         -2.6650  -21.9120   35.0290 O.2   168  LEU168     -0.2867
    198  CB        -1.4100  -24.6210   34.8420 C.3   168  LEU168      0.0270
    199  CG        -1.5460  -26.1380   34.6560 C.3   168  LEU168      0.0019
    200  CD1       -0.8980  -26.8830   35.7990 C.3   168  LEU168      0.0001
    201  CD2       -2.9950  -26.5470   34.5490 C.3   168  LEU168      0.0001
@<TRIPOS>BOND
     1   135   136    2
     2   135   134    1
     3   133   134    1
     4   141   142    1
     5   134   137    1
     6   144   143    2
     7   143   142    1
     8   137   139    1
     9   137   138    1
    10   142   145    1
    11   138   140    1
    12   166   164    1
    13   145   146    1
    14   145   147    1
    15   146   148    1
    16   149   150    1
    17    79    77    1
    18   164   163    1
    19   153   150    1
    20   153   154    1
    21    72    71    1
    22   150   151    1
    23    71    70    1
    24    73    74    1
    25    77    74    1
    26    77    78    1
    27   163   165    1
    28   163   160    1
    29   151   152    2
    30    74    75    1
    31   154   156   ar
    32   154   155   ar
    33    66    67    1
    34    66    65    1
    35    66    69    1
    36    67    68    2
    37   156   158   ar
    38   159   160    1
    39    70    69    1
    40   160   161    1
    41   155   157   ar
    42    55    54    1
    43    75    76    2
    44    75    80   am
    45   158   157   ar
    46   161   162    2
    47   161   167   am
    48    54    56    1
    49    54    53    1
    50    80    81    1
    51    52    51    2
    52    83    82    2
    53   167   168    1
    54    50    53    1
    55    50    51    1
    56    50    49    1
    57    51    57   am
    58    82    81    1
    59    81    84    1
    60   170   169    2
    61   168   169    1
    62   168   171    1
    63    60    59    2
    64   169   175   am
    65    86    84    1
    66    57    58    1
    67    59    58    1
    68    84    85    1
    69    58    61    1
    70   172   171    1
    71   172   174    1
    72   172   173    1
    73   182   180   ar
    74   175   176    1
    75   179   180    1
    76   179   176    1
    77   180   181   ar
    78   176   177    1
    79    85    87    1
    80    64    62    1
    81    61    62    1
    82    43    42    2
    83   128   127    1
    84    62    63    1
    85   111   109   ar
    86   111   112   ar
    87   127   126    1
    88   109   108   ar
    89    40    41    1
    90    41    42    1
    91    41    44    1
    92   177   183   am
    93   177   178    2
    94   112   110   ar
    95   108   110   ar
    96   108   107    1
    97   183   184    1
    98   126   125    1
    99    45    44    1
   100    45    46    1
   101   107   104    1
   102   191   189   ar
   103   191   193   ar
   104   189   188   ar
   105   125   122    1
   106   193   192   ar
   107   102   100    1
   108   188   187    1
   109   188   190   ar
   110   184   187    1
   111   184   185    1
   112   192   190   ar
   113    48    46   ar
   114    46    47   ar
   115   131   130    1
   116   131   132    2
   117   100    97    1
   118   100   101    1
   119   129   130    1
   120   129   123   am
   121   103   104    1
   122   103    98   am
   123   122   123    1
   124   122   121    1
   125   104   105    1
   126   185   186    2
   127   106   105    2
   128   123   124    2
   129    97    98    1
   130    97    96    1
   131   116   115    2
   132   105   113   am
   133   121   115   am
   134    98    99    2
   135   115   114    1
   136   113   114    1
   137    39    38    1
   138    95    93    1
   139   114   117    1
   140    94    93    1
   141   194   195    1
   142    93    92    1
   143    92    89    1
   144    38    37    1
   145   117   118    1
   146   195   196    1
   147   195   198    1
   148    89    90    1
   149    89    88    1
   150    90    91    2
   151    23    20    1
   152    37    36    1
   153   118   119    1
   154   118   120    1
   155   196   197    2
   156    22    21    2
   157    19    20    1
   158   201   199    1
   159   199   198    1
   160   199   200    1
   161    20    21    1
   162    35    36    1
   163    35    32    1
   164    21    24   am
   165    18    16    1
   166    17    16    1
   167    31    32    1
   168    31    26   am
   169    24    25    1
   170    32    33    1
   171    34    33    2
   172    25    26    1
   173    25    28    1
   174    16    13    1
   175    26    27    2
   176     7     5    1
   177     4     3    2
   178    30    28    1
   179    28    29    1
   180     5     6    1
   181     5     2    1
   182    13    12    1
   183    13    14    1
   184     9     8    1
   185     9    10    1
   186     3     8   am
   187     3     2    1
   188    10    11    2
   189    14    15    2
   190     2     1    1
