@<TRIPOS>MOLECULE
tmp/5mz8A01.pdb
 117 113 0 0 0
SMALL
GASTEIGER

@<TRIPOS>ATOM
      1  N         41.5700  -65.9570   32.9360 N.3   254  GLY254     -0.1210
      2  CA        40.7600  -64.8630   33.4340 C.3   254  GLY254      0.1956
      3  C         40.9510  -63.5990   32.6360 C.2   254  GLY254      0.2612
      4  O         41.8690  -63.5000   31.8160 O.2   254  GLY254     -0.2717
      5  N         40.0460  -62.6450   32.8380 N.am  255  ASN255     -0.1960
      6  CA        40.0890  -61.3270   32.2150 C.3   255  ASN255      0.1819
      7  C         39.6500  -60.4030   33.3400 C.2   255  ASN255      0.2621
      8  O         38.5490  -59.8330   33.3180 O.2   255  ASN255     -0.2715
      9  CB        39.1730  -61.2490   30.9770 C.3   255  ASN255      0.1195
     10  CG        39.2580  -59.9600   30.2080 C.2   255  ASN255      0.2630
     11  OD1       39.8420  -58.9520   30.6460 O.2   255  ASN255     -0.2716
     12  ND2       38.6880  -59.9640   29.0330 N.am  255  ASN255     -0.0877
     13  N         40.5260  -60.3260   34.3690 N.am  256  ALA256     -0.1964
     14  CA        40.2970  -59.6280   35.6260 C.3   256  ALA256      0.1713
     15  C         40.1950  -58.1170   35.5270 C.2   256  ALA256      0.2458
     16  O         41.1440  -57.4370   35.1130 O.2   256  ALA256     -0.2730
     17  CB        41.3460  -60.0190   36.6580 C.3   256  ALA256      0.0333
     18  N         39.0540  -57.5750   36.0030 N.am  257  PRO257     -0.2727
     19  CA        38.8840  -56.1190   36.0330 C.3   257  PRO257      0.1402
     20  C         39.2100  -55.5230   37.4250 C.2   257  PRO257      0.2269
     21  O         39.2600  -56.2370   38.4260 O.2   257  PRO257     -0.2865
     22  CB        37.3980  -55.9620   35.7060 C.3   257  PRO257      0.0296
     23  CG        36.7660  -57.2000   36.3060 C.3   257  PRO257      0.0237
     24  CD        37.8400  -58.2470   36.4940 C.3   257  PRO257      0.0939
     25  N         32.4260  -54.9230   34.6410 N.3   401  CYS401     -0.1221
     26  CA        33.3890  -55.8670   35.2170 C.3   401  CYS401      0.1808
     27  C         32.9030  -57.2810   34.9290 C.2   401  CYS401      0.2601
     28  O         33.7080  -58.1200   34.5570 O.2   401  CYS401     -0.2717
     29  CB        33.5390  -55.6370   36.7200 C.3   401  CYS401      0.0970
     30  SG        34.5630  -54.2170   37.1430 S.3   401  CYS401     -0.0800
     31  N         31.5720  -57.5060   35.0510 N.am  402  ASN402     -0.1974
     32  CA        30.8860  -58.7760   34.8190 C.3   402  ASN402      0.1688
     33  C         30.6990  -59.1120   33.3510 C.2   402  ASN402      0.2292
     34  O         30.4110  -60.2680   33.0330 O.2   402  ASN402     -0.2864
     35  CB        29.5280  -58.7890   35.5370 C.3   402  ASN402      0.1181
     36  CG        29.6190  -58.8390   37.0370 C.2   402  ASN402      0.2629
     37  OD1       30.6330  -59.2320   37.6190 O.2   402  ASN402     -0.2716
     38  ND2       28.5430  -58.4750   37.6990 N.am  402  ASN402     -0.0877
     39  N         32.0250  -60.2790   30.7030 N.3   404  THR404     -0.1218
     40  CA        33.0800  -61.1820   30.2460 C.3   404  THR404      0.1862
     41  C         32.5940  -62.6140   30.4130 C.2   404  THR404      0.2287
     42  O         31.7150  -62.8660   31.2320 O.2   404  THR404     -0.2866
     43  CB        34.4100  -60.9010   31.0060 C.3   404  THR404      0.1770
     44  OG1       35.4490  -61.7330   30.5050 O.3   404  THR404     -0.2211
     45  CG2       34.3020  -61.1010   32.5230 C.3   404  THR404      0.0375
     46  N         34.6790  -64.8390   31.4910 N.3   406  TYR406     -0.1227
     47  CA        35.5900  -65.2990   32.5610 C.3   406  TYR406      0.1740
     48  C         35.0300  -64.8750   33.9310 C.2   406  TYR406      0.2635
     49  O         34.1550  -64.0210   33.9910 O.2   406  TYR406     -0.2714
     50  CB        36.9850  -64.6850   32.3660 C.3   406  TYR406      0.0548
     51  CG        37.6850  -65.0880   31.0820 C.ar  406  TYR406     -0.0200
     52  CD1       38.3470  -66.3090   30.9790 C.ar  406  TYR406     -0.0009
     53  CD2       37.7160  -64.2340   29.9820 C.ar  406  TYR406     -0.0009
     54  CE1       39.0310  -66.6660   29.8160 C.ar  406  TYR406      0.0417
     55  CE2       38.3990  -64.5800   28.8120 C.ar  406  TYR406      0.0417
     56  CZ        39.0630  -65.7960   28.7370 C.ar  406  TYR406      0.1957
     57  OH        39.7250  -66.1600   27.5810 O.3   406  TYR406     -0.2866
     58  N         35.5290  -65.4540   35.0140 N.am  407  GLY407     -0.1718
     59  CA        35.0880  -65.0610   36.3480 C.2   407  GLY407      0.1480
     60  C         35.9850  -65.5050   37.4760 C.2   407  GLY407      0.2820
     61  O         35.4930  -66.0480   38.4580 O.2   407  GLY407     -0.2669
     62  N         37.2980  -65.2960   37.3500 N.am  408  LEU408     -0.1929
     63  CA        38.3020  -65.6820   38.3600 C.3   408  LEU408      0.1731
     64  C         38.3080  -64.7070   39.5650 C.2   408  LEU408      0.2616
     65  O         37.8120  -65.0700   40.6470 O.2   408  LEU408     -0.2715
     66  CB        39.6830  -65.7970   37.6830 C.3   408  LEU408      0.0311
     67  CG        40.7930  -66.7060   38.2460 C.3   408  LEU408      0.0022
     68  CD1       40.4300  -67.4400   39.5200 C.3   408  LEU408      0.0001
     69  CD2       41.3610  -67.6140   37.1860 C.3   408  LEU408      0.0001
     70  N         38.8510  -63.4840   39.3810 N.am  409  GLN409     -0.1963
     71  CA        38.9070  -62.4560   40.4270 C.3   409  GLN409      0.1733
     72  C         38.6790  -61.0270   39.9040 C.2   409  GLN409      0.2617
     73  O         38.8900  -60.7350   38.7310 O.2   409  GLN409     -0.2715
     74  CB        40.2330  -62.5040   41.2170 C.3   409  GLN409      0.0408
     75  CG        40.5030  -63.8130   41.9350 C.3   409  GLN409      0.0908
     76  CD        41.4550  -63.7320   43.0970 C.2   409  GLN409      0.2608
     77  OE1       41.4110  -64.5690   43.9800 O.2   409  GLN409     -0.2717
     78  NE2       42.3220  -62.7330   43.1450 N.am  409  GLN409     -0.0878
     79  N         38.2900  -60.1330   40.8090 N.am  410  SER410     -0.1950
     80  CA        38.0460  -58.7220   40.5410 C.3   410  SER410      0.1924
     81  C         38.6200  -57.9060   41.6980 C.2   410  SER410      0.2314
     82  O         38.7830  -58.4270   42.7990 O.2   410  SER410     -0.2863
     83  CB        36.5510  -58.4670   40.4210 C.3   410  SER410      0.2116
     84  OG        36.0780  -58.9230   39.1710 O.3   410  SER410     -0.2180
     85  N         29.6890  -58.9610   41.9520 N.3   427  MET427     -0.1230
     86  CA        30.7750  -59.3500   41.0370 C.3   427  MET427      0.1702
     87  C         30.7750  -60.8820   40.8470 C.2   427  MET427      0.2592
     88  O         30.8020  -61.6240   41.8260 O.2   427  MET427     -0.2718
     89  CB        32.1330  -58.8170   41.5060 C.3   427  MET427      0.0401
     90  CG        32.3140  -57.3550   41.2180 C.3   427  MET427      0.0596
     91  SD        33.7900  -56.7110   42.0280 S.3   427  MET427     -0.1393
     92  CE        34.0220  -55.2190   41.1250 C.3   427  MET427      0.0692
     93  N         30.6630  -61.3390   39.5950 N.am  428  GLU428     -0.1966
     94  CA        30.5550  -62.7510   39.2100 C.3   428  GLU428      0.1733
     95  C         31.9280  -63.4180   39.1210 C.2   428  GLU428      0.2616
     96  O         32.3970  -63.7940   38.0360 O.2   428  GLU428     -0.2715
     97  CB        29.7770  -62.8750   37.8860 C.3   428  GLU428      0.0429
     98  CG        28.2900  -62.6180   38.0250 C.3   428  GLU428      0.1163
     99  CD        27.5620  -62.1220   36.7870 C.2   428  GLU428      0.3649
    100  OE1       28.1540  -62.1190   35.6830 O.co2 428  GLU428     -0.2457
    101  OE2       26.3840  -61.7240   36.9300 O.co2 428  GLU428     -0.2457
    102  N         32.5690  -63.5710   40.2920 N.am  429  VAL429     -0.1977
    103  CA        33.9360  -64.1000   40.4210 C.3   429  VAL429      0.1596
    104  C         34.0650  -65.0240   41.6310 C.2   429  VAL429      0.2287
    105  O         33.1600  -65.0690   42.4500 O.2   429  VAL429     -0.2864
    106  CB        34.9540  -62.9230   40.5290 C.3   429  VAL429      0.0276
    107  CG1       35.1080  -62.1990   39.2170 C.3   429  VAL429      0.0022
    108  CG2       34.5640  -61.9460   41.6320 C.3   429  VAL429      0.0022
    109  N         32.1270  -69.1820   35.4790 N.3   451  LYS451     -0.1245
    110  CA        32.1030  -69.1150   34.0230 C.3   451  LYS451      0.1561
    111  C         33.2590  -69.9520   33.3800 C.2   451  LYS451      0.2260
    112  O         33.4510  -71.1090   33.7740 O.2   451  LYS451     -0.2867
    113  CB        32.0540  -67.6500   33.5350 C.3   451  LYS451      0.0271
    114  CG        30.9220  -66.8110   34.1580 C.3   451  LYS451      0.0035
    115  CD        31.0320  -65.3820   33.6650 C.3   451  LYS451      0.0206
    116  CE        30.2360  -64.4110   34.4740 C.3   451  LYS451      0.1093
    117  NZ        30.3610  -63.0480   33.9150 N.3   451  LYS451     -0.1314
@<TRIPOS>BOND
     1    57    56    1
     2    56    55   ar
     3    56    54   ar
     4    55    53   ar
     5    12    10   am
     6    54    52   ar
     7    53    51   ar
     8    10    11    2
     9    10     9    1
    10    40    41    1
    11    40    39    1
    12    40    43    1
    13    41    42    2
    14    44    43    1
    15     9     6    1
    16    52    51   ar
    17    43    45    1
    18    51    50    1
    19    46    47    1
    20     4     3    2
    21     6     5    1
    22     6     7    1
    23    50    47    1
    24    47    48    1
    25     3     5   am
    26     3     2    1
    27     1     2    1
    28    34    33    2
    29     8     7    2
    30     7    13   am
    31    33    32    1
    32   111   112    2
    33   111   110    1
    34   113   110    1
    35   113   114    1
    36   115   114    1
    37   115   116    1
    38   117   116    1
    39    48    49    2
    40    48    58    1
    41   110   109    1
    42    13    14    1
    43    28    27    2
    44    25    26    1
    45    32    31    1
    46    32    35    1
    47    27    31   am
    48    27    26    1
    49    58    59    2
    50    16    15    2
    51    26    29    1
    52    15    14    1
    53    15    18   am
    54    35    36    1
    55    14    17    1
    56   100    99   ar
    57    22    19    1
    58    22    23    1
    59    18    19    1
    60    18    24    1
    61    19    20    1
    62    23    24    1
    63    59    60    1
    64    29    30    1
    65    99   101   ar
    66    99    98    1
    67    36    37    2
    68    36    38   am
    69    69    67    1
    70    62    60   am
    71    62    63    1
    72    20    21    2
    73    60    61    2
    74    66    67    1
    75    66    63    1
    76    97    98    1
    77    97    94    1
    78    96    95    2
    79    67    68    1
    80    63    64    1
    81    73    72    2
    82    95    94    1
    83    95   102   am
    84    84    83    1
    85    94    93    1
    86   107   106    1
    87    70    64   am
    88    70    71    1
    89    64    65    2
    90    93    87   am
    91    72    71    1
    92    72    79   am
    93   102   103    1
    94   103   106    1
    95   103   104    1
    96    83    80    1
    97    71    74    1
    98   106   108    1
    99    80    79    1
   100    80    81    1
   101    87    86    1
   102    87    88    2
   103    86    89    1
   104    86    85    1
   105    92    91    1
   106    74    75    1
   107    90    89    1
   108    90    91    1
   109   104   105    2
   110    81    82    2
   111    75    76    1
   112    76    78   am
   113    76    77    2
