@<TRIPOS>MOLECULE
tmp/5mz8C00.pdb
 117 111 0 0 0
SMALL
GASTEIGER

@<TRIPOS>ATOM
      1  N         56.1170  -83.7450   74.7690 N.3   105  ARG105     -0.1245
      2  CA        54.7180  -83.3130   74.8080 C.3   105  ARG105      0.1563
      3  C         54.5760  -81.7830   74.8220 C.2   105  ARG105      0.2260
      4  O         53.6010  -81.2640   74.2670 O.2   105  ARG105     -0.2867
      5  CB        53.9810  -83.9590   75.9930 C.3   105  ARG105      0.0307
      6  CG        53.6860  -85.4420   75.7700 C.3   105  ARG105      0.0489
      7  CD        52.8620  -86.0310   76.8950 C.3   105  ARG105      0.2205
      8  NE        51.5880  -85.3270   77.0320 N.pl3 105  ARG105     -0.0865
      9  CZ        50.8220  -85.3650   78.1110 C.cat 105  ARG105      0.5346
     10  NH1       51.1800  -86.0940   79.1610 N.pl3 105  ARG105      0.1354
     11  NH2       49.6910  -84.6700   78.1530 N.pl3 105  ARG105      0.1354
     12  N         53.4070  -81.2800   89.4150 N.3   155  ASN155     -0.1225
     13  CA        53.4680  -82.6380   88.8500 C.3   155  ASN155      0.1785
     14  C         53.9300  -82.6580   87.3770 C.2   155  ASN155      0.2597
     15  O         54.6350  -83.5960   86.9800 O.2   155  ASN155     -0.2718
     16  CB        52.1710  -83.4150   89.0750 C.3   155  ASN155      0.1169
     17  CG        50.9550  -82.9190   88.3370 C.2   155  ASN155      0.2627
     18  OD1       50.7280  -81.7190   88.1680 O.2   155  ASN155     -0.2716
     19  ND2       50.1110  -83.8490   87.9300 N.am  155  ASN155     -0.0877
     20  N         53.5700  -81.6240   86.5840 N.am  156  PHE156     -0.1976
     21  CA        54.0550  -81.4370   85.2090 C.3   156  PHE156      0.1639
     22  C         54.5240  -79.9810   85.1350 C.2   156  PHE156      0.2290
     23  O         53.7770  -79.1170   84.6650 O.2   156  PHE156     -0.2864
     24  CB        52.9850  -81.7570   84.1520 C.3   156  PHE156      0.0560
     25  CG        52.7580  -83.2350   83.9370 C.ar  156  PHE156     -0.0200
     26  CD1       51.8750  -83.9460   84.7460 C.ar  156  PHE156     -0.0042
     27  CD2       53.4280  -83.9180   82.9330 C.ar  156  PHE156     -0.0042
     28  CE1       51.6770  -85.3200   84.5580 C.ar  156  PHE156     -0.0003
     29  CE2       53.2240  -85.2910   82.7390 C.ar  156  PHE156     -0.0003
     30  CZ        52.3420  -85.9780   83.5440 C.ar  156  PHE156     -0.0000
     31  N         54.9070  -79.1130   80.9080 N.3   159  ASN159     -0.1225
     32  CA        53.7390  -79.2710   80.0430 C.3   159  ASN159      0.1785
     33  C         52.4760  -78.5580   80.5640 C.2   159  ASN159      0.2597
     34  O         51.7600  -77.9610   79.7680 O.2   159  ASN159     -0.2718
     35  CB        53.4290  -80.7370   79.6890 C.3   159  ASN159      0.1169
     36  CG        52.5940  -80.8220   78.4260 C.2   159  ASN159      0.2627
     37  OD1       52.7900  -80.0750   77.4660 O.2   159  ASN159     -0.2716
     38  ND2       51.6200  -81.7060   78.3960 N.am  159  ASN159     -0.0877
     39  N         52.2100  -78.6040   81.8740 N.am  160  LEU160     -0.1980
     40  CA        51.0130  -77.9540   82.4080 C.3   160  LEU160      0.1596
     41  C         51.1780  -76.4200   82.4800 C.2   160  LEU160      0.2287
     42  O         50.1810  -75.7100   82.6240 O.2   160  LEU160     -0.2864
     43  CB        50.5300  -78.5930   83.7190 C.3   160  LEU160      0.0297
     44  CG        49.9660  -80.0220   83.5630 C.3   160  LEU160      0.0022
     45  CD1       49.5040  -80.5890   84.8850 C.3   160  LEU160      0.0001
     46  CD2       48.8090  -80.0760   82.5800 C.3   160  LEU160      0.0001
     47  N         45.6100  -74.8750   87.7400 N.3   230  THR230     -0.1218
     48  CA        45.7910  -76.3190   87.7300 C.3   230  THR230      0.1862
     49  C         46.4300  -76.6810   89.0610 C.2   230  THR230      0.2287
     50  O         47.5010  -76.1780   89.3880 O.2   230  THR230     -0.2866
     51  CB        46.6000  -76.8240   86.5230 C.3   230  THR230      0.1770
     52  OG1       45.9340  -76.4460   85.3170 O.3   230  THR230     -0.2211
     53  CG2       46.7750  -78.3420   86.5460 C.3   230  THR230      0.0375
     54  N         41.5520  -76.9020   86.4340 N.3   251  GLU251     -0.1245
     55  CA        41.9860  -78.2740   86.1560 C.3   251  GLU251      0.1567
     56  C         42.3670  -78.8340   87.5200 C.2   251  GLU251      0.2260
     57  O         43.3710  -78.4160   88.1090 O.2   251  GLU251     -0.2867
     58  CB        43.1790  -78.3070   85.1830 C.3   251  GLU251      0.0388
     59  CG        42.8100  -77.9220   83.7640 C.3   251  GLU251      0.1160
     60  CD        41.8360  -78.8450   83.0500 C.2   251  GLU251      0.3649
     61  OE1       41.0780  -78.3510   82.1840 O.co2 251  GLU251     -0.2457
     62  OE2       41.8210  -80.0570   83.3660 O.co2 251  GLU251     -0.2457
     63  N         51.6000  -94.1410   86.5720 N.3   280  TYR280     -0.1241
     64  CA        51.7880  -92.9640   85.7120 C.3   280  TYR280      0.1605
     65  C         52.3220  -91.8090   86.5560 C.2   280  TYR280      0.2264
     66  O         51.5670  -91.2350   87.3460 O.2   280  TYR280     -0.2867
     67  CB        50.4230  -92.5710   85.0780 C.3   280  TYR280      0.0534
     68  CG        50.4680  -91.5040   83.9970 C.ar  280  TYR280     -0.0201
     69  CD1       51.1640  -91.7140   82.8060 C.ar  280  TYR280     -0.0009
     70  CD2       49.7080  -90.3400   84.1060 C.ar  280  TYR280     -0.0009
     71  CE1       51.1580  -90.7620   81.7830 C.ar  280  TYR280      0.0417
     72  CE2       49.7140  -89.3700   83.1010 C.ar  280  TYR280      0.0417
     73  CZ        50.4410  -89.5860   81.9410 C.ar  280  TYR280      0.1957
     74  OH        50.4420  -88.6490   80.9380 O.3   280  TYR280     -0.2866
     75  N         49.5810  -87.8270   89.2340 N.3   285  SER285     -0.1202
     76  CA        48.8700  -87.3650   88.0510 C.3   285  SER285      0.2020
     77  C         47.3850  -87.2730   88.3500 C.2   285  SER285      0.2619
     78  O         46.8420  -88.1450   89.0240 O.2   285  SER285     -0.2717
     79  CB        49.0920  -88.3380   86.8970 C.3   285  SER285      0.2103
     80  OG        48.3180  -88.0010   85.7580 O.3   285  SER285     -0.2182
     81  N         46.7300  -86.2270   87.8450 N.am  286  CYS286     -0.1955
     82  CA        45.2990  -86.0370   88.0110 C.3   286  CYS286      0.1843
     83  C         44.4970  -87.1410   87.2780 C.2   286  CYS286      0.2625
     84  O         43.3580  -87.3900   87.6570 O.2   286  CYS286     -0.2714
     85  CB        44.8750  -84.6340   87.5780 C.3   286  CYS286      0.0997
     86  SG        45.7440  -83.2840   88.4380 S.3   286  CYS286     -0.0797
     87  N         45.1080  -87.8530   86.2900 N.am  287  ILE287     -0.1977
     88  CA        44.4650  -88.9550   85.5430 C.3   287  ILE287      0.1596
     89  C         45.1030  -90.3370   85.8530 C.2   287  ILE287      0.2287
     90  O         44.8660  -91.3030   85.1240 O.2   287  ILE287     -0.2864
     91  CB        44.3250  -88.7000   84.0080 C.3   287  ILE287      0.0276
     92  CG1       45.6880  -88.3470   83.3440 C.3   287  ILE287      0.0022
     93  CG2       43.2260  -87.6470   83.7400 C.3   287  ILE287      0.0022
     94  CD1       45.6810  -88.1830   81.7750 C.3   287  ILE287      0.0001
     95  N         46.4500  -89.0260   77.5940 N.3   441  ARG441     -0.1245
     96  CA        46.1240  -87.6690   77.1600 C.3   441  ARG441      0.1563
     97  C         46.9330  -87.2400   75.9120 C.2   441  ARG441      0.2260
     98  O         48.1660  -87.3170   75.9010 O.2   441  ARG441     -0.2867
     99  CB        46.2810  -86.6390   78.2990 C.3   441  ARG441      0.0307
    100  CG        45.8300  -85.2350   77.8930 C.3   441  ARG441      0.0489
    101  CD        46.3710  -84.1620   78.8000 C.3   441  ARG441      0.2205
    102  NE        46.0250  -82.8200   78.3240 N.pl3 441  ARG441     -0.0865
    103  CZ        46.1970  -81.7080   79.0290 C.cat 441  ARG441      0.5346
    104  NH1       46.7270  -81.7610   80.2480 N.pl3 441  ARG441      0.1354
    105  NH2       45.8250  -80.5400   78.5350 N.pl3 441  ARG441      0.1354
    106  N         40.5410  -81.6380   77.3630 N.3   447  TYR447     -0.1241
    107  CA        40.9160  -82.2420   78.6300 C.3   447  TYR447      0.1605
    108  C         40.3840  -81.4550   79.8110 C.2   447  TYR447      0.2264
    109  O         40.6360  -80.2580   79.9410 O.2   447  TYR447     -0.2867
    110  CB        42.4490  -82.4150   78.6900 C.3   447  TYR447      0.0534
    111  CG        42.9470  -82.9420   80.0140 C.ar  447  TYR447     -0.0201
    112  CD1       42.9520  -84.3050   80.2840 C.ar  447  TYR447     -0.0009
    113  CD2       43.4270  -82.0770   80.9960 C.ar  447  TYR447     -0.0009
    114  CE1       43.4210  -84.7980   81.5030 C.ar  447  TYR447      0.0417
    115  CE2       43.9040  -82.5570   82.2140 C.ar  447  TYR447      0.0417
    116  CZ        43.8930  -83.9200   82.4660 C.ar  447  TYR447      0.1957
    117  OH        44.3580  -84.4030   83.6670 O.3   447  TYR447     -0.2866
@<TRIPOS>BOND
     1     4     3    2
     2     1     2    1
     3     2     3    1
     4     2     5    1
     5     6     5    1
     6     6     7    1
     7    98    97    2
     8    97    96    1
     9     7     8    1
    10     8     9    2
    11    96    95    1
    12    96    99    1
    13   106   107    1
    14    37    36    2
    15   100    99    1
    16   100   101    1
    17     9    11    1
    18     9    10    1
    19   102   101    1
    20   102   103    2
    21    38    36   am
    22    36    35    1
    23   105   103    1
    24   107   110    1
    25   107   108    1
    26   110   111    1
    27   103   104    1
    28    35    32    1
    29    34    33    2
    30   108   109    2
    31   111   112   ar
    32   111   113   ar
    33    32    33    1
    34    32    31    1
    35   112   114   ar
    36    33    39   am
    37    74    73    1
    38   113   115   ar
    39   114   116   ar
    40    94    92    1
    41    71    73   ar
    42    71    69   ar
    43    39    40    1
    44    73    72   ar
    45    61    60   ar
    46   115   116   ar
    47    40    41    1
    48    40    43    1
    49   116   117    1
    50    41    42    2
    51    46    44    1
    52    29    27   ar
    53    29    30   ar
    54    69    68   ar
    55    27    25   ar
    56    60    62   ar
    57    60    59    1
    58    72    70   ar
    59    92    91    1
    60    30    28   ar
    61    44    43    1
    62    44    45    1
    63    93    91    1
    64    59    58    1
    65    25    24    1
    66    25    26   ar
    67    68    70   ar
    68    68    67    1
    69    91    88    1
    70    24    21    1
    71    28    26   ar
    72    23    22    2
    73    67    64    1
    74    90    89    2
    75    22    21    1
    76    58    55    1
    77    21    20    1
    78    52    51    1
    79    88    89    1
    80    88    87    1
    81    64    65    1
    82    64    63    1
    83    80    79    1
    84    55    54    1
    85    55    56    1
    86    87    83   am
    87    51    53    1
    88    51    48    1
    89    65    66    2
    90    20    14   am
    91    79    76    1
    92    15    14    2
    93    83    84    2
    94    83    82    1
    95    14    13    1
    96    56    57    2
    97    85    82    1
    98    85    86    1
    99    48    47    1
   100    48    49    1
   101    81    82    1
   102    81    77   am
   103    19    17   am
   104    76    77    1
   105    76    75    1
   106    18    17    2
   107    17    16    1
   108    77    78    2
   109    13    16    1
   110    13    12    1
   111    49    50    2
