@<TRIPOS>MOLECULE
tmp/5mz8B01.pdb
 91 88 0 0 0
SMALL
GASTEIGER

@<TRIPOS>ATOM
      1  N         18.2520  -65.0530   43.9070 N.3    58  ALA58      -0.1245
      2  CA        19.4390  -64.7260   44.6930 C.3    58  ALA58       0.1562
      3  C         19.2030  -63.5480   45.6660 C.2    58  ALA58       0.2260
      4  O         19.9000  -63.4540   46.6760 O.2    58  ALA58      -0.2867
      5  CB        20.6130  -64.4370   43.7620 C.3    58  ALA58       0.0290
      6  N         12.8570  -67.8120   51.6210 N.3    65  ARG65      -0.1245
      7  CA        13.1690  -69.1540   51.1270 C.3    65  ARG65       0.1563
      8  C         12.5420  -70.1710   52.0660 C.2    65  ARG65       0.2260
      9  O         11.9190  -71.1210   51.6060 O.2    65  ARG65      -0.2867
     10  CB        14.6900  -69.3580   51.0010 C.3    65  ARG65       0.0307
     11  CG        15.3550  -68.3910   49.9960 C.3    65  ARG65       0.0489
     12  CD        16.8130  -68.6920   49.6380 C.3    65  ARG65       0.2205
     13  NE        17.7070  -68.8530   50.7960 N.pl3  65  ARG65      -0.0865
     14  CZ        18.4890  -67.8980   51.2830 C.cat  65  ARG65       0.5346
     15  NH1       19.2510  -68.1330   52.3400 N.pl3  65  ARG65       0.1354
     16  NH2       18.4950  -66.6880   50.7350 N.pl3  65  ARG65       0.1354
     17  N         22.7510  -70.7740   56.2180 N.3   119  ILE119     -0.1231
     18  CA        23.8600  -70.8320   55.2630 C.3   119  ILE119      0.1692
     19  C         24.9640  -69.9280   55.8300 C.2   119  ILE119      0.2592
     20  O         24.9430  -68.7110   55.6320 O.2   119  ILE119     -0.2718
     21  CB        23.4760  -70.5690   53.7700 C.3   119  ILE119      0.0266
     22  CG1       22.2760  -71.4580   53.3310 C.3   119  ILE119      0.0019
     23  CG2       24.6920  -70.8000   52.8520 C.3   119  ILE119      0.0020
     24  CD1       21.5080  -71.0040   52.1000 C.3   119  ILE119      0.0001
     25  N         25.8570  -70.5240   56.6400 N.am  120  TYR120     -0.1962
     26  CA        26.9190  -69.7820   57.2920 C.3   120  TYR120      0.1771
     27  C         28.1030  -69.5640   56.3840 C.2   120  TYR120      0.2620
     28  O         28.4010  -70.3820   55.5100 O.2   120  TYR120     -0.2715
     29  CB        27.3660  -70.4670   58.6090 C.3   120  TYR120      0.0574
     30  CG        26.2520  -70.6450   59.6170 C.ar  120  TYR120     -0.0198
     31  CD1       25.5380  -69.5540   60.0960 C.ar  120  TYR120     -0.0009
     32  CD2       25.9140  -71.9080   60.1010 C.ar  120  TYR120     -0.0009
     33  CE1       24.4930  -69.7120   61.0060 C.ar  120  TYR120      0.0417
     34  CE2       24.8770  -72.0770   61.0270 C.ar  120  TYR120      0.0417
     35  CZ        24.1760  -70.9710   61.4830 C.ar  120  TYR120      0.1957
     36  OH        23.1500  -71.0950   62.3950 O.3   120  TYR120     -0.2866
     37  N         28.7560  -68.4360   56.6040 N.am  121  GLY121     -0.1954
     38  CA        29.9890  -68.0550   55.9420 C.3   121  GLY121      0.1869
     39  C         31.1340  -68.1480   56.9340 C.2   121  GLY121      0.2309
     40  O         30.9420  -68.5220   58.0970 O.2   121  GLY121     -0.2863
     41  N         31.8580  -66.3430   51.6900 N.3   140  LYS140     -0.1231
     42  CA        30.3960  -66.4420   51.6430 C.3   140  LYS140      0.1693
     43  C         29.9990  -67.3250   50.4740 C.2   140  LYS140      0.2592
     44  O         30.7160  -67.3790   49.4790 O.2   140  LYS140     -0.2718
     45  CB        29.7970  -65.0370   51.4850 C.3   140  LYS140      0.0285
     46  CG        28.3870  -64.8630   51.9700 C.3   140  LYS140      0.0035
     47  CD        28.1110  -63.4030   52.2670 C.3   140  LYS140      0.0206
     48  CE        27.0710  -62.8030   51.3530 C.3   140  LYS140      0.1093
     49  NZ        26.7730  -61.3920   51.7260 N.3   140  LYS140     -0.1314
     50  N         28.8750  -68.0340   50.6020 N.am  141  LYS141     -0.1966
     51  CA        28.3610  -68.9370   49.5700 C.3   141  LYS141      0.1728
     52  C         27.2090  -68.2980   48.8180 C.2   141  LYS141      0.2616
     53  O         26.3510  -67.6570   49.4290 O.2   141  LYS141     -0.2715
     54  CB        27.9700  -70.3000   50.1540 C.3   141  LYS141      0.0311
     55  CG        29.1740  -71.1630   50.5070 C.3   141  LYS141      0.0038
     56  CD        28.7510  -72.3370   51.3710 C.3   141  LYS141      0.0206
     57  CE        29.9250  -73.1100   51.9280 C.3   141  LYS141      0.1093
     58  NZ        30.1790  -74.3600   51.1540 N.3   141  LYS141     -0.1314
     59  N         27.2130  -68.4410   47.4860 N.am  142  PHE142     -0.1960
     60  CA        26.2210  -67.8460   46.5900 C.3   142  PHE142      0.1756
     61  C         25.5490  -68.9060   45.7260 C.2   142  PHE142      0.2461
     62  O         26.2050  -69.8930   45.3790 O.2   142  PHE142     -0.2730
     63  CB        26.9010  -66.7820   45.6870 C.3   142  PHE142      0.0574
     64  CG        27.3530  -65.5430   46.4170 C.ar  142  PHE142     -0.0200
     65  CD1       28.5530  -65.5240   47.1100 C.ar  142  PHE142     -0.0042
     66  CD2       26.5850  -64.3870   46.3990 C.ar  142  PHE142     -0.0042
     67  CE1       28.9600  -64.3800   47.7970 C.ar  142  PHE142     -0.0003
     68  CE2       27.0070  -63.2420   47.0750 C.ar  142  PHE142     -0.0003
     69  CZ        28.1910  -63.2470   47.7660 C.ar  142  PHE142     -0.0000
     70  N         24.2590  -68.7210   45.3440 N.am  143  PRO143     -0.2727
     71  CA        23.6070  -69.7160   44.4650 C.3   143  PRO143      0.1402
     72  C         24.3860  -69.8920   43.1640 C.2   143  PRO143      0.2269
     73  O         24.8200  -68.8880   42.5550 O.2   143  PRO143     -0.2865
     74  CB        22.2140  -69.1020   44.1950 C.3   143  PRO143      0.0296
     75  CG        22.0060  -68.1060   45.2670 C.3   143  PRO143      0.0237
     76  CD        23.3470  -67.5940   45.6540 C.3   143  PRO143      0.0939
     77  N         18.5710  -72.6990   48.8730 N.3   170  VAL170     -0.1245
     78  CA        19.7290  -71.9160   48.4400 C.3   170  VAL170      0.1561
     79  C         19.3360  -70.6490   47.6660 C.2   170  VAL170      0.2260
     80  O         19.9990  -69.6140   47.7980 O.2   170  VAL170     -0.2867
     81  CB        20.7760  -72.7650   47.6610 C.3   170  VAL170      0.0252
     82  CG1       21.4470  -73.8030   48.5450 C.3   170  VAL170      0.0019
     83  CG2       20.2610  -73.3740   46.3850 C.3   170  VAL170      0.0019
     84  N         25.8260  -74.2990   45.5460 N.3   467  LEU467     -0.1245
     85  CA        26.4550  -73.0950   46.0720 C.3   467  LEU467      0.1561
     86  C         27.8520  -72.9320   45.5550 C.2   467  LEU467      0.2260
     87  O         28.5590  -73.9180   45.3250 O.2   467  LEU467     -0.2867
     88  CB        26.4420  -73.0880   47.6220 C.3   467  LEU467      0.0270
     89  CG        25.0820  -72.8070   48.3100 C.3   467  LEU467      0.0019
     90  CD1       25.0640  -73.3300   49.7490 C.3   467  LEU467      0.0001
     91  CD2       24.7180  -71.3280   48.3080 C.3   467  LEU467      0.0001
@<TRIPOS>BOND
     1    73    72    2
     2    72    71    1
     3     5     2    1
     4     1     2    1
     5    74    71    1
     6    74    75    1
     7    71    70    1
     8     2     3    1
     9    75    76    1
    10    87    86    2
    11    70    76    1
    12    70    61   am
    13    62    61    2
    14    84    85    1
    15    86    85    1
    16     3     4    2
    17    63    64    1
    18    63    60    1
    19    61    60    1
    20    85    88    1
    21    83    81    1
    22    66    64   ar
    23    66    68   ar
    24    64    65   ar
    25    60    59    1
    26    68    69   ar
    27    65    67   ar
    28    59    52   am
    29    88    89    1
    30    81    78    1
    31    81    82    1
    32    79    80    2
    33    79    78    1
    34    69    67   ar
    35    91    89    1
    36    89    90    1
    37    78    77    1
    38    52    53    2
    39    52    51    1
    40    44    43    2
    41    51    54    1
    42    51    50    1
    43    12    11    1
    44    12    13    1
    45    11    10    1
    46    54    55    1
    47    43    50   am
    48    43    42    1
    49    55    56    1
    50    16    14    1
    51    13    14    2
    52    10     7    1
    53     7     6    1
    54     7     8    1
    55    58    57    1
    56    14    15    1
    57    48    49    1
    58    48    47    1
    59    56    57    1
    60    45    42    1
    61    45    46    1
    62     9     8    2
    63    42    41    1
    64    46    47    1
    65    24    22    1
    66    23    21    1
    67    22    21    1
    68    21    18    1
    69    18    19    1
    70    18    17    1
    71    28    27    2
    72    20    19    2
    73    19    25   am
    74    38    37    1
    75    38    39    1
    76    27    37   am
    77    27    26    1
    78    25    26    1
    79    39    40    2
    80    26    29    1
    81    29    30    1
    82    30    31   ar
    83    30    32   ar
    84    31    33   ar
    85    32    34   ar
    86    33    35   ar
    87    34    35   ar
    88    35    36    1
