@<TRIPOS>MOLECULE
tmp/5mzaA00.pdb
 88 83 0 0 0
SMALL
GASTEIGER

@<TRIPOS>ATOM
      1  N        -22.2540   10.8690   54.8340 N.3    65  ASN65      -0.1240
      2  CA       -23.0850    9.7820   55.3350 C.3    65  ASN65       0.1653
      3  C        -24.0690    9.3150   54.2660 C.2    65  ASN65       0.2266
      4  O        -23.9470    9.7210   53.1080 O.2    65  ASN65      -0.2867
      5  CB       -23.7960   10.2120   56.6280 C.3    65  ASN65       0.1155
      6  CG       -24.7180   11.3920   56.4590 C.2    65  ASN65       0.2627
      7  OD1      -25.8600   11.2490   56.0320 O.2    65  ASN65      -0.2716
      8  ND2      -24.2340   12.5850   56.7720 N.am   65  ASN65      -0.0877
      9  N        -28.2720    2.6040   54.5060 N.3    77  ASN77      -0.1240
     10  CA       -26.8560    2.9940   54.4870 C.3    77  ASN77       0.1653
     11  C        -26.0380    1.9050   53.7680 C.2    77  ASN77       0.2266
     12  O        -26.5550    0.7950   53.6370 O.2    77  ASN77      -0.2867
     13  CB       -26.3180    3.3000   55.9050 C.3    77  ASN77       0.1155
     14  CG       -26.3420    2.1510   56.8820 C.2    77  ASN77       0.2627
     15  OD1      -25.3290    1.4850   57.1210 O.2    77  ASN77      -0.2716
     16  ND2      -27.4770    1.9460   57.5260 N.am   77  ASN77      -0.0877
     17  N        -23.8820   -0.2520   54.6400 N.3    79  CYS79      -0.1235
     18  CA       -23.7460   -1.4840   55.4270 C.3    79  CYS79       0.1677
     19  C        -25.0900   -2.1180   55.8340 C.2    79  CYS79       0.2270
     20  O        -25.0870   -3.0760   56.6150 O.2    79  CYS79      -0.2867
     21  CB       -22.8520   -1.2530   56.6440 C.3    79  CYS79       0.0956
     22  SG       -21.2020   -0.6120   56.2570 S.3    79  CYS79      -0.0801
     23  N        -22.7850  -10.8130   62.9190 N.3    86  LYS86      -0.1245
     24  CA       -21.3820  -10.4060   63.1020 C.3    86  LYS86       0.1561
     25  C        -20.4120  -11.6000   63.0490 C.2    86  LYS86       0.2260
     26  O        -19.6680  -11.8430   64.0020 O.2    86  LYS86      -0.2867
     27  CB       -21.1840   -9.5440   64.3720 C.3    86  LYS86       0.0271
     28  CG       -22.0780   -8.3060   64.4630 C.3    86  LYS86       0.0035
     29  CD       -21.5590   -7.1340   63.6340 C.3    86  LYS86       0.0206
     30  CE       -22.2670   -5.8400   63.9540 C.3    86  LYS86       0.1093
     31  NZ       -21.8650   -5.2980   65.2820 N.3    86  LYS86      -0.1314
     32  N        -15.8210    4.4160   52.4330 N.3   153  LYS153     -0.1231
     33  CA       -15.7480    4.9550   53.7960 C.3   153  LYS153      0.1693
     34  C        -16.4750    4.0370   54.7750 C.2   153  LYS153      0.2592
     35  O        -15.8940    3.6430   55.7860 O.2   153  LYS153     -0.2718
     36  CB       -16.3410    6.3770   53.8450 C.3   153  LYS153      0.0285
     37  CG       -16.3540    7.0060   55.2300 C.3   153  LYS153      0.0035
     38  CD       -17.0240    8.3530   55.2200 C.3   153  LYS153      0.0206
     39  CE       -17.4220    8.7870   56.6060 C.3   153  LYS153      0.1093
     40  NZ       -18.6860    8.1460   57.0640 N.3   153  LYS153     -0.1314
     41  N        -17.7340    3.6820   54.4570 N.am  154  TYR154     -0.1976
     42  CA       -18.5650    2.7990   55.2740 C.3   154  TYR154      0.1639
     43  C        -17.9900    1.3880   55.4050 C.2   154  TYR154      0.2290
     44  O        -18.1020    0.8010   56.4770 O.2   154  TYR154     -0.2864
     45  CB       -20.0120    2.7860   54.7640 C.3   154  TYR154      0.0560
     46  CG       -20.8960    3.8340   55.4080 C.ar  154  TYR154     -0.0198
     47  CD1      -20.6220    5.1920   55.2660 C.ar  154  TYR154     -0.0009
     48  CD2      -22.0180    3.4690   56.1450 C.ar  154  TYR154     -0.0009
     49  CE1      -21.4190    6.1580   55.8760 C.ar  154  TYR154      0.0417
     50  CE2      -22.8410    4.4290   56.7340 C.ar  154  TYR154      0.0417
     51  CZ       -22.5370    5.7720   56.5950 C.ar  154  TYR154      0.1957
     52  OH       -23.3370    6.7230   57.1760 O.3   154  TYR154     -0.2866
     53  N        -14.9590    1.7640   57.8110 N.3   157  GLN157     -0.1231
     54  CA       -15.4360    2.0550   59.1630 C.3   157  GLN157      0.1698
     55  C        -16.1370    0.8630   59.8100 C.2   157  GLN157      0.2592
     56  O        -16.0060    0.6840   61.0190 O.2   157  GLN157     -0.2718
     57  CB       -16.2920    3.3210   59.1920 C.3   157  GLN157      0.0381
     58  CG       -15.4350    4.5810   59.0630 C.3   157  GLN157      0.0905
     59  CD       -16.2110    5.8720   59.0280 C.2   157  GLN157      0.2608
     60  OE1      -17.4440    5.9050   59.0890 O.2   157  GLN157     -0.2717
     61  NE2      -15.4920    6.9760   58.9130 N.am  157  GLN157     -0.0878
     62  N        -16.8230    0.0210   59.0060 N.am  158  HIS158     -0.1976
     63  CA       -17.4820   -1.2100   59.4620 C.3   158  HIS158      0.1656
     64  C        -16.4060   -2.1960   59.9320 C.2   158  HIS158      0.2291
     65  O        -16.6320   -2.9290   60.8940 O.2   158  HIS158     -0.2864
     66  CB       -18.2900   -1.8340   58.3070 C.3   158  HIS158      0.0771
     67  CG       -19.3650   -2.8050   58.7050 C.ar  158  HIS158      0.0820
     68  ND1      -20.0680   -2.6750   59.8950 N.ar  158  HIS158     -0.2267
     69  CD2      -19.8910   -3.8360   58.0050 C.ar  158  HIS158      0.1154
     70  CE1      -20.9620   -3.6490   59.8930 C.ar  158  HIS158      0.1986
     71  NE2      -20.8900   -4.3770   58.7820 N.ar  158  HIS158     -0.2212
     72  N        -14.8940   -1.0510   63.2950 N.3   161  LYS161     -0.1231
     73  CA       -15.8850   -1.2960   64.3390 C.3   161  LYS161      0.1693
     74  C        -16.0340   -2.7550   64.7580 C.2   161  LYS161      0.2592
     75  O        -16.2300   -3.0130   65.9480 O.2   161  LYS161     -0.2718
     76  CB       -17.2510   -0.7250   63.9380 C.3   161  LYS161      0.0285
     77  CG       -17.3060    0.7920   63.9960 C.3   161  LYS161      0.0035
     78  CD       -18.6560    1.3130   63.5840 C.3   161  LYS161      0.0206
     79  CE       -18.6790    2.8160   63.5460 C.3   161  LYS161      0.1093
     80  NZ       -20.0610    3.3300   63.3760 N.3   161  LYS161     -0.1314
     81  N        -15.9550   -3.7040   63.8030 N.am  162  ASP162     -0.1974
     82  CA       -16.1920   -5.1160   64.1050 C.3   162  ASP162      0.1709
     83  C        -14.9770   -6.0640   64.0040 C.2   162  ASP162      0.2293
     84  O        -15.1690   -7.2710   64.1780 O.2   162  ASP162     -0.2864
     85  CB       -17.3410   -5.6550   63.2290 C.3   162  ASP162      0.1436
     86  CG       -18.6530   -4.8900   63.3200 C.2   162  ASP162      0.3671
     87  OD1      -18.9310   -4.3000   64.3920 O.co2 162  ASP162     -0.2456
     88  OD2      -19.4160   -4.9090   62.3360 O.co2 162  ASP162     -0.2456
@<TRIPOS>BOND
     1    32    33    1
     2     4     3    2
     3    12    11    2
     4    11    10    1
     5    33    36    1
     6    33    34    1
     7    36    37    1
     8     3     2    1
     9    41    34   am
    10    41    42    1
    11    10     9    1
    12    10    13    1
    13    17    18    1
    14    45    42    1
    15    45    46    1
    16    34    35    2
    17     1     2    1
    18    38    37    1
    19    38    39    1
    20    47    46   ar
    21    47    49   ar
    22    42    43    1
    23     2     5    1
    24    43    44    2
    25    46    48   ar
    26    18    19    1
    27    18    21    1
    28    19    20    2
    29    49    51   ar
    30    13    14    1
    31     7     6    2
    32    48    50   ar
    33    22    21    1
    34     6     5    1
    35     6     8   am
    36    51    50   ar
    37    51    52    1
    38    39    40    1
    39    14    15    2
    40    14    16   am
    41    53    54    1
    42    69    67   ar
    43    69    71   ar
    44    66    67    1
    45    66    63    1
    46    67    68   ar
    47    71    70   ar
    48    61    59   am
    49    62    63    1
    50    62    55   am
    51    59    58    1
    52    59    60    2
    53    58    57    1
    54    54    57    1
    55    54    55    1
    56    63    64    1
    57    55    56    2
    58    70    68   ar
    59    64    65    2
    60    88    86   ar
    61    23    24    1
    62    25    24    1
    63    25    26    2
    64    24    27    1
    65    85    86    1
    66    85    82    1
    67    72    73    1
    68    86    87   ar
    69    80    79    1
    70    79    78    1
    71    78    77    1
    72    29    30    1
    73    29    28    1
    74    81    82    1
    75    81    74   am
    76    76    77    1
    77    76    73    1
    78    30    31    1
    79    83    82    1
    80    83    84    2
    81    73    74    1
    82    27    28    1
    83    74    75    2
