@<TRIPOS>MOLECULE
tmp/5mzcB03.pdb
 114 108 0 0 0
SMALL
GASTEIGER

@<TRIPOS>ATOM
      1  N        -19.5100  -20.3400    3.4790 N.3     9  ALA9       -0.1231
      2  CA       -19.8600  -19.2380    2.5970 C.3     9  ALA9        0.1694
      3  C        -20.7850  -18.2630    3.3630 C.2     9  ALA9        0.2592
      4  O        -21.8590  -17.8990    2.8900 O.2     9  ALA9       -0.2718
      5  CB       -20.5160  -19.7620    1.3080 C.3     9  ALA9        0.0304
      6  N        -20.3180  -17.8150    4.5300 N.am   10  GLY10      -0.1957
      7  CA       -21.0200  -16.8480    5.3560 C.3    10  GLY10       0.1869
      8  C        -20.5260  -15.4550    5.0150 C.2    10  GLY10       0.2309
      9  O        -20.2710  -15.1540    3.8520 O.2    10  GLY10      -0.2863
     10  N        -19.8350  -24.7990    1.3650 N.3    31  GLU31      -0.1245
     11  CA       -20.9060  -24.3520    2.2630 C.3    31  GLU31       0.1567
     12  C        -21.8430  -25.5160    2.5850 C.2    31  GLU31       0.2260
     13  O        -22.3000  -26.2020    1.6680 O.2    31  GLU31      -0.2867
     14  CB       -21.6750  -23.1560    1.6330 C.3    31  GLU31       0.0388
     15  CG       -22.9750  -22.7750    2.3370 C.3    31  GLU31       0.1160
     16  CD       -22.8130  -22.4220    3.8050 C.2    31  GLU31       0.3649
     17  OE1      -21.8900  -21.6420    4.1280 O.co2  31  GLU31      -0.2457
     18  OE2      -23.5340  -23.0120    4.6360 O.co2  31  GLU31      -0.2457
     19  N        -24.9730  -25.3380    3.9300 N.3    33  ARG33      -0.1231
     20  CA       -26.3590  -24.9980    3.5690 C.3    33  ARG33       0.1679
     21  C        -26.5950  -25.0340    2.0560 C.2    33  ARG33       0.2434
     22  O        -25.6340  -24.9370    1.2890 O.2    33  ARG33      -0.2733
     23  CB       -26.6790  -23.5610    4.0520 C.3    33  ARG33       0.0321
     24  CG       -26.7290  -23.4150    5.5640 C.3    33  ARG33       0.0489
     25  CD       -26.7750  -21.9480    5.9410 C.3    33  ARG33       0.2205
     26  NE       -26.6770  -21.7500    7.3940 N.pl3  33  ARG33      -0.0865
     27  CZ       -27.7210  -21.6080    8.2120 C.cat  33  ARG33       0.5346
     28  NH1      -28.9610  -21.6290    7.7300 N.pl3  33  ARG33       0.1354
     29  NH2      -27.5320  -21.4380    9.5160 N.pl3  33  ARG33       0.1354
     30  N        -27.8700  -25.0330    1.5990 N.am   34  PRO34      -0.2729
     31  CA       -28.1170  -24.8780    0.1590 C.3    34  PRO34       0.1401
     32  C        -27.8080  -23.4330   -0.2360 C.2    34  PRO34       0.2269
     33  O        -27.6430  -22.5530    0.6340 O.2    34  PRO34      -0.2865
     34  CB       -29.6290  -25.1580    0.0230 C.3    34  PRO34       0.0296
     35  CG       -30.0550  -25.7520    1.3360 C.3    34  PRO34       0.0237
     36  CD       -29.1470  -25.1390    2.3430 C.3    34  PRO34       0.0939
     37  N        -28.7190  -19.8930   -0.8880 N.3    36  PRO36      -0.2116
     38  CA       -29.9270  -19.0910   -0.5920 C.3    36  PRO36       0.1372
     39  C        -30.4420  -18.3250   -1.8130 C.2    36  PRO36       0.2244
     40  O        -31.5590  -17.8380   -1.7680 O.2    36  PRO36      -0.2868
     41  CB       -29.4700  -18.1150    0.5080 C.3    36  PRO36       0.0268
     42  CG       -27.9770  -17.9610    0.2770 C.3    36  PRO36       0.0207
     43  CD       -27.5270  -19.3540   -0.1910 C.3    36  PRO36       0.0892
     44  N        -36.8930  -16.8530    7.2740 N.3    45  ARG45      -0.1231
     45  CA       -36.8180  -15.8120    8.3000 C.3    45  ARG45       0.1694
     46  C        -35.3620  -15.3870    8.5340 C.2    45  ARG45       0.2593
     47  O        -34.5360  -16.1790    9.0000 O.2    45  ARG45      -0.2718
     48  CB       -37.4910  -16.2670    9.6120 C.3    45  ARG45       0.0321
     49  CG       -38.1750  -15.1320   10.3790 C.3    45  ARG45       0.0489
     50  CD       -38.8380  -15.6090   11.6640 C.3    45  ARG45       0.2205
     51  NE       -37.9300  -15.5500   12.8140 N.pl3  45  ARG45      -0.0865
     52  CZ       -37.5160  -16.6070   13.5090 C.cat  45  ARG45       0.5346
     53  NH1      -37.9330  -17.8270   13.1890 N.pl3  45  ARG45       0.1354
     54  NH2      -36.6880  -16.4510   14.5350 N.pl3  45  ARG45       0.1354
     55  N        -35.0460  -14.1450    8.1580 N.am   46  SER46      -0.1938
     56  CA       -33.7070  -13.5850    8.3340 C.3    46  SER46       0.2055
     57  C        -33.7800  -12.3550    9.2240 C.2    46  SER46       0.2642
     58  O        -34.6990  -11.5420    9.0820 O.2    46  SER46      -0.2714
     59  CB       -33.1000  -13.1910    6.9870 C.3    46  SER46       0.2130
     60  OG       -31.8070  -12.6220    7.1570 O.3    46  SER46      -0.2179
     61  N        -32.8030  -12.2060   10.1170 N.am   47  ILE47      -0.1977
     62  CA       -32.7230  -11.0230   10.9700 C.3    47  ILE47       0.1596
     63  C        -31.8960   -9.9780   10.2240 C.2    47  ILE47       0.2287
     64  O        -31.2120  -10.3060    9.2650 O.2    47  ILE47      -0.2864
     65  CB       -32.1080  -11.3280   12.3770 C.3    47  ILE47       0.0276
     66  CG1      -30.5830  -11.6590   12.2890 C.3    47  ILE47       0.0022
     67  CG2      -32.9170  -12.4180   13.1140 C.3    47  ILE47       0.0022
     68  CD1      -29.7570  -11.5110   13.5940 C.3    47  ILE47       0.0001
     69  N        -29.5450   -9.9440    6.8260 N.3   105  ARG105     -0.1231
     70  CA       -28.3890  -10.8350    6.6760 C.3   105  ARG105      0.1694
     71  C        -28.4370  -11.6820    5.3920 C.2   105  ARG105      0.2592
     72  O        -27.4090  -11.8250    4.7220 O.2   105  ARG105     -0.2718
     73  CB       -28.1530  -11.6990    7.9210 C.3   105  ARG105      0.0321
     74  CG       -26.8570  -12.5620    7.8300 C.3   105  ARG105      0.0489
     75  CD       -27.1320  -14.0390    7.4950 C.3   105  ARG105      0.2205
     76  NE       -25.9510  -14.7620    6.9830 N.pl3 105  ARG105     -0.0865
     77  CZ       -24.9100  -15.1390    7.7280 C.cat 105  ARG105      0.5346
     78  NH1      -24.8720  -14.8540    9.0190 N.pl3 105  ARG105      0.1354
     79  NH2      -23.8920  -15.7770    7.1780 N.pl3 105  ARG105      0.1354
     80  N        -29.6080  -12.2420    5.0580 N.am  106  ASP106     -0.1974
     81  CA       -29.7550  -13.0900    3.8690 C.3   106  ASP106      0.1709
     82  C        -29.4230  -12.3000    2.6040 C.2   106  ASP106      0.2293
     83  O        -28.6520  -12.7960    1.7750 O.2   106  ASP106     -0.2864
     84  CB       -31.1620  -13.6930    3.7980 C.3   106  ASP106      0.1436
     85  CG       -31.4190  -14.4880    2.5240 C.2   106  ASP106      0.3671
     86  OD1      -31.0010  -15.6580    2.4610 O.co2 106  ASP106     -0.2456
     87  OD2      -32.0050  -13.9240    1.5800 O.co2 106  ASP106     -0.2456
     88  N        -25.7090  -11.7160    2.4750 N.3   109  ASN109     -0.1240
     89  CA       -25.0620  -12.9660    2.0950 C.3   109  ASN109      0.1653
     90  C        -25.1850  -13.2700    0.5810 C.2   109  ASN109      0.2266
     91  O        -24.2050  -13.6880   -0.0350 O.2   109  ASN109     -0.2867
     92  CB       -25.5570  -14.1210    2.9530 C.3   109  ASN109      0.1155
     93  CG       -24.4750  -15.0820    3.3630 C.2   109  ASN109      0.2627
     94  OD1      -24.4670  -15.5890    4.4820 O.2   109  ASN109     -0.2716
     95  ND2      -23.5330  -15.3560    2.4890 N.am  109  ASN109     -0.0877
     96  N        -22.1890  -13.6250   -2.1010 N.3   113  LEU113     -0.1245
     97  CA       -22.0880  -14.8310   -2.9460 C.3   113  LEU113      0.1561
     98  C        -21.9170  -14.4570   -4.4080 C.2   113  LEU113      0.2260
     99  O        -21.0180  -14.9810   -5.0710 O.2   113  LEU113     -0.2867
    100  CB       -23.3070  -15.7520   -2.7760 C.3   113  LEU113      0.0270
    101  CG       -23.4730  -16.4500   -1.4310 C.3   113  LEU113      0.0019
    102  CD1      -24.8710  -17.0850   -1.3480 C.3   113  LEU113      0.0001
    103  CD2      -22.3850  -17.5150   -1.2000 C.3   113  LEU113      0.0001
    104  N        -22.2000  -25.7510   -2.6050 N.3   125  PHE125     -0.1241
    105  CA       -23.1870  -25.7960   -1.5360 C.3   125  PHE125      0.1605
    106  C        -23.5500  -27.2220   -1.1720 C.2   125  PHE125      0.2264
    107  O        -23.1410  -28.1530   -1.8750 O.2   125  PHE125     -0.2867
    108  CB       -24.4360  -25.0000   -1.9440 C.3   125  PHE125      0.0534
    109  CG       -24.1590  -23.5410   -2.1970 C.ar  125  PHE125     -0.0203
    110  CD1      -24.2400  -22.6120   -1.1680 C.ar  125  PHE125     -0.0042
    111  CD2      -23.8180  -23.0950   -3.4690 C.ar  125  PHE125     -0.0042
    112  CE1      -23.9990  -21.2510   -1.4090 C.ar  125  PHE125     -0.0003
    113  CE2      -23.5780  -21.7340   -3.7110 C.ar  125  PHE125     -0.0003
    114  CZ       -23.6660  -20.8220   -2.6780 C.ar  125  PHE125     -0.0000
@<TRIPOS>BOND
     1    99    98    2
     2    98    97    1
     3   113   111   ar
     4   113   114   ar
     5   111   109   ar
     6    97   100    1
     7    97    96    1
     8   100   101    1
     9   114   112   ar
    10   104   105    1
    11   109   108    1
    12   109   110   ar
    13   108   105    1
    14   107   106    2
    15    39    40    2
    16    39    38    1
    17   105   106    1
    18   101   102    1
    19   101   103    1
    20   112   110   ar
    21    37    38    1
    22    37    43    1
    23    38    41    1
    24    32    31    1
    25    32    33    2
    26    43    42    1
    27    91    90    2
    28    34    31    1
    29    34    35    1
    30    31    30    1
    31    42    41    1
    32    90    89    1
    33    22    21    2
    34     5     2    1
    35    35    36    1
    36    10    11    1
    37    87    85   ar
    38    30    21   am
    39    30    36    1
    40    14    11    1
    41    14    15    1
    42    13    12    2
    43    83    82    2
    44    21    20    1
    45    89    88    1
    46    89    92    1
    47    11    12    1
    48    15    16    1
    49    86    85   ar
    50    95    93   am
    51    85    84    1
    52     2     3    1
    53     2     1    1
    54    82    81    1
    55     4     3    2
    56    92    93    1
    57    93    94    2
    58     3     6   am
    59    20    19    1
    60    20    23    1
    61    84    81    1
    62    16    17   ar
    63    16    18   ar
    64     9     8    2
    65    81    80    1
    66    23    24    1
    67     6     7    1
    68    72    71    2
    69     8     7    1
    70    80    71   am
    71    71    70    1
    72    24    25    1
    73    25    26    1
    74    70    69    1
    75    70    73    1
    76    76    75    1
    77    76    77    2
    78    59    60    1
    79    59    56    1
    80    79    77    1
    81    44    45    1
    82    26    27    2
    83    75    74    1
    84    77    78    1
    85    28    27    1
    86    74    73    1
    87    55    56    1
    88    55    46   am
    89    27    29    1
    90    45    46    1
    91    45    48    1
    92    56    57    1
    93    46    47    2
    94    58    57    2
    95    57    61   am
    96    64    63    2
    97    48    49    1
    98    61    62    1
    99    63    62    1
   100    49    50    1
   101    62    65    1
   102    50    51    1
   103    66    65    1
   104    66    68    1
   105    65    67    1
   106    51    52    2
   107    53    52    1
   108    52    54    1
