@<TRIPOS>MOLECULE
tmp/5mzcA03.pdb
 99 93 0 0 0
SMALL
GASTEIGER

@<TRIPOS>ATOM
      1  N         -7.4000  -23.6140   36.6730 N.3   414  ILE414     -0.1245
      2  CA        -7.9040  -22.3010   36.2490 C.3   414  ILE414      0.1561
      3  C         -6.7270  -21.2970   36.1830 C.2   414  ILE414      0.2260
      4  O         -6.6350  -20.4940   35.2460 O.2   414  ILE414     -0.2867
      5  CB        -9.0510  -21.8070   37.1850 C.3   414  ILE414      0.0252
      6  CG1      -10.3280  -22.6820   37.0430 C.3   414  ILE414      0.0019
      7  CG2       -9.3880  -20.3300   36.9250 C.3   414  ILE414      0.0019
      8  CD1      -11.3500  -22.5560   38.2460 C.3   414  ILE414      0.0001
      9  N         -4.2020  -22.1660   33.2750 N.3   417  GLN417     -0.1231
     10  CA        -4.8020  -21.7200   32.0190 C.3   417  GLN417      0.1698
     11  C         -4.7070  -20.2090   31.8500 C.2   417  GLN417      0.2592
     12  O         -4.3390  -19.7500   30.7650 O.2   417  GLN417     -0.2718
     13  CB        -6.2670  -22.1780   31.9190 C.3   417  GLN417      0.0381
     14  CG        -6.4380  -23.6800   31.7080 C.3   417  GLN417      0.0905
     15  CD        -7.8630  -24.1170   31.9570 C.2   417  GLN417      0.2608
     16  OE1       -8.8290  -23.5020   31.4960 O.2   417  GLN417     -0.2717
     17  NE2       -8.0340  -25.2050   32.6820 N.am  417  GLN417     -0.0878
     18  N         -5.0090  -19.4240   32.9070 N.am  418  LEU418     -0.1980
     19  CA        -4.9330  -17.9690   32.7560 C.3   418  LEU418      0.1596
     20  C         -3.4750  -17.4740   32.6330 C.2   418  LEU418      0.2287
     21  O         -3.2220  -16.5810   31.8270 O.2   418  LEU418     -0.2864
     22  CB        -5.7460  -17.1880   33.7990 C.3   418  LEU418      0.0297
     23  CG        -5.3290  -17.2260   35.2620 C.3   418  LEU418      0.0022
     24  CD1       -4.4730  -15.9970   35.6190 C.3   418  LEU418      0.0001
     25  CD2       -6.5700  -17.2780   36.1480 C.3   418  LEU418      0.0001
     26  N         -2.4140  -18.3580   29.0400 N.3   421  PHE421     -0.1227
     27  CA        -3.1070  -17.4730   28.0870 C.3   421  PHE421      0.1736
     28  C         -2.4450  -16.0830   28.0380 C.2   421  PHE421      0.2595
     29  O         -2.2310  -15.5460   26.9480 O.2   421  PHE421     -0.2718
     30  CB        -4.6090  -17.3220   28.4210 C.3   421  PHE421      0.0547
     31  CG        -5.4230  -16.7030   27.2980 C.ar  421  PHE421     -0.0202
     32  CD1       -6.1490  -17.5020   26.4200 C.ar  421  PHE421     -0.0042
     33  CD2       -5.4920  -15.3210   27.1420 C.ar  421  PHE421     -0.0042
     34  CE1       -6.8850  -16.9320   25.3680 C.ar  421  PHE421     -0.0003
     35  CE2       -6.2370  -14.7520   26.0990 C.ar  421  PHE421     -0.0003
     36  CZ        -6.9250  -15.5630   25.2180 C.ar  421  PHE421     -0.0000
     37  N         -2.1320  -15.5060   29.2210 N.am  422  ALA422     -0.1980
     38  CA        -1.5320  -14.1780   29.3220 C.3   422  ALA422      0.1597
     39  C         -0.0960  -14.1310   28.8110 C.2   422  ALA422      0.2287
     40  O          0.2820  -13.1450   28.1690 O.2   422  ALA422     -0.2864
     41  CB        -1.6000  -13.6790   30.7530 C.3   422  ALA422      0.0319
     42  N          1.0520  -15.9370   26.4820 N.3   424  ALA424     -0.1245
     43  CA         0.9960  -16.2520   25.0530 C.3   424  ALA424      0.1562
     44  C          0.8390  -14.9800   24.2070 C.2   424  ALA424      0.2260
     45  O          0.1200  -14.0510   24.6020 O.2   424  ALA424     -0.2867
     46  CB        -0.1370  -17.2050   24.7670 C.3   424  ALA424      0.0290
     47  N          3.1770  -12.8130   23.6850 N.3   426  HIS426     -0.1241
     48  CA         3.9440  -11.7770   24.4000 C.3   426  HIS426      0.1621
     49  C          5.3720  -12.2530   24.6640 C.2   426  HIS426      0.2264
     50  O          5.5760  -13.3410   25.2050 O.2   426  HIS426     -0.2867
     51  CB         3.2480  -11.3340   25.7100 C.3   426  HIS426      0.0745
     52  CG         1.9190  -10.6780   25.4860 C.ar  426  HIS426      0.0817
     53  ND1        1.8270   -9.3860   24.9910 N.ar  426  HIS426     -0.2268
     54  CD2        0.6690  -11.1590   25.6790 C.ar  426  HIS426      0.1154
     55  CE1        0.5330   -9.1250   24.8990 C.ar  426  HIS426      0.1986
     56  NE2       -0.2050  -10.1640   25.2920 N.ar  426  HIS426     -0.2212
     57  N          4.8290   -6.2000   28.2070 N.3   431  SER431     -0.1202
     58  CA         3.8050   -6.1350   27.1430 C.3   431  SER431      0.2020
     59  C          2.4470   -6.6960   27.6090 C.2   431  SER431      0.2619
     60  O          1.4180   -6.4210   26.9810 O.2   431  SER431     -0.2717
     61  CB         4.2710   -6.8620   25.8830 C.3   431  SER431      0.2103
     62  OG         4.6060   -8.2120   26.1510 O.3   431  SER431     -0.2182
     63  N          2.4500   -7.4620   28.7230 N.am  432  ILE432     -0.1965
     64  CA         1.2500   -8.0670   29.3170 C.3   432  ILE432      0.1727
     65  C          0.4780   -7.0300   30.1420 C.2   432  ILE432      0.2616
     66  O          1.0610   -6.3650   31.0010 O.2   432  ILE432     -0.2715
     67  CB         1.5730   -9.3700   30.1180 C.3   432  ILE432      0.0290
     68  CG1        2.3540  -10.3870   29.2450 C.3   432  ILE432      0.0022
     69  CG2        0.3000  -10.0140   30.6910 C.3   432  ILE432      0.0023
     70  CD1        3.1790  -11.4170   30.0150 C.3   432  ILE432      0.0001
     71  N         -0.8280   -6.8840   29.8560 N.am  433  ASN433     -0.1972
     72  CA        -1.7330   -5.9860   30.5660 C.3   433  ASN433      0.1688
     73  C         -2.1250   -6.6970   31.8670 C.2   433  ASN433      0.2292
     74  O         -2.9180   -7.6410   31.8310 O.2   433  ASN433     -0.2864
     75  CB        -2.9720   -5.6820   29.6980 C.3   433  ASN433      0.1181
     76  CG        -3.9850   -4.7330   30.3050 C.2   433  ASN433      0.2629
     77  OD1       -4.0260   -4.4790   31.5120 O.2   433  ASN433     -0.2716
     78  ND2       -4.8670   -4.2070   29.4730 N.am  433  ASN433     -0.0877
     79  N         -5.9280   -6.6480   32.9770 N.3   436  ALA436     -0.1231
     80  CA        -6.7150   -7.5880   32.1810 C.3   436  ALA436      0.1694
     81  C         -6.5880   -8.9950   32.7930 C.2   436  ALA436      0.2591
     82  O         -7.5940   -9.6910   32.9170 O.2   436  ALA436     -0.2718
     83  CB        -6.2300   -7.5900   30.7450 C.3   436  ALA436      0.0304
     84  N         -5.3720   -9.3990   33.2040 N.am  437  VAL437     -0.1980
     85  CA        -5.1440  -10.7080   33.8450 C.3   437  VAL437      0.1595
     86  C         -5.9070  -10.7450   35.1810 C.2   437  VAL437      0.2287
     87  O         -6.5650  -11.7450   35.4830 O.2   437  VAL437     -0.2864
     88  CB        -3.6360  -11.0160   34.0510 C.3   437  VAL437      0.0276
     89  CG1       -3.4200  -12.4540   34.5110 C.3   437  VAL437      0.0022
     90  CG2       -2.8310  -10.7350   32.7830 C.3   437  VAL437      0.0022
     91  N         -9.7210  -11.5660   34.6900 N.3   440  GLU440     -0.1245
     92  CA       -10.1630  -12.9770   34.5950 C.3   440  GLU440      0.1567
     93  C         -9.9720  -13.6970   35.9210 C.2   440  GLU440      0.2260
     94  O        -10.6760  -14.6750   36.1710 O.2   440  GLU440     -0.2867
     95  CB        -9.5920  -13.7900   33.4050 C.3   440  GLU440      0.0388
     96  CG       -10.7000  -14.3820   32.4980 C.3   440  GLU440      0.1160
     97  CD       -11.1180  -15.8480   32.5960 C.2   440  GLU440      0.3649
     98  OE1      -12.2390  -16.2120   32.1320 O.co2 440  GLU440     -0.2457
     99  OE2      -10.2960  -16.6400   33.1210 O.co2 440  GLU440     -0.2457
@<TRIPOS>BOND
     1    47    48    1
     2    44    45    2
     3    44    43    1
     4    48    49    1
     5    48    51    1
     6    49    50    2
     7    46    43    1
     8    55    53   ar
     9    55    56   ar
    10    53    52   ar
    11    43    42    1
    12    36    34   ar
    13    36    35   ar
    14    56    54   ar
    15    34    32   ar
    16    52    54   ar
    17    52    51    1
    18    61    62    1
    19    61    58    1
    20    35    33   ar
    21    32    31   ar
    22    29    28    2
    23    60    59    2
    24    33    31   ar
    25    58    59    1
    26    58    57    1
    27    31    30    1
    28    59    63   am
    29    28    27    1
    30    28    37   am
    31    27    30    1
    32    27    26    1
    33    40    39    2
    34    63    64    1
    35    39    38    1
    36    37    38    1
    37    68    70    1
    38    68    67    1
    39    64    67    1
    40    64    65    1
    41    38    41    1
    42    78    76   am
    43    75    76    1
    44    75    72    1
    45    71    65   am
    46    71    72    1
    47    67    69    1
    48    65    66    2
    49    76    77    2
    50    72    73    1
    51    83    80    1
    52    12    11    2
    53    16    15    2
    54    14    13    1
    55    14    15    1
    56    21    20    2
    57    74    73    2
    58    11    10    1
    59    11    18   am
    60    13    10    1
    61    15    17   am
    62    10     9    1
    63    98    97   ar
    64    80    81    1
    65    80    79    1
    66    96    97    1
    67    96    95    1
    68    97    99   ar
    69    20    19    1
    70    19    18    1
    71    19    22    1
    72    90    88    1
    73    81    82    2
    74    81    84   am
    75    84    85    1
    76    95    92    1
    77    22    23    1
    78    85    88    1
    79    85    86    1
    80    88    89    1
    81    92    91    1
    82    92    93    1
    83    86    87    2
    84     4     3    2
    85    23    24    1
    86    23    25    1
    87    93    94    2
    88     3     2    1
    89     2     1    1
    90     2     5    1
    91     7     5    1
    92     6     5    1
    93     6     8    1
