@<TRIPOS>MOLECULE
tmp/5mzcB02.pdb
 186 174 0 0 0
SMALL
GASTEIGER

@<TRIPOS>ATOM
      1  N        -32.8030  -12.2060   10.1170 N.3    47  ILE47      -0.1231
      2  CA       -32.7230  -11.0230   10.9700 C.3    47  ILE47       0.1692
      3  C        -31.8960   -9.9780   10.2240 C.2    47  ILE47       0.2592
      4  O        -31.2120  -10.3060    9.2650 O.2    47  ILE47      -0.2718
      5  CB       -32.1080  -11.3280   12.3770 C.3    47  ILE47       0.0266
      6  CG1      -30.5830  -11.6590   12.2890 C.3    47  ILE47       0.0019
      7  CG2      -32.9170  -12.4180   13.1140 C.3    47  ILE47       0.0020
      8  CD1      -29.7570  -11.5110   13.5940 C.3    47  ILE47       0.0001
      9  N        -31.9060   -8.7580   10.7190 N.am   48  ASN48      -0.1974
     10  CA       -31.1040   -7.6620   10.2160 C.3    48  ASN48       0.1688
     11  C        -29.9040   -7.4780   11.1340 C.2    48  ASN48       0.2292
     12  O        -29.9730   -7.7790   12.3340 O.2    48  ASN48      -0.2864
     13  CB       -31.9250   -6.3590   10.0940 C.3    48  ASN48       0.1181
     14  CG       -32.6160   -6.2290    8.7520 C.2    48  ASN48       0.2629
     15  OD1      -33.1530   -7.2050    8.2070 O.2    48  ASN48      -0.2716
     16  ND2      -32.6280   -5.0220    8.1870 N.am   48  ASN48      -0.0877
     17  N        -26.5890   -4.7060   12.2850 N.3    50  ALA50      -0.1245
     18  CA       -26.1170   -3.3210   12.2190 C.3    50  ALA50       0.1562
     19  C        -24.7210   -3.3320   11.5520 C.2    50  ALA50       0.2260
     20  O        -23.7840   -3.9690   12.0460 O.2    50  ALA50      -0.2867
     21  CB       -26.0570   -2.6900   13.5980 C.3    50  ALA50       0.0290
     22  N        -29.6370    6.5530   18.3560 N.3    78  ARG78      -0.1245
     23  CA       -30.2090    5.5670   19.2560 C.3    78  ARG78       0.1563
     24  C        -31.4720    6.1570   19.9280 C.2    78  ARG78       0.2260
     25  O        -31.4130    7.2400   20.5410 O.2    78  ARG78      -0.2867
     26  CB       -29.1610    5.1680   20.2810 C.3    78  ARG78       0.0307
     27  CG       -29.6370    4.1050   21.2470 C.3    78  ARG78       0.0489
     28  CD       -28.4910    3.6210   22.0960 C.3    78  ARG78       0.2205
     29  NE       -28.0330    4.5740   23.0970 N.pl3  78  ARG78      -0.0865
     30  CZ       -27.0820    4.3110   23.9880 C.cat  78  ARG78       0.5346
     31  NH1      -26.4820    3.1250   23.9990 N.pl3  78  ARG78       0.1354
     32  NH2      -26.7090    5.2370   24.8650 N.pl3  78  ARG78       0.1354
     33  N        -26.0450    9.9070   16.3860 N.3    92  TYR92      -0.1241
     34  CA       -24.6950    9.3470   16.3950 C.3    92  TYR92       0.1605
     35  C        -23.6020   10.3510   16.0580 C.2    92  TYR92       0.2264
     36  O        -22.4730   10.1700   16.5180 O.2    92  TYR92      -0.2867
     37  CB       -24.5880    8.1600   15.4320 C.3    92  TYR92       0.0534
     38  CG       -25.4000    6.9600   15.8490 C.ar   92  TYR92      -0.0201
     39  CD1      -25.2780    6.4180   17.1290 C.ar   92  TYR92      -0.0009
     40  CD2      -26.2290    6.3100   14.9420 C.ar   92  TYR92      -0.0009
     41  CE1      -26.0260    5.3120   17.5180 C.ar   92  TYR92       0.0417
     42  CE2      -26.9860    5.2050   15.3210 C.ar   92  TYR92       0.0417
     43  CZ       -26.8830    4.7110   16.6060 C.ar   92  TYR92       0.1957
     44  OH       -27.6060    3.6030   16.9440 O.3    92  TYR92      -0.2866
     45  N        -25.4350    4.2130   11.3450 N.3   100  ILE100     -0.1245
     46  CA       -25.2700    2.7610   11.3200 C.3   100  ILE100      0.1561
     47  C        -26.3160    2.2690   10.3120 C.2   100  ILE100      0.2260
     48  O        -27.3610    2.8900   10.1780 O.2   100  ILE100     -0.2867
     49  CB       -25.4600    2.1140   12.7160 C.3   100  ILE100      0.0252
     50  CG1      -24.5150    2.7600   13.7680 C.3   100  ILE100      0.0019
     51  CG2      -25.1960    0.5810   12.6210 C.3   100  ILE100      0.0019
     52  CD1      -24.7930    2.3210   15.2160 C.3   100  ILE100      0.0001
     53  N        -36.3350  -13.5720   19.7130 N.3   189  GLU189     -0.1245
     54  CA       -36.6940  -12.6350   18.6540 C.3   189  GLU189      0.1567
     55  C        -38.1940  -12.5570   18.5200 C.2   189  GLU189      0.2260
     56  O        -38.8720  -13.5870   18.5520 O.2   189  GLU189     -0.2867
     57  CB       -36.0110  -13.0160   17.3430 C.3   189  GLU189      0.0388
     58  CG       -34.5170  -12.7560   17.4000 C.3   189  GLU189      0.1160
     59  CD       -33.6730  -13.5530   16.4330 C.2   189  GLU189      0.3649
     60  OE1      -32.4690  -13.2410   16.3190 O.co2 189  GLU189     -0.2457
     61  OE2      -34.2170  -14.4470   15.7480 O.co2 189  GLU189     -0.2457
     62  N        -32.0040    3.0500   15.8980 N.3   207  LEU207     -0.1245
     63  CA       -31.7960    1.7820   16.5930 C.3   207  LEU207      0.1561
     64  C        -32.5200    1.9800   17.9250 C.2   207  LEU207      0.2260
     65  O        -32.2750    2.9820   18.6110 O.2   207  LEU207     -0.2867
     66  CB       -30.2880    1.5270   16.8180 C.3   207  LEU207      0.0270
     67  CG       -29.9380    0.1990   17.4800 C.3   207  LEU207      0.0019
     68  CD1      -28.6170   -0.3290   16.9720 C.3   207  LEU207      0.0001
     69  CD2      -29.7890    0.3640   18.9880 C.3   207  LEU207      0.0001
     70  N        -33.7530    0.9750   21.8460 N.3   209  ILE209     -0.1245
     71  CA       -33.3820    0.2320   23.0470 C.3   209  ILE209      0.1561
     72  C        -34.4070    0.4930   24.1610 C.2   209  ILE209      0.2260
     73  O        -34.7810    1.6400   24.3780 O.2   209  ILE209     -0.2867
     74  CB       -31.9100    0.5340   23.4880 C.3   209  ILE209      0.0252
     75  CG1      -30.9080    0.0850   22.4050 C.3   209  ILE209      0.0019
     76  CG2      -31.5590   -0.1400   24.8270 C.3   209  ILE209      0.0019
     77  CD1      -29.4240    0.4370   22.6950 C.3   209  ILE209      0.0001
     78  N        -33.3310   -6.5140   28.8900 N.3   216  MET216     -0.1245
     79  CA       -33.5900   -5.3890   27.9810 C.3   216  MET216      0.1570
     80  C        -34.0830   -5.8740   26.6330 C.2   216  MET216      0.2261
     81  O        -33.8930   -7.0410   26.2780 O.2   216  MET216     -0.2867
     82  CB       -32.3010   -4.5610   27.7390 C.3   216  MET216      0.0387
     83  CG       -31.1840   -5.3650   27.0480 C.3   216  MET216      0.0595
     84  SD       -29.8230   -4.3630   26.4800 S.3   216  MET216     -0.1393
     85  CE       -30.4890   -3.7400   24.9510 C.3   216  MET216      0.0692
     86  N        -33.9780   -4.7190   22.3290 N.3   218  ILE218     -0.1245
     87  CA       -33.3910   -3.8930   21.2630 C.3   218  ILE218      0.1561
     88  C        -34.2630   -4.0990   20.0120 C.2   218  ILE218      0.2260
     89  O        -34.8470   -5.1690   19.8590 O.2   218  ILE218     -0.2867
     90  CB       -31.8880   -4.2250   20.9950 C.3   218  ILE218      0.0252
     91  CG1      -31.2610   -3.2560   19.9730 C.3   218  ILE218      0.0019
     92  CG2      -31.7000   -5.6690   20.4950 C.3   218  ILE218      0.0019
     93  CD1      -29.7980   -3.0500   20.2020 C.3   218  ILE218      0.0001
     94  N        -34.2770   -3.3730   15.6280 N.3   220  LEU220     -0.1245
     95  CA       -33.6830   -2.8520   14.4090 C.3   220  LEU220      0.1561
     96  C        -34.7540   -2.7910   13.3230 C.2   220  LEU220      0.2260
     97  O        -35.5400   -3.7280   13.1610 O.2   220  LEU220     -0.2867
     98  CB       -32.4840   -3.6910   13.9370 C.3   220  LEU220      0.0270
     99  CG       -31.0940   -3.3190   14.4760 C.3   220  LEU220      0.0019
    100  CD1      -30.9640   -3.6530   15.9680 C.3   220  LEU220      0.0001
    101  CD2      -30.0190   -4.0890   13.7070 C.3   220  LEU220      0.0001
    102  N        -35.3880   -7.8890   19.8590 N.3   230  THR230     -0.1218
    103  CA       -34.6550   -8.9400   20.5650 C.3   230  THR230      0.1862
    104  C        -34.7040   -8.6790   22.0540 C.2   230  THR230      0.2287
    105  O        -34.2510   -7.6300   22.5140 O.2   230  THR230     -0.2866
    106  CB       -33.2040   -9.1280   20.0640 C.3   230  THR230      0.1770
    107  OG1      -33.1910   -9.3400   18.6580 O.3   230  THR230     -0.2211
    108  CG2      -32.4840  -10.2900   20.7700 C.3   230  THR230      0.0375
    109  N        -33.2860   -9.6710   25.6640 N.3   232  PHE232     -0.1241
    110  CA       -32.1340  -10.2970   26.3230 C.3   232  PHE232      0.1605
    111  C        -32.5600  -10.4970   27.7690 C.2   232  PHE232      0.2264
    112  O        -32.9150   -9.5310   28.4320 O.2   232  PHE232     -0.2867
    113  CB       -30.8530   -9.4480   26.2190 C.3   232  PHE232      0.0534
    114  CG       -30.3110   -9.3660   24.8090 C.ar  232  PHE232     -0.0203
    115  CD1      -29.5900  -10.4190   24.2600 C.ar  232  PHE232     -0.0042
    116  CD2      -30.5410   -8.2460   24.0220 C.ar  232  PHE232     -0.0042
    117  CE1      -29.1120  -10.3530   22.9360 C.ar  232  PHE232     -0.0003
    118  CE2      -30.0680   -8.1830   22.7000 C.ar  232  PHE232     -0.0003
    119  CZ       -29.3360   -9.2250   22.1740 C.ar  232  PHE232     -0.0000
    120  N        -23.3610  -10.3940   21.2940 N.3   312  PRO312     -0.2102
    121  CA       -23.7570   -9.4240   20.2300 C.3   312  PRO312      0.1504
    122  C        -24.0570   -8.0000   20.6950 C.2   312  PRO312      0.2576
    123  O        -24.5920   -7.2050   19.9080 O.2   312  PRO312     -0.2718
    124  CB       -25.0110  -10.0750   19.6260 C.3   312  PRO312      0.0282
    125  CG       -25.6580  -10.7390   20.8350 C.3   312  PRO312      0.0208
    126  CD       -24.4970  -11.2680   21.6690 C.3   312  PRO312      0.0893
    127  N        -23.7020   -7.6710   21.9450 N.am  313  PHE313     -0.1963
    128  CA       -24.0890   -6.3960   22.5770 C.3   313  PHE313      0.1771
    129  C        -23.4720   -5.1190   21.9880 C.2   313  PHE313      0.2620
    130  O        -23.9090   -4.0240   22.3440 O.2   313  PHE313     -0.2715
    131  CB       -23.8570   -6.4390   24.0880 C.3   313  PHE313      0.0574
    132  CG       -24.4270   -7.6570   24.7880 C.ar  313  PHE313     -0.0200
    133  CD1      -25.7270   -8.0910   24.5270 C.ar  313  PHE313     -0.0042
    134  CD2      -23.6990   -8.3130   25.7660 C.ar  313  PHE313     -0.0042
    135  CE1      -26.2520   -9.2150   25.1770 C.ar  313  PHE313     -0.0003
    136  CE2      -24.2380   -9.4170   26.4440 C.ar  313  PHE313     -0.0003
    137  CZ       -25.5040   -9.8630   26.1390 C.ar  313  PHE313     -0.0000
    138  N        -22.4900   -5.2420   21.1030 N.am  314  HIS314     -0.1959
    139  CA       -21.9440   -4.0790   20.4230 C.3   314  HIS314      0.1787
    140  C        -22.3200   -4.0440   18.9260 C.2   314  HIS314      0.2620
    141  O        -22.0200   -3.0430   18.2640 O.2   314  HIS314     -0.2715
    142  CB       -20.4140   -3.9690   20.6110 C.3   314  HIS314      0.0785
    143  CG       -19.9230   -2.5530   20.7950 C.ar  314  HIS314      0.0821
    144  ND1      -20.2020   -1.5650   19.8680 N.ar  314  HIS314     -0.2267
    145  CD2      -19.1560   -2.0200   21.7850 C.ar  314  HIS314      0.1154
    146  CE1      -19.6220   -0.4650   20.3380 C.ar  314  HIS314      0.1986
    147  NE2      -18.9750   -0.6940   21.4800 N.ar  314  HIS314     -0.2212
    148  N        -22.9800   -5.0980   18.4060 N.am  315  GLY315     -0.1954
    149  CA       -23.3420   -5.1850   16.9780 C.3   315  GLY315      0.1869
    150  C        -22.0740   -5.0940   16.1370 C.2   315  GLY315      0.2309
    151  O        -21.9990   -4.2940   15.1990 O.2   315  GLY315     -0.2863
    152  N        -20.4930   -3.3560   26.9070 N.3   363  ASN363     -0.1240
    153  CA       -21.5730   -2.5560   26.3270 C.3   363  ASN363      0.1653
    154  C        -22.9660   -2.9390   26.8440 C.2   363  ASN363      0.2266
    155  O        -23.8480   -2.0830   26.8070 O.2   363  ASN363     -0.2867
    156  CB       -21.5350   -2.5220   24.7960 C.3   363  ASN363      0.1155
    157  CG       -22.2450   -1.3160   24.2270 C.2   363  ASN363      0.2627
    158  OD1      -22.0190   -0.1830   24.6570 O.2   363  ASN363     -0.2716
    159  ND2      -23.1150   -1.5240   23.2390 N.am  363  ASN363     -0.0877
    160  N        -25.7990   -0.0650   27.7680 N.3   367  MET367     -0.1245
    161  CA       -27.1170   -0.0180   27.1490 C.3   367  MET367      0.1570
    162  C        -28.2660   -0.2160   28.1400 C.2   367  MET367      0.2261
    163  O        -29.3130    0.3980   27.9790 O.2   367  MET367     -0.2867
    164  CB       -27.2450   -1.1160   26.0900 C.3   367  MET367      0.0387
    165  CG       -26.5060   -0.8460   24.7940 C.3   367  MET367      0.0595
    166  SD       -26.9420   -2.1390   23.5820 S.3   367  MET367     -0.1393
    167  CE       -26.4140   -3.5900   24.4860 C.3   367  MET367      0.0692
    168  N        -17.6090    4.4940   22.0890 N.3   398  TYR398     -0.1241
    169  CA       -18.6210    3.9970   21.1560 C.3   398  TYR398      0.1605
    170  C        -18.3270    4.5060   19.7200 C.2   398  TYR398      0.2264
    171  O        -18.4470    3.7330   18.7830 O.2   398  TYR398     -0.2867
    172  CB       -20.0570    4.3910   21.5930 C.3   398  TYR398      0.0534
    173  CG       -21.0960    3.7650   20.6940 C.ar  398  TYR398     -0.0201
    174  CD1      -21.5480    2.4680   20.9200 C.ar  398  TYR398     -0.0009
    175  CD2      -21.5720    4.4370   19.5670 C.ar  398  TYR398     -0.0009
    176  CE1      -22.4550    1.8590   20.0640 C.ar  398  TYR398      0.0417
    177  CE2      -22.4930    3.8420   18.7100 C.ar  398  TYR398      0.0417
    178  CZ       -22.9320    2.5500   18.9660 C.ar  398  TYR398      0.1957
    179  OH       -23.8420    1.9240   18.1530 O.3   398  TYR398     -0.2866
    180  N        -17.4920    2.1470   16.5410 N.3   402  THR402     -0.1218
    181  CA       -18.5210    2.1520   15.5110 C.3   402  THR402      0.1862
    182  C        -18.2080    2.9620   14.2580 C.2   402  THR402      0.2287
    183  O        -18.5780    2.5130   13.1680 O.2   402  THR402     -0.2866
    184  CB       -19.8770    2.5900   16.1170 C.3   402  THR402      0.1770
    185  OG1      -20.0800    1.8830   17.3350 O.3   402  THR402     -0.2211
    186  CG2      -21.0620    2.3170   15.1790 C.3   402  THR402      0.0375
@<TRIPOS>BOND
     1    16    14   am
     2    15    14    2
     3    14    13    1
     4     4     3    2
     5    13    10    1
     6     1     2    1
     7    48    47    2
     8    10     9    1
     9    10    11    1
    10     3     9   am
    11     3     2    1
    12    47    46    1
    13     2     5    1
    14    11    12    2
    15    46    45    1
    16    46    49    1
    17    19    20    2
    18    19    18    1
    19    18    17    1
    20    18    21    1
    21     6     5    1
    22     6     8    1
    23     5     7    1
    24    51    49    1
    25    49    50    1
    26    97    96    2
    27   183   182    2
    28    96    95    1
    29   101    99    1
    30    50    52    1
    31    98    95    1
    32    98    99    1
    33   182   181    1
    34    95    94    1
    35    99   100    1
    36    40    42   ar
    37    40    38   ar
    38   186   184    1
    39   151   150    2
    40    42    43   ar
    41    37    38    1
    42    37    34    1
    43   181   184    1
    44   181   180    1
    45    61    59   ar
    46    38    39   ar
    47    62    63    1
    48    35    34    1
    49    35    36    2
    50   184   185    1
    51   150   149    1
    52    60    59   ar
    53    33    34    1
    54    59    58    1
    55    63    66    1
    56    63    64    1
    57    43    44    1
    58    43    41   ar
    59    66    67    1
    60    68    67    1
    61   149   148    1
    62    39    41   ar
    63    57    58    1
    64    57    54    1
    65    67    69    1
    66    64    65    2
    67   179   178    1
    68   141   140    2
    69    22    23    1
    70   148   140   am
    71    55    56    2
    72    55    54    1
    73    54    53    1
    74   107   106    1
    75   177   178   ar
    76   177   175   ar
    77   171   170    2
    78   140   139    1
    79   178   176   ar
    80    23    24    1
    81    23    26    1
    82   175   173   ar
    83   124   121    1
    84   124   125    1
    85   170   169    1
    86    89    88    2
    87   102   103    1
    88   144   146   ar
    89   144   143   ar
    90   123   122    2
    91    24    25    2
    92    91    93    1
    93    91    90    1
    94    88    87    1
    95   176   174   ar
    96   106   103    1
    97   106   108    1
    98   121   122    1
    99   121   120    1
   100    26    27    1
   101   146   147   ar
   102   139   142    1
   103   139   138    1
   104    92    90    1
   105   103   104    1
   106   142   143    1
   107   173   174   ar
   108   173   172    1
   109   122   127   am
   110   143   145   ar
   111   125   126    1
   112    90    87    1
   113   138   129   am
   114   169   172    1
   115   169   168    1
   116    27    28    1
   117    87    86    1
   118   120   126    1
   119   147   145   ar
   120    70    71    1
   121   127   128    1
   122   129   130    2
   123   129   128    1
   124   104   105    2
   125    28    29    1
   126   119   118   ar
   127   119   117   ar
   128    75    77    1
   129    75    74    1
   130   128   131    1
   131   118   116   ar
   132   117   115   ar
   133    71    74    1
   134    71    72    1
   135    29    30    2
   136   159   157   am
   137    74    76    1
   138   166   167    1
   139   166   165    1
   140    30    31    1
   141    30    32    1
   142   116   114   ar
   143   131   132    1
   144    72    73    2
   145   157   158    2
   146   157   156    1
   147   115   114   ar
   148   133   132   ar
   149   133   135   ar
   150   132   134   ar
   151   165   164    1
   152   156   153    1
   153   114   113    1
   154    85    84    1
   155   135   137   ar
   156   109   110    1
   157   134   136   ar
   158   164   161    1
   159   137   136   ar
   160   113   110    1
   161    81    80    2
   162   110   111    1
   163   153   154    1
   164   153   152    1
   165    84    83    1
   166    80    79    1
   167   155   154    2
   168    83    82    1
   169   161   160    1
   170   161   162    1
   171    82    79    1
   172   111   112    2
   173   163   162    2
   174    79    78    1
