@<TRIPOS>MOLECULE
tmp/5mzeC01.pdb
 226 219 0 0 0
SMALL
GASTEIGER

@<TRIPOS>ATOM
      1  N         29.7950   13.9610   56.7540 N.3     5  TYR5       -0.1227
      2  CA        29.6390   14.2110   55.3310 C.3     5  TYR5        0.1736
      3  C         29.0100   15.5620   55.0920 C.2     5  TYR5        0.2596
      4  O         28.3330   16.0930   55.9420 O.2     5  TYR5       -0.2718
      5  CB        28.7560   13.1530   54.6690 C.3     5  TYR5        0.0548
      6  CG        29.3150   11.7620   54.6560 C.ar    5  TYR5       -0.0200
      7  CD1       29.1720   10.9240   55.7600 C.ar    5  TYR5       -0.0009
      8  CD2       29.9430   11.2590   53.5410 C.ar    5  TYR5       -0.0009
      9  CE1       29.6550    9.6230   55.7390 C.ar    5  TYR5        0.0417
     10  CE2       30.4320    9.9630   53.5100 C.ar    5  TYR5        0.0417
     11  CZ        30.2810    9.1530   54.6050 C.ar    5  TYR5        0.1957
     12  OH        30.7520    7.8730   54.5540 O.3     5  TYR5       -0.2866
     13  N         29.2660   16.0960   53.9070 N.am    6  THR6       -0.1939
     14  CA        28.6930   17.3510   53.4320 C.3     6  THR6        0.2028
     15  C         27.7720   17.1190   52.2210 C.2     6  THR6        0.2642
     16  O         27.9630   16.1990   51.4200 O.2     6  THR6       -0.2714
     17  CB        29.8030   18.3110   52.9660 C.3     6  THR6        0.1808
     18  OG1       30.6400   17.6330   52.0130 O.3     6  THR6       -0.2208
     19  CG2       30.6380   18.7800   54.1560 C.3     6  THR6        0.0379
     20  N         26.8010   17.9990   52.1010 N.am    7  LEU7       -0.1977
     21  CA        25.9250   18.0640   50.9440 C.3     7  LEU7        0.1596
     22  C         25.6440   19.5340   50.6830 C.2     7  LEU7        0.2287
     23  O         25.3110   20.2810   51.6130 O.2     7  LEU7       -0.2864
     24  CB        24.6430   17.2920   51.1860 C.3     7  LEU7        0.0297
     25  CG        23.8060   16.9430   49.9630 C.3     7  LEU7        0.0022
     26  CD1       24.5940   16.0210   49.0430 C.3     7  LEU7        0.0001
     27  CD2       22.5120   16.2790   50.4150 C.3     7  LEU7        0.0001
     28  N         25.5780   11.1110   40.0630 N.3    21  LYS21      -0.1245
     29  CA        26.6940   10.4260   40.6830 C.3    21  LYS21       0.1561
     30  C         27.0520    9.2660   39.7540 C.2    21  LYS21       0.2260
     31  O         26.1790    8.4760   39.3550 O.2    21  LYS21      -0.2867
     32  CB        26.3040    9.9730   42.1000 C.3    21  LYS21       0.0271
     33  CG        27.3990    9.3530   42.9350 C.3    21  LYS21       0.0035
     34  CD        28.4770   10.3430   43.3020 C.3    21  LYS21       0.0206
     35  CE        29.4370    9.7330   44.3050 C.3    21  LYS21       0.1093
     36  NZ        28.8910    9.7360   45.6750 N.3    21  LYS21      -0.1314
     37  N         29.0900    5.4250   46.1940 N.3    25  PHE25      -0.1241
     38  CA        27.8680    5.4800   46.9720 C.3    25  PHE25       0.1605
     39  C         26.8290    6.4080   46.2970 C.2    25  PHE25       0.2264
     40  O         27.0900    7.5820   46.0320 O.2    25  PHE25      -0.2867
     41  CB        28.1960    5.9340   48.3870 C.3    25  PHE25       0.0534
     42  CG        27.0370    5.8780   49.3320 C.ar   25  PHE25      -0.0203
     43  CD1       26.2620    7.0050   49.5640 C.ar   25  PHE25      -0.0042
     44  CD2       26.7320    4.7020   50.0080 C.ar   25  PHE25      -0.0042
     45  CE1       25.2000    6.9600   50.4570 C.ar   25  PHE25      -0.0003
     46  CE2       25.6720    4.6520   50.8980 C.ar   25  PHE25      -0.0003
     47  CZ        24.9070    5.7780   51.1230 C.ar   25  PHE25      -0.0000
     48  N         22.1130   14.0850   42.8770 N.3    31  ASN31      -0.1225
     49  CA        22.3780   14.5760   44.2120 C.3    31  ASN31       0.1785
     50  C         22.9770   15.9590   44.2600 C.2    31  ASN31       0.2597
     51  O         23.4210   16.5040   43.2420 O.2    31  ASN31      -0.2718
     52  CB        23.2870   13.5890   44.9470 C.3    31  ASN31       0.1169
     53  CG        22.9370   13.4530   46.4180 C.2    31  ASN31       0.2627
     54  OD1       22.3220   14.3340   47.0190 O.2    31  ASN31      -0.2716
     55  ND2       23.3380   12.3480   47.0060 N.am   31  ASN31      -0.0877
     56  N         22.9780   16.5280   45.4700 N.am   32  GLY32      -0.1957
     57  CA        23.8360   17.6400   45.7800 C.3    32  GLY32       0.1869
     58  C         25.2900   17.1610   45.7130 C.2    32  GLY32       0.2309
     59  O         25.5650   15.9700   45.5710 O.2    32  GLY32      -0.2863
     60  N         29.0690   16.8750   47.4000 N.3    34  GLY34      -0.1210
     61  CA        29.6940   16.7750   48.7080 C.3    34  GLY34       0.1956
     62  C         30.4000   15.4430   48.8120 C.2    34  GLY34       0.2612
     63  O         30.6940   14.8160   47.8160 O.2    34  GLY34      -0.2717
     64  N         30.6900   15.0480   50.0340 N.am   35  GLY35      -0.1942
     65  CA        31.5610   13.9300   50.2830 C.3    35  GLY35       0.2014
     66  C         32.0490   13.9330   51.6970 C.2    35  GLY35       0.2638
     67  O         31.4700   14.5740   52.5520 O.2    35  GLY35      -0.2714
     68  N         33.1080   13.1920   51.9310 N.am   36  LYS36      -0.1977
     69  CA        33.6560   12.9960   53.2660 C.3    36  LYS36       0.1596
     70  C         34.3380   14.2660   53.7790 C.2    36  LYS36       0.2287
     71  O         35.0250   14.9710   53.0370 O.2    36  LYS36      -0.2864
     72  CB        34.6580   11.8290   53.2630 C.3    36  LYS36       0.0298
     73  CG        34.0290   10.4360   53.2210 C.3    36  LYS36       0.0038
     74  CD        35.0220    9.4080   52.7010 C.3    36  LYS36       0.0206
     75  CE        34.3600    8.1310   52.2380 C.3    36  LYS36       0.1093
     76  NZ        33.8730    8.3020   50.8270 N.3    36  LYS36      -0.1314
     77  N         37.2110   15.7430   55.8580 N.3    38  GLN38      -0.1245
     78  CA        38.5570   15.3480   56.2860 C.3    38  GLN38       0.1566
     79  C         38.9460   15.8650   57.6800 C.2    38  GLN38       0.2260
     80  O         38.4260   16.8730   58.1680 O.2    38  GLN38      -0.2867
     81  CB        39.5850   15.8290   55.2790 C.3    38  GLN38       0.0367
     82  CG        39.4040   15.2240   53.9000 C.3    38  GLN38       0.0905
     83  CD        40.2850   15.8790   52.8670 C.2    38  GLN38       0.2608
     84  OE1       41.1130   16.7390   53.1820 O.2    38  GLN38      -0.2717
     85  NE2       40.0960   15.4970   51.6200 N.am   38  GLN38      -0.0878
     86  N         35.1580   22.5300   49.3340 N.3    49  ARG49      -0.1231
     87  CA        36.1520   21.7330   48.6310 C.3    49  ARG49       0.1694
     88  C         35.4940   20.7130   47.7300 C.2    49  ARG49       0.2591
     89  O         35.9090   20.5410   46.5730 O.2    49  ARG49      -0.2718
     90  CB        37.0810   21.0060   49.6060 C.3    49  ARG49       0.0321
     91  CG        38.1770   20.1960   48.9190 C.3    49  ARG49       0.0489
     92  CD        39.0550   19.4410   49.9140 C.3    49  ARG49       0.2205
     93  NE        38.2870   18.7400   50.9590 N.pl3  49  ARG49      -0.0865
     94  CZ        37.6390   17.5950   50.7860 C.cat  49  ARG49       0.5346
     95  NH1       37.6150   17.0120   49.5910 N.pl3  49  ARG49       0.1354
     96  NH2       36.9580   17.0500   51.7930 N.pl3  49  ARG49       0.1354
     97  N         34.4760   20.0330   48.2530 N.am   50  GLU50      -0.1979
     98  CA        33.8400   18.9900   47.4930 C.3    50  GLU50       0.1602
     99  C         33.0460   19.5910   46.3460 C.2    50  GLU50       0.2287
    100  O         33.0390   19.0240   45.2720 O.2    50  GLU50      -0.2864
    101  CB        32.9420   18.1210   48.3570 C.3    50  GLU50       0.0415
    102  CG        33.6610   17.3230   49.4190 C.3    50  GLU50       0.1163
    103  CD        34.2700   16.0050   48.9600 C.2    50  GLU50       0.3649
    104  OE1       34.0720   15.5500   47.8140 O.co2  50  GLU50      -0.2457
    105  OE2       34.9830   15.4250   49.7980 O.co2  50  GLU50      -0.2457
    106  N         35.6160   20.3740   43.6270 N.3    53  GLU53      -0.1245
    107  CA        36.1660   19.1650   43.0260 C.3    53  GLU53       0.1567
    108  C         35.1600   18.5010   42.0900 C.2    53  GLU53       0.2260
    109  O         35.5060   18.1070   40.9950 O.2    53  GLU53      -0.2867
    110  CB        36.6320   18.1690   44.1040 C.3    53  GLU53       0.0388
    111  CG        37.8820   18.6270   44.8640 C.3    53  GLU53       0.1160
    112  CD        38.3220   17.6790   45.9790 C.2    53  GLU53       0.3649
    113  OE1       37.7100   16.5980   46.1570 O.co2  53  GLU53      -0.2457
    114  OE2       39.3130   18.0110   46.6780 O.co2  53  GLU53      -0.2457
    115  N         22.0660    9.1270   58.7000 N.3    70  PHE70      -0.1241
    116  CA        21.5130    7.9730   57.9920 C.3    70  PHE70       0.1605
    117  C         22.0810    6.6850   58.5710 C.2    70  PHE70       0.2264
    118  O         23.2680    6.5900   58.8850 O.2    70  PHE70      -0.2867
    119  CB        21.8320    8.0240   56.4980 C.3    70  PHE70       0.0534
    120  CG        21.2450    9.2050   55.7900 C.ar   70  PHE70      -0.0203
    121  CD1       19.9400    9.1810   55.3630 C.ar   70  PHE70      -0.0042
    122  CD2       22.0130   10.3380   55.5170 C.ar   70  PHE70      -0.0042
    123  CE1       19.3830   10.2710   54.6990 C.ar   70  PHE70      -0.0003
    124  CE2       21.4700   11.4240   54.8390 C.ar   70  PHE70      -0.0003
    125  CZ        20.1460   11.3860   54.4270 C.ar   70  PHE70      -0.0000
    126  N         21.8830    2.3150   57.9610 N.3    72  PHE72      -0.1241
    127  CA        21.5330    1.2290   57.0510 C.3    72  PHE72       0.1605
    128  C         21.5750   -0.0570   57.8430 C.2    72  PHE72       0.2264
    129  O         22.5460   -0.3090   58.5390 O.2    72  PHE72      -0.2867
    130  CB        22.5190    1.1720   55.8780 C.3    72  PHE72       0.0534
    131  CG        22.3820    2.3370   54.9430 C.ar   72  PHE72      -0.0203
    132  CD1       23.0140    3.5410   55.2250 C.ar   72  PHE72      -0.0042
    133  CD2       21.5810    2.2490   53.8200 C.ar   72  PHE72      -0.0042
    134  CE1       22.8550    4.6320   54.4000 C.ar   72  PHE72      -0.0003
    135  CE2       21.4170    3.3370   52.9860 C.ar   72  PHE72      -0.0003
    136  CZ        22.0530    4.5290   53.2750 C.ar   72  PHE72      -0.0000
    137  N         26.0450    7.7160   58.8980 N.3    79  MET79      -0.1245
    138  CA        26.5100    8.7920   58.0210 C.3    79  MET79       0.1570
    139  C         25.8880   10.0930   58.4950 C.2    79  MET79       0.2261
    140  O         24.6850   10.2590   58.4580 O.2    79  MET79      -0.2867
    141  CB        26.1500    8.5190   56.5690 C.3    79  MET79       0.0387
    142  CG        26.5580    7.1300   56.0970 C.3    79  MET79       0.0595
    143  SD        25.9650    6.7780   54.4340 S.3    79  MET79      -0.1393
    144  CE        27.0300    7.9130   53.5380 C.3    79  MET79       0.0692
    145  N         25.3350   13.7060   57.9800 N.3    81  VAL81      -0.1245
    146  CA        25.3370   14.6060   56.8270 C.3    81  VAL81       0.1561
    147  C         24.9440   16.0540   57.1530 C.2    81  VAL81       0.2260
    148  O         23.8160   16.3330   57.5930 O.2    81  VAL81      -0.2867
    149  CB        24.3980   14.0910   55.7180 C.3    81  VAL81       0.0252
    150  CG1       24.5890   14.9320   54.4560 C.3    81  VAL81       0.0019
    151  CG2       24.6780   12.6190   55.4200 C.3    81  VAL81       0.0019
    152  N         33.5340   12.0960   39.1980 N.3    98  GLU98      -0.1245
    153  CA        32.5300   11.7010   40.1700 C.3    98  GLU98       0.1567
    154  C         31.1060   12.1410   39.7930 C.2    98  GLU98       0.2260
    155  O         30.1520   11.3920   40.0040 O.2    98  GLU98      -0.2867
    156  CB        32.9250   12.2590   41.5410 C.3    98  GLU98       0.0388
    157  CG        32.1780   11.6560   42.7120 C.3    98  GLU98       0.1160
    158  CD        32.8070   12.0090   44.0530 C.2    98  GLU98       0.3649
    159  OE1       33.5940   12.9820   44.1130 O.co2  98  GLU98      -0.2457
    160  OE2       32.5180   11.3110   45.0570 O.co2  98  GLU98      -0.2457
    161  N         17.9700    9.9360   45.9850 N.3   115  TRP115     -0.1241
    162  CA        17.7560    9.1820   47.1950 C.3   115  TRP115      0.1605
    163  C         16.2890    9.3620   47.6580 C.2   115  TRP115      0.2264
    164  O         15.7630   10.4670   47.5970 O.2   115  TRP115     -0.2867
    165  CB        18.7170    9.6780   48.2710 C.3   115  TRP115      0.0550
    166  CG        20.0870    9.1210   48.1210 C.ar  115  TRP115      0.0003
    167  CD1       21.1400    9.6890   47.4800 C.ar  115  TRP115      0.0946
    168  CD2       20.5460    7.8630   48.6190 C.ar  115  TRP115      0.0152
    169  NE1       22.2370    8.8690   47.5560 N.ar  115  TRP115     -0.2442
    170  CE2       21.9030    7.7460   48.2640 C.ar  115  TRP115      0.0810
    171  CE3       19.9520    6.8420   49.3680 C.ar  115  TRP115      0.0012
    172  CZ2       22.6670    6.6390   48.6000 C.ar  115  TRP115      0.0191
    173  CZ3       20.7140    5.7340   49.7010 C.ar  115  TRP115      0.0001
    174  CH2       22.0630    5.6480   49.3240 C.ar  115  TRP115      0.0015
    175  N         14.7710    9.5160   50.5810 N.3   117  ASP117     -0.1225
    176  CA        14.5660   10.4890   51.6610 C.3   117  ASP117      0.1805
    177  C         14.4850   11.9440   51.1880 C.2   117  ASP117      0.2597
    178  O         13.9170   12.7780   51.8860 O.2   117  ASP117     -0.2718
    179  CB        15.6630   10.3760   52.7350 C.3   117  ASP117      0.1424
    180  CG        17.0310   10.7200   52.2060 C.2   117  ASP117      0.3668
    181  OD1       17.6280    9.8780   51.4880 O.co2 117  ASP117     -0.2456
    182  OD2       17.5120   11.8340   52.5120 O.co2 117  ASP117     -0.2456
    183  N         15.0470   12.2490   50.0200 N.am  118  ASP118     -0.1974
    184  CA        15.0840   13.6200   49.5080 C.3   118  ASP118      0.1709
    185  C         13.6810   14.2420   49.3060 C.2   118  ASP118      0.2293
    186  O         13.4950   15.4330   49.5260 O.2   118  ASP118     -0.2864
    187  CB        15.9080   13.6830   48.2130 C.3   118  ASP118      0.1436
    188  CG        17.3990   13.3820   48.4460 C.2   118  ASP118      0.3671
    189  OD1       17.7430   12.8450   49.5290 O.co2 118  ASP118     -0.2456
    190  OD2       18.2250   13.6770   47.5510 O.co2 118  ASP118     -0.2456
    191  N         12.4980   15.8950   52.7010 N.3   121  TRP121     -0.1227
    192  CA        13.0650   17.1650   53.1550 C.3   121  TRP121      0.1737
    193  C         13.2650   18.2570   52.0920 C.2   121  TRP121      0.2595
    194  O         13.5260   19.4000   52.4390 O.2   121  TRP121     -0.2718
    195  CB        14.3450   16.9150   53.9390 C.3   121  TRP121      0.0564
    196  CG        15.4170   16.1650   53.2530 C.ar  121  TRP121      0.0003
    197  CD1       15.6640   14.8280   53.3450 C.ar  121  TRP121      0.0946
    198  CD2       16.4560   16.7050   52.4240 C.ar  121  TRP121      0.0152
    199  NE1       16.7570   14.5020   52.6220 N.ar  121  TRP121     -0.2442
    200  CE2       17.2710   15.6290   52.0380 C.ar  121  TRP121      0.0810
    201  CE3       16.7640   17.9950   51.9500 C.ar  121  TRP121      0.0012
    202  CZ2       18.3910   15.7920   51.2220 C.ar  121  TRP121      0.0191
    203  CZ3       17.8840   18.1510   51.0880 C.ar  121  TRP121      0.0001
    204  CH2       18.6690   17.0580   50.7470 C.ar  121  TRP121      0.0015
    205  N         13.1420   17.9260   50.8100 N.am  122  PHE122     -0.1976
    206  CA        13.2440   18.9510   49.7710 C.3   122  PHE122      0.1639
    207  C         12.2310   20.0520   49.9690 C.2   122  PHE122      0.2290
    208  O         12.5590   21.2130   49.7770 O.2   122  PHE122     -0.2864
    209  CB        13.1660   18.3710   48.3630 C.3   122  PHE122      0.0560
    210  CG        14.5100   18.2850   47.6830 C.ar  122  PHE122     -0.0200
    211  CD1       15.5410   17.5490   48.2450 C.ar  122  PHE122     -0.0042
    212  CD2       14.7580   18.9830   46.5060 C.ar  122  PHE122     -0.0042
    213  CE1       16.7790   17.4980   47.6410 C.ar  122  PHE122     -0.0003
    214  CE2       16.0050   18.9340   45.9000 C.ar  122  PHE122     -0.0003
    215  CZ        17.0070   18.1870   46.4650 C.ar  122  PHE122     -0.0000
    216  N         17.3990    3.0440   56.8040 N.3   137  PHE137     -0.1241
    217  CA        17.1540    2.3300   55.5670 C.3   137  PHE137      0.1605
    218  C         17.2980    0.8090   55.7610 C.2   137  PHE137      0.2264
    219  O         18.2430    0.3480   56.3890 O.2   137  PHE137     -0.2867
    220  CB        18.1530    2.7920   54.4950 C.3   137  PHE137      0.0534
    221  CG        17.8050    4.1080   53.8420 C.ar  137  PHE137     -0.0203
    222  CD1       16.9470    4.1540   52.7590 C.ar  137  PHE137     -0.0042
    223  CD2       18.3590    5.2990   54.2920 C.ar  137  PHE137     -0.0042
    224  CE1       16.6470    5.3500   52.1410 C.ar  137  PHE137     -0.0003
    225  CE2       18.0530    6.5040   53.6790 C.ar  137  PHE137     -0.0003
    226  CZ        17.1970    6.5240   52.6030 C.ar  137  PHE137     -0.0000
@<TRIPOS>BOND
     1   152   153    1
     2    31    30    2
     3    30    29    1
     4   154   155    2
     5   154   153    1
     6    28    29    1
     7   153   156    1
     8    29    32    1
     9   109   108    2
    10   156   157    1
    11   108   107    1
    12    32    33    1
    13   157   158    1
    14    48    49    1
    15    33    34    1
    16   107   106    1
    17   107   110    1
    18    51    50    2
    19    34    35    1
    20   158   159   ar
    21   158   160   ar
    22   110   111    1
    23    49    50    1
    24    49    52    1
    25    50    56   am
    26    35    36    1
    27   111   112    1
    28    52    53    1
    29   100    99    2
    30    56    57    1
    31    59    58    2
    32    58    57    1
    33   214   215   ar
    34   214   212   ar
    35   112   113   ar
    36   112   114   ar
    37   161   162    1
    38    40    39    2
    39    37    38    1
    40    39    38    1
    41    99    98    1
    42    53    55   am
    43    53    54    2
    44   215   213   ar
    45   212   210   ar
    46    89    88    2
    47    38    41    1
    48   162   163    1
    49   162   165    1
    50    60    61    1
    51   167   169   ar
    52   167   166   ar
    53    98    97    1
    54    98   101    1
    55   190   188   ar
    56   169   170   ar
    57   164   163    2
    58   213   211   ar
    59   210   211   ar
    60   210   209    1
    61    88    97   am
    62    88    87    1
    63   104   103   ar
    64    63    62    2
    65   166   165    1
    66   166   168   ar
    67   187   188    1
    68   187   184    1
    69   170   172   ar
    70   170   168   ar
    71   101   102    1
    72   209   206    1
    73    41    42    1
    74   188   189   ar
    75   172   174   ar
    76   168   171   ar
    77    87    86    1
    78    87    90    1
    79    61    62    1
    80    62    64   am
    81    91    90    1
    82    91    92    1
    83   103   102    1
    84   103   105   ar
    85    26    25    1
    86   185   184    1
    87   185   186    2
    88   174   173   ar
    89    42    43   ar
    90    42    44   ar
    91   171   173   ar
    92   184   183    1
    93    43    45   ar
    94    95    94    1
    95   206   207    1
    96   206   205    1
    97   208   207    2
    98    92    93    1
    99    25    27    1
   100    25    24    1
   101    44    46   ar
   102   183   177   am
   103    64    65    1
   104    65    66    1
   105    45    47   ar
   106   175   176    1
   107    22    21    1
   108    22    23    2
   109   204   203   ar
   110   204   202   ar
   111    94    93    2
   112    94    96    1
   113   205   193   am
   114    76    75    1
   115    46    47   ar
   116    21    24    1
   117    21    20    1
   118   203   201   ar
   119   177   176    1
   120   177   178    2
   121   202   200   ar
   122    16    15    2
   123   181   180   ar
   124    85    83   am
   125   176   179    1
   126    66    68   am
   127    66    67    2
   128    68    69    1
   129   201   198   ar
   130    18    17    1
   131   200   198   ar
   132   200   199   ar
   133   193   194    2
   134   193   192    1
   135    20    15   am
   136   224   226   ar
   137   224   222   ar
   138   180   182   ar
   139   180   179    1
   140    15    14    1
   141    75    74    1
   142   198   196   ar
   143   226   225   ar
   144   199   197   ar
   145    74    73    1
   146   191   192    1
   147   222   221   ar
   148    83    84    2
   149    83    82    1
   150    17    14    1
   151    17    19    1
   152   135   136   ar
   153   135   133   ar
   154    71    70    2
   155   192   195    1
   156    73    72    1
   157   196   197   ar
   158   196   195    1
   159    72    69    1
   160    69    70    1
   161   136   134   ar
   162    14    13    1
   163    10     8   ar
   164    10    11   ar
   165   144   143    1
   166     8     6   ar
   167   225   223   ar
   168   133   131   ar
   169   221   223   ar
   170   221   220    1
   171    82    81    1
   172    13     3   am
   173   134   132   ar
   174   125   123   ar
   175   125   124   ar
   176   143   142    1
   177   150   149    1
   178   220   217    1
   179    12    11    1
   180    11     9   ar
   181     6     5    1
   182     6     7   ar
   183     5     2    1
   184   123   121   ar
   185   124   122   ar
   186   131   132   ar
   187   131   130    1
   188     3     2    1
   189     3     4    2
   190    81    78    1
   191     2     1    1
   192   121   120   ar
   193   151   149    1
   194   122   120   ar
   195   217   218    1
   196   217   216    1
   197   149   146    1
   198     9     7   ar
   199   218   219    2
   200   120   119    1
   201    77    78    1
   202   130   127    1
   203   142   141    1
   204    78    79    1
   205   119   116    1
   206   141   138    1
   207   146   147    1
   208   146   145    1
   209   127   128    1
   210   127   126    1
   211   147   148    2
   212    79    80    2
   213   128   129    2
   214   116   117    1
   215   116   115    1
   216   138   139    1
   217   138   137    1
   218   140   139    2
   219   117   118    2
