@<TRIPOS>MOLECULE
tmp/5mziA02.pdb
 108 101 0 0 0
SMALL
GASTEIGER

@<TRIPOS>ATOM
      1  N          3.0740  -50.2680   62.3200 N.3     9  ALA9       -0.1231
      2  CA         3.4310  -49.1800   63.2190 C.3     9  ALA9        0.1694
      3  C          4.3660  -48.2190   62.4670 C.2     9  ALA9        0.2592
      4  O          5.4270  -47.8380   62.9660 O.2     9  ALA9       -0.2718
      5  CB         4.0970  -49.7340   64.4810 C.3     9  ALA9        0.0304
      6  N          3.9360  -47.8000   61.2690 N.am   10  GLY10      -0.1957
      7  CA         4.6510  -46.8230   60.4690 C.3    10  GLY10       0.1869
      8  C          4.1250  -45.4470   60.8340 C.2    10  GLY10       0.2309
      9  O          3.7220  -45.2290   61.9700 O.2    10  GLY10      -0.2863
     10  N          3.3320  -54.9440   64.2890 N.3    31  GLU31      -0.1245
     11  CA         4.3570  -54.4550   63.3800 C.3    31  GLU31       0.1567
     12  C          5.3190  -55.5820   63.0690 C.2    31  GLU31       0.2260
     13  O          5.7700  -56.2650   63.9890 O.2    31  GLU31      -0.2867
     14  CB         5.1050  -53.2750   64.0570 C.3    31  GLU31       0.0388
     15  CG         6.4220  -52.8850   63.3790 C.3    31  GLU31       0.1160
     16  CD         6.2700  -52.4820   61.9210 C.2    31  GLU31       0.3649
     17  OE1        5.3510  -51.6920   61.6060 O.co2  31  GLU31      -0.2457
     18  OE2        7.0540  -52.9840   61.0830 O.co2  31  GLU31      -0.2457
     19  N          8.4370  -55.4000   61.7250 N.3    33  ARG33      -0.1231
     20  CA         9.8290  -55.0990   62.0730 C.3    33  ARG33       0.1679
     21  C         10.0790  -55.1660   63.5910 C.2    33  ARG33       0.2434
     22  O          9.1260  -55.0630   64.3670 O.2    33  ARG33      -0.2733
     23  CB        10.1650  -53.6680   61.5930 C.3    33  ARG33       0.0321
     24  CG        10.1370  -53.4810   60.0770 C.3    33  ARG33       0.0489
     25  CD        10.1890  -52.0130   59.7000 C.3    33  ARG33       0.2205
     26  NE        11.4640  -51.3820   60.0600 N.pl3  33  ARG33      -0.0865
     27  CZ        12.5210  -51.2870   59.2540 C.cat  33  ARG33       0.5346
     28  NH1       12.4730  -51.7830   58.0250 N.pl3  33  ARG33       0.1354
     29  NH2       13.6470  -50.7330   59.6890 N.pl3  33  ARG33       0.1354
     30  N         11.3580  -55.1800   64.0310 N.am   34  PRO34      -0.2729
     31  CA        11.6380  -55.0460   65.4830 C.3    34  PRO34       0.1401
     32  C         11.3670  -53.5980   65.9120 C.2    34  PRO34       0.2269
     33  O         11.2500  -52.6830   65.0540 O.2    34  PRO34      -0.2865
     34  CB        13.1520  -55.3140   65.5940 C.3    34  PRO34       0.0296
     35  CG        13.5710  -55.8730   64.2460 C.3    34  PRO34       0.0237
     36  CD        12.6100  -55.2820   63.2480 C.3    34  PRO34       0.0939
     37  N         12.3470  -50.1210   66.6990 N.3    36  PRO36      -0.2116
     38  CA        13.5880  -49.3410   66.4210 C.3    36  PRO36       0.1372
     39  C         14.0860  -48.5890   67.6550 C.2    36  PRO36       0.2244
     40  O         15.2240  -48.1200   67.6730 O.2    36  PRO36      -0.2868
     41  CB        13.1500  -48.3790   65.3000 C.3    36  PRO36       0.0268
     42  CG        11.6820  -48.1540   65.5850 C.3    36  PRO36       0.0207
     43  CD        11.1750  -49.5150   66.0240 C.3    36  PRO36       0.0892
     44  N         20.9800  -46.6610   58.4590 N.3    45  ARG45      -0.1245
     45  CA        21.2190  -45.5030   57.5900 C.3    45  ARG45       0.1563
     46  C         20.0540  -44.4930   57.6430 C.2    45  ARG45       0.2260
     47  O         18.8740  -44.8720   57.7080 O.2    45  ARG45      -0.2867
     48  CB        21.6150  -45.8890   56.1420 C.3    45  ARG45       0.0307
     49  CG        20.5210  -46.4600   55.2430 C.3    45  ARG45       0.0489
     50  CD        21.0540  -46.6690   53.8330 C.3    45  ARG45       0.2205
     51  NE        20.0070  -46.5880   52.8110 N.pl3  45  ARG45      -0.0865
     52  CZ        19.4260  -47.6380   52.2390 C.cat  45  ARG45       0.5346
     53  NH1       19.7750  -48.8720   52.5860 N.pl3  45  ARG45       0.1354
     54  NH2       18.4910  -47.4640   51.3150 N.pl3  45  ARG45       0.1354
     55  N         17.4660  -41.7740   56.4320 N.3    47  ILE47      -0.1245
     56  CA        16.6740  -41.3240   55.2870 C.3    47  ILE47       0.1561
     57  C         15.7710  -40.1770   55.7920 C.2    47  ILE47       0.2260
     58  O         15.1250  -40.2990   56.8350 O.2    47  ILE47      -0.2867
     59  CB        15.9600  -42.3920   54.3910 C.3    47  ILE47       0.0252
     60  CG1       14.4840  -42.6300   54.7790 C.3    47  ILE47       0.0019
     61  CG2       16.7290  -43.7290   54.2850 C.3    47  ILE47       0.0019
     62  CD1       13.5470  -42.0290   53.7520 C.3    47  ILE47       0.0001
     63  N         13.4090  -40.0860   59.1910 N.3   105  ARG105     -0.1231
     64  CA        12.2180  -40.9570   59.3050 C.3   105  ARG105      0.1694
     65  C         12.2340  -41.8210   60.5680 C.2   105  ARG105      0.2592
     66  O         11.2020  -41.9870   61.2080 O.2   105  ARG105     -0.2718
     67  CB        12.0250  -41.8250   58.0520 C.3   105  ARG105      0.0321
     68  CG        10.6480  -42.5810   58.1020 C.3   105  ARG105      0.0489
     69  CD        10.8390  -44.0250   58.5600 C.3   105  ARG105      0.2205
     70  NE         9.5850  -44.6760   58.9590 N.pl3 105  ARG105     -0.0865
     71  CZ         8.7040  -45.1930   58.1020 C.cat 105  ARG105      0.5346
     72  NH1        8.9190  -45.1250   56.7950 N.pl3 105  ARG105      0.1354
     73  NH2        7.6000  -45.7690   58.5450 N.pl3 105  ARG105      0.1354
     74  N         13.3950  -42.3870   60.9020 N.am  106  ASP106     -0.1974
     75  CA        13.5440  -43.2300   62.0880 C.3   106  ASP106      0.1709
     76  C         13.2240  -42.4240   63.3690 C.2   106  ASP106      0.2293
     77  O         12.4590  -42.9110   64.1980 O.2   106  ASP106     -0.2864
     78  CB        14.9430  -43.8650   62.1550 C.3   106  ASP106      0.1436
     79  CG        15.1870  -44.6850   63.4190 C.2   106  ASP106      0.3671
     80  OD1       14.3850  -45.5880   63.6960 O.co2 106  ASP106     -0.2456
     81  OD2       16.1220  -44.3480   64.1810 O.co2 106  ASP106     -0.2456
     82  N          9.5420  -41.8270   63.5380 N.3   109  ASN109     -0.1240
     83  CA         8.8260  -43.0590   63.8870 C.3   109  ASN109      0.1653
     84  C          8.9620  -43.4090   65.3850 C.2   109  ASN109      0.2266
     85  O          7.9880  -43.8520   65.9890 O.2   109  ASN109     -0.2867
     86  CB         9.2640  -44.2230   62.9880 C.3   109  ASN109      0.1155
     87  CG         8.0990  -45.0940   62.5330 C.2   109  ASN109      0.2627
     88  OD1        7.9950  -45.4440   61.3530 O.2   109  ASN109     -0.2716
     89  ND2        7.1870  -45.4620   63.4370 N.am  109  ASN109     -0.0877
     90  N          5.9560  -43.7770   68.0310 N.3   113  LEU113     -0.1245
     91  CA         5.7650  -44.9910   68.8470 C.3   113  LEU113      0.1561
     92  C          5.5890  -44.6240   70.3240 C.2   113  LEU113      0.2260
     93  O          4.6550  -45.0890   70.9660 O.2   113  LEU113     -0.2867
     94  CB         6.9550  -45.9770   68.6710 C.3   113  LEU113      0.0270
     95  CG         7.1110  -46.6020   67.2880 C.3   113  LEU113      0.0019
     96  CD1        8.4740  -47.2680   67.1540 C.3   113  LEU113      0.0001
     97  CD2        6.0240  -47.6560   67.0130 C.3   113  LEU113      0.0001
     98  N          5.7190  -55.9270   68.3090 N.3   125  PHE125     -0.1241
     99  CA         6.6620  -55.9650   67.2090 C.3   125  PHE125      0.1605
    100  C          7.0080  -57.3910   66.8170 C.2   125  PHE125      0.2264
    101  O          6.6540  -58.3370   67.5270 O.2   125  PHE125     -0.2867
    102  CB         7.9460  -55.2000   67.5760 C.3   125  PHE125      0.0534
    103  CG         7.7030  -53.7390   67.8700 C.ar  125  PHE125     -0.0203
    104  CD1        7.8190  -52.7820   66.8610 C.ar  125  PHE125     -0.0042
    105  CD2        7.3300  -53.3200   69.1520 C.ar  125  PHE125     -0.0042
    106  CE1        7.5900  -51.4240   67.1320 C.ar  125  PHE125     -0.0003
    107  CE2        7.1110  -51.9660   69.4240 C.ar  125  PHE125     -0.0003
    108  CZ         7.2560  -51.0250   68.4130 C.ar  125  PHE125     -0.0000
@<TRIPOS>BOND
     1    54    52    1
     2    52    53    1
     3    52    51    2
     4    51    50    1
     5    62    60    1
     6    50    49    1
     7    61    59    1
     8    59    60    1
     9    59    56    1
    10    49    48    1
    11    56    57    1
    12    56    55    1
    13    57    58    2
    14    48    45    1
    15    72    71    1
    16    45    46    1
    17    45    44    1
    18    46    47    2
    19    28    27    1
    20    67    68    1
    21    67    64    1
    22    71    73    1
    23    71    70    2
    24    68    69    1
    25    69    70    1
    26    63    64    1
    27    27    29    1
    28    27    26    2
    29    64    65    1
    30    25    26    1
    31    25    24    1
    32    24    23    1
    33     7     8    1
    34     7     6    1
    35    65    74   am
    36    65    66    2
    37     8     9    2
    38    74    75    1
    39    18    16   ar
    40     6     3   am
    41    88    87    2
    42    23    20    1
    43    17    16   ar
    44    19    20    1
    45    16    15    1
    46    20    21    1
    47    75    78    1
    48    75    76    1
    49    78    79    1
    50     1     2    1
    51     3     4    2
    52     3     2    1
    53    87    86    1
    54    87    89   am
    55    86    83    1
    56    12    11    1
    57    12    13    2
    58     2     5    1
    59    36    30    1
    60    36    35    1
    61    76    77    2
    62    15    14    1
    63    11    14    1
    64    11    10    1
    65    79    80   ar
    66    79    81   ar
    67    82    83    1
    68    21    30   am
    69    21    22    2
    70    83    84    1
    71    30    31    1
    72    35    34    1
    73    33    32    2
    74    41    42    1
    75    41    38    1
    76    84    85    2
    77    31    34    1
    78    31    32    1
    79    42    43    1
    80    43    37    1
    81    38    37    1
    82    38    39    1
    83   100    99    1
    84   100   101    2
    85   104   106   ar
    86   104   103   ar
    87    97    95    1
    88   106   108   ar
    89    96    95    1
    90    99   102    1
    91    99    98    1
    92    95    94    1
    93   102   103    1
    94    39    40    2
    95   103   105   ar
    96    90    91    1
    97   108   107   ar
    98    94    91    1
    99    91    92    1
   100   105   107   ar
   101    92    93    2
