@<TRIPOS>MOLECULE
tmp/5mziA03.pdb
 103 98 0 0 0
SMALL
GASTEIGER

@<TRIPOS>ATOM
      1  N         -3.9670  -22.1290   33.5280 N.3   417  GLN417     -0.1231
      2  CA        -4.6640  -21.7550   32.2960 C.3   417  GLN417      0.1698
      3  C         -4.6570  -20.2430   32.0840 C.2   417  GLN417      0.2592
      4  O         -4.4130  -19.8070   30.9560 O.2   417  GLN417     -0.2718
      5  CB        -6.1040  -22.2650   32.2960 C.3   417  GLN417      0.0381
      6  CG        -6.2160  -23.7760   32.1080 C.3   417  GLN417      0.0905
      7  CD        -7.6530  -24.2240   32.0560 C.2   417  GLN417      0.2608
      8  OE1       -8.5010  -23.8230   32.8740 O.2   417  GLN417     -0.2717
      9  NE2       -7.9520  -25.1050   31.1150 N.am  417  GLN417     -0.0878
     10  N         -4.9210  -19.4480   33.1520 N.am  418  LEU418     -0.1980
     11  CA        -4.9430  -17.9820   33.0520 C.3   418  LEU418      0.1596
     12  C         -3.5670  -17.4920   32.6750 C.2   418  LEU418      0.2287
     13  O         -3.4560  -16.6920   31.7520 O.2   418  LEU418     -0.2864
     14  CB        -5.3980  -17.3020   34.3630 C.3   418  LEU418      0.0297
     15  CG        -6.8290  -17.5380   34.8600 C.3   418  LEU418      0.0022
     16  CD1       -7.0780  -16.7690   36.1430 C.3   418  LEU418      0.0001
     17  CD2       -7.8800  -17.1410   33.7940 C.3   418  LEU418      0.0001
     18  N         -2.6870  -18.5020   29.0040 N.3   421  PHE421     -0.1227
     19  CA        -3.4450  -17.6740   28.0720 C.3   421  PHE421      0.1736
     20  C         -2.8960  -16.2540   28.0180 C.2   421  PHE421      0.2595
     21  O         -2.6170  -15.7620   26.9250 O.2   421  PHE421     -0.2718
     22  CB        -4.9440  -17.6710   28.3980 C.3   421  PHE421      0.0547
     23  CG        -5.7510  -17.0300   27.2910 C.ar  421  PHE421     -0.0202
     24  CD1       -6.2510  -17.7940   26.2390 C.ar  421  PHE421     -0.0042
     25  CD2       -5.9690  -15.6580   27.2720 C.ar  421  PHE421     -0.0042
     26  CE1       -6.9700  -17.1950   25.1930 C.ar  421  PHE421     -0.0003
     27  CE2       -6.6840  -15.0590   26.2210 C.ar  421  PHE421     -0.0003
     28  CZ        -7.1710  -15.8320   25.1900 C.ar  421  PHE421     -0.0000
     29  N         -2.7050  -15.6170   29.2030 N.am  422  ALA422     -0.1980
     30  CA        -2.2230  -14.2400   29.3450 C.3   422  ALA422      0.1597
     31  C         -0.8960  -13.9590   28.6750 C.2   422  ALA422      0.2287
     32  O         -0.7500  -12.8980   28.0670 O.2   422  ALA422     -0.2864
     33  CB        -2.1470  -13.8500   30.8100 C.3   422  ALA422      0.0319
     34  N          2.5720  -12.7960   23.5110 N.3   426  HIS426     -0.1241
     35  CA         3.2660  -11.6880   24.1700 C.3   426  HIS426      0.1621
     36  C          4.7440  -12.0140   24.3760 C.2   426  HIS426      0.2264
     37  O          5.0700  -13.1220   24.8060 O.2   426  HIS426     -0.2867
     38  CB         2.5890  -11.3140   25.5000 C.3   426  HIS426      0.0745
     39  CG         1.2080  -10.7670   25.3270 C.ar  426  HIS426      0.0817
     40  ND1        0.9950   -9.4590   24.9210 N.ar  426  HIS426     -0.2268
     41  CD2        0.0110  -11.3730   25.4980 C.ar  426  HIS426      0.1154
     42  CE1       -0.3190   -9.3120   24.8600 C.ar  426  HIS426      0.1986
     43  NE2       -0.9550  -10.4360   25.2020 N.ar  426  HIS426     -0.2212
     44  N          3.3810   -5.6800   27.4380 N.3   431  SER431     -0.1202
     45  CA         2.2900   -5.7840   26.4650 C.3   431  SER431      0.2020
     46  C          1.0400   -6.4530   27.0790 C.2   431  SER431      0.2619
     47  O         -0.0260   -6.4510   26.4610 O.2   431  SER431     -0.2717
     48  CB         2.7550   -6.5090   25.2010 C.3   431  SER431      0.2103
     49  OG         3.4010   -7.7370   25.4940 O.3   431  SER431     -0.2182
     50  N          1.1590   -6.9530   28.3190 N.am  432  ILE432     -0.1965
     51  CA         0.0700   -7.6150   29.0460 C.3   432  ILE432      0.1727
     52  C         -0.7530   -6.6070   29.8770 C.2   432  ILE432      0.2616
     53  O         -0.1790   -5.8260   30.6290 O.2   432  ILE432     -0.2715
     54  CB         0.6060   -8.8210   29.8930 C.3   432  ILE432      0.0290
     55  CG1        1.3390   -9.8590   28.9980 C.3   432  ILE432      0.0022
     56  CG2       -0.5220   -9.4980   30.7110 C.3   432  ILE432      0.0023
     57  CD1        2.2390  -10.9210   29.7460 C.3   432  ILE432      0.0001
     58  N         -2.0930   -6.6290   29.7330 N.am  433  ASN433     -0.1972
     59  CA        -2.9980   -5.7780   30.5130 C.3   433  ASN433      0.1688
     60  C         -3.2120   -6.5190   31.8470 C.2   433  ASN433      0.2292
     61  O         -3.9840   -7.4850   31.9110 O.2   433  ASN433     -0.2864
     62  CB        -4.3310   -5.5520   29.7600 C.3   433  ASN433      0.1181
     63  CG        -5.3660   -4.6820   30.4600 C.2   433  ASN433      0.2629
     64  OD1       -5.3270   -4.4380   31.6750 O.2   433  ASN433     -0.2716
     65  ND2       -6.3650   -4.2400   29.7030 N.am  433  ASN433     -0.0877
     66  N         -6.8010   -6.7340   33.3240 N.3   436  ALA436     -0.1231
     67  CA        -7.6350   -7.7250   32.6440 C.3   436  ALA436      0.1694
     68  C         -7.3510   -9.1510   33.1870 C.2   436  ALA436      0.2591
     69  O         -8.2990   -9.8980   33.4310 O.2   436  ALA436     -0.2718
     70  CB        -7.4210   -7.6590   31.1390 C.3   436  ALA436      0.0304
     71  N         -6.0640   -9.5010   33.4250 N.am  437  VAL437     -0.1980
     72  CA        -5.6820  -10.8030   34.0130 C.3   437  VAL437      0.1595
     73  C         -6.2450  -10.8550   35.4420 C.2   437  VAL437      0.2287
     74  O         -6.8600  -11.8580   35.8170 O.2   437  VAL437     -0.2864
     75  CB        -4.1500  -11.0810   34.0100 C.3   437  VAL437      0.0276
     76  CG1       -3.8510  -12.5170   34.4470 C.3   437  VAL437      0.0022
     77  CG2       -3.5350  -10.8070   32.6470 C.3   437  VAL437      0.0022
     78  N         -9.8260  -11.6940   35.5030 N.3   440  GLU440     -0.1245
     79  CA       -10.0520  -13.1290   35.3560 C.3   440  GLU440      0.1567
     80  C         -9.8040  -13.8130   36.7060 C.2   440  GLU440      0.2260
     81  O        -10.5680  -14.7030   37.0880 O.2   440  GLU440     -0.2867
     82  CB        -9.1890  -13.7340   34.2350 C.3   440  GLU440      0.0388
     83  CG        -9.4670  -13.1550   32.8510 C.3   440  GLU440      0.1160
     84  CD       -10.8680  -13.2850   32.2750 C.2   440  GLU440      0.3649
     85  OE1      -11.5980  -14.2240   32.6670 O.co2 440  GLU440     -0.2457
     86  OE2      -11.2140  -12.4720   31.3870 O.co2 440  GLU440     -0.2457
     87  N        -12.7720  -13.1310   38.8570 N.3   443  ARG443     -0.1231
     88  CA       -13.9030  -13.8240   38.2490 C.3   443  ARG443      0.1694
     89  C        -13.8990  -15.3330   38.5220 C.2   443  ARG443      0.2592
     90  O        -14.9540  -15.8970   38.8160 O.2   443  ARG443     -0.2718
     91  CB       -13.9250  -13.5630   36.7370 C.3   443  ARG443      0.0321
     92  CG       -15.2790  -13.8150   36.0850 C.3   443  ARG443      0.0489
     93  CD       -15.2930  -13.4160   34.6160 C.3   443  ARG443      0.2205
     94  NE       -14.3950  -14.2380   33.8010 N.pl3 443  ARG443     -0.0865
     95  CZ       -14.6950  -15.4500   33.3390 C.cat 443  ARG443      0.5346
     96  NH1      -13.8200  -16.1210   32.6010 N.pl3 443  ARG443      0.1354
     97  NH2      -15.8690  -16.0060   33.6200 N.pl3 443  ARG443      0.1354
     98  N        -12.7200  -15.9810   38.4190 N.am  444  CYS444     -0.1970
     99  CA       -12.5800  -17.4390   38.4850 C.3   444  CYS444      0.1712
    100  C        -12.0770  -18.0020   39.8180 C.2   444  CYS444      0.2296
    101  O        -12.1860  -19.2140   40.0300 O.2   444  CYS444     -0.2864
    102  CB       -11.7010  -17.9250   37.3340 C.3   444  CYS444      0.0983
    103  SG       -12.2510  -17.3950   35.6990 S.3   444  CYS444     -0.0798
@<TRIPOS>BOND
     1    34    35    1
     2    35    36    1
     3    35    38    1
     4    36    37    2
     5    42    40   ar
     6    42    43   ar
     7    40    39   ar
     8    28    26   ar
     9    28    27   ar
    10    26    24   ar
    11    48    49    1
    12    48    45    1
    13    43    41   ar
    14    39    41   ar
    15    39    38    1
    16    27    25   ar
    17    24    23   ar
    18    47    46    2
    19    45    46    1
    20    45    44    1
    21    21    20    2
    22    46    50   am
    23    25    23   ar
    24    23    22    1
    25    20    19    1
    26    20    29   am
    27    32    31    2
    28    19    22    1
    29    19    18    1
    30    50    51    1
    31    31    30    1
    32    55    57    1
    33    55    54    1
    34    51    52    1
    35    51    54    1
    36    29    30    1
    37    30    33    1
    38    65    63   am
    39    58    52   am
    40    58    59    1
    41    62    63    1
    42    62    59    1
    43    52    53    2
    44    54    56    1
    45    63    64    2
    46    59    60    1
    47     4     3    2
    48     9     7   am
    49    70    67    1
    50    86    84   ar
    51    13    12    2
    52    60    61    2
    53     7     6    1
    54     7     8    2
    55     3     2    1
    56     3    10   am
    57     6     5    1
    58    84    85   ar
    59    84    83    1
    60     5     2    1
    61     2     1    1
    62    96    95    1
    63    67    68    1
    64    67    66    1
    65    77    75    1
    66    12    11    1
    67    83    82    1
    68    11    10    1
    69    11    14    1
    70    68    71   am
    71    68    69    2
    72    95    97    1
    73    95    94    2
    74    71    72    1
    75    17    15    1
    76    94    93    1
    77    75    72    1
    78    75    76    1
    79    72    73    1
    80    82    79    1
    81    14    15    1
    82    93    92    1
    83    15    16    1
    84    79    78    1
    85    79    80    1
    86    73    74    2
    87   103   102    1
    88    92    91    1
    89    80    81    2
    90    91    88    1
    91   102    99    1
    92    88    89    1
    93    88    87    1
    94    98    99    1
    95    98    89   am
    96    99   100    1
    97    89    90    2
    98   100   101    2
