@<TRIPOS>MOLECULE
tmp/5mziA01.pdb
 192 181 0 0 0
SMALL
GASTEIGER

@<TRIPOS>ATOM
      1  N         17.4660  -41.7740   56.4320 N.3    47  ILE47      -0.1231
      2  CA        16.6740  -41.3240   55.2870 C.3    47  ILE47       0.1692
      3  C         15.7710  -40.1770   55.7920 C.2    47  ILE47       0.2592
      4  O         15.1250  -40.2990   56.8350 O.2    47  ILE47      -0.2718
      5  CB        15.9600  -42.3920   54.3910 C.3    47  ILE47       0.0266
      6  CG1       14.4840  -42.6300   54.7790 C.3    47  ILE47       0.0019
      7  CG2       16.7290  -43.7290   54.2850 C.3    47  ILE47       0.0020
      8  CD1       13.5470  -42.0290   53.7520 C.3    47  ILE47       0.0001
      9  N         15.8070  -39.0490   55.0940 N.am   48  ASN48      -0.1960
     10  CA        15.0140  -37.8800   55.4580 C.3    48  ASN48       0.1819
     11  C         13.8080  -37.7640   54.6240 C.2    48  ASN48       0.2621
     12  O         13.8290  -38.1000   53.4270 O.2    48  ASN48      -0.2715
     13  CB        15.7640  -36.5880   55.2140 C.3    48  ASN48       0.1195
     14  CG        16.9970  -36.4660   55.9830 C.2    48  ASN48       0.2630
     15  OD1       18.0910  -36.5220   55.3930 O.2    48  ASN48      -0.2716
     16  ND2       16.8260  -36.2880   57.3030 N.am   48  ASN48      -0.0877
     17  N         12.7950  -37.1280   55.2120 N.am   49  LEU49      -0.1963
     18  CA        11.5410  -36.8380   54.5080 C.3    49  LEU49       0.1728
     19  C         11.2200  -35.3630   54.6990 C.2    49  LEU49       0.2616
     20  O         11.5630  -34.7870   55.7450 O.2    49  LEU49      -0.2715
     21  CB        10.3790  -37.6850   55.0950 C.3    49  LEU49       0.0311
     22  CG        10.5010  -39.2230   55.1190 C.3    49  LEU49       0.0022
     23  CD1        9.3800  -39.8390   55.9450 C.3    49  LEU49       0.0001
     24  CD2       10.4340  -39.8090   53.7430 C.3    49  LEU49       0.0001
     25  N         10.5110  -34.7690   53.7250 N.am   50  ALA50      -0.1977
     26  CA        10.0420  -33.3950   53.7720 C.3    50  ALA50       0.1597
     27  C          8.6710  -33.3750   54.4770 C.2    50  ALA50       0.2287
     28  O          7.6960  -33.9660   53.9910 O.2    50  ALA50      -0.2864
     29  CB         9.9430  -32.8160   52.3720 C.3    50  ALA50       0.0319
     30  N         14.1790  -23.7650   47.6090 N.3    78  ARG78      -0.1245
     31  CA        14.7530  -24.7620   46.7230 C.3    78  ARG78       0.1563
     32  C         16.0570  -24.2270   46.1510 C.2    78  ARG78       0.2260
     33  O         16.0730  -23.1180   45.6170 O.2    78  ARG78      -0.2867
     34  CB        13.7440  -25.1050   45.5990 C.3    78  ARG78       0.0307
     35  CG        14.2070  -26.1970   44.6770 C.3    78  ARG78       0.0489
     36  CD        13.6060  -26.0200   43.2920 C.3    78  ARG78       0.2205
     37  NE        12.2550  -26.5540   43.2120 N.pl3  78  ARG78      -0.0865
     38  CZ        11.5050  -26.5680   42.1140 C.cat  78  ARG78       0.5346
     39  NH1       10.2960  -27.1090   42.1370 N.pl3  78  ARG78       0.1354
     40  NH2       11.9340  -25.9880   40.9990 N.pl3  78  ARG78       0.1354
     41  N         10.6510  -20.5980   49.2130 N.3    92  TYR92      -0.1241
     42  CA         9.3810  -21.3180   49.1560 C.3    92  TYR92       0.1605
     43  C          8.1720  -20.4290   49.4540 C.2    92  TYR92       0.2264
     44  O          7.0830  -20.6650   48.9190 O.2    92  TYR92      -0.2867
     45  CB         9.4230  -22.5630   50.0690 C.3    92  TYR92       0.0534
     46  CG        10.0530  -23.8000   49.4450 C.ar   92  TYR92      -0.0201
     47  CD1        9.8210  -24.1300   48.1160 C.ar   92  TYR92      -0.0009
     48  CD2       10.8500  -24.6610   50.2030 C.ar   92  TYR92      -0.0009
     49  CE1       10.3990  -25.2570   47.5380 C.ar   92  TYR92       0.0417
     50  CE2       11.4460  -25.7870   49.6310 C.ar   92  TYR92       0.0417
     51  CZ        11.2000  -26.0940   48.3050 C.ar   92  TYR92       0.1957
     52  OH        11.7200  -27.2370   47.7440 O.3    92  TYR92      -0.2866
     53  N          9.5270  -25.9420   54.6970 N.3   100  ILE100     -0.1245
     54  CA         9.3360  -27.3730   54.8330 C.3   100  ILE100      0.1561
     55  C         10.4340  -27.8560   55.7480 C.2   100  ILE100      0.2260
     56  O         11.5010  -27.2500   55.8330 O.2   100  ILE100     -0.2867
     57  CB         9.2010  -28.1760   53.5240 C.3   100  ILE100      0.0252
     58  CG1       10.3600  -27.9160   52.5560 C.3   100  ILE100      0.0019
     59  CG2        7.8410  -27.8640   52.8800 C.3   100  ILE100      0.0019
     60  CD1       10.2720  -28.7790   51.1970 C.3   100  ILE100      0.0001
     61  N         16.2760  -27.3020   50.3200 N.3   207  LEU207     -0.1245
     62  CA        16.0530  -28.5560   49.6160 C.3   207  LEU207      0.1561
     63  C         16.8210  -28.3600   48.3130 C.2   207  LEU207      0.2260
     64  O         16.6000  -27.3660   47.5970 O.2   207  LEU207     -0.2867
     65  CB        14.5560  -28.7310   49.3460 C.3   207  LEU207      0.0270
     66  CG        14.1390  -29.9950   48.6170 C.3   207  LEU207      0.0019
     67  CD1       12.7540  -30.4240   49.0750 C.3   207  LEU207      0.0001
     68  CD2       14.1560  -29.7820   47.0910 C.3   207  LEU207      0.0001
     69  N         18.2480  -29.4860   44.4600 N.3   209  ILE209     -0.1245
     70  CA        17.9200  -30.2580   43.2530 C.3   209  ILE209      0.1561
     71  C         19.0330  -30.0950   42.1970 C.2   209  ILE209      0.2260
     72  O         19.5400  -28.9870   41.9860 O.2   209  ILE209     -0.2867
     73  CB        16.4990  -29.9640   42.6400 C.3   209  ILE209      0.0252
     74  CG1       15.3520  -30.1500   43.6900 C.3   209  ILE209      0.0019
     75  CG2       16.2520  -30.8620   41.4040 C.3   209  ILE209      0.0019
     76  CD1       13.9210  -29.7710   43.2270 C.3   209  ILE209      0.0001
     77  N         17.4960  -37.1520   37.7200 N.3   216  MET216     -0.1245
     78  CA        17.8440  -36.0400   38.6000 C.3   216  MET216      0.1570
     79  C         18.3000  -36.5580   39.9630 C.2   216  MET216      0.2261
     80  O         18.0360  -37.7130   40.2950 O.2   216  MET216     -0.2867
     81  CB        16.6060  -35.1060   38.7910 C.3   216  MET216      0.0387
     82  CG        15.3480  -35.8390   39.2850 C.3   216  MET216      0.0595
     83  SD        14.0730  -34.7300   39.9720 S.3   216  MET216     -0.1393
     84  CE        14.8140  -34.4170   41.6020 C.3   216  MET216      0.0692
     85  N         18.1910  -35.1790   44.2340 N.3   218  ILE218     -0.1245
     86  CA        17.6350  -34.2910   45.2280 C.3   218  ILE218      0.1561
     87  C         18.4240  -34.5620   46.5130 C.2   218  ILE218      0.2260
     88  O         18.8520  -35.7030   46.7430 O.2   218  ILE218     -0.2867
     89  CB        16.0990  -34.5470   45.4040 C.3   218  ILE218      0.0252
     90  CG1       15.5090  -33.6040   46.4670 C.3   218  ILE218      0.0019
     91  CG2       15.7940  -36.0360   45.7290 C.3   218  ILE218      0.0019
     92  CD1       13.9930  -33.3580   46.3850 C.3   218  ILE218      0.0001
     93  N         18.3790  -33.7310   50.8640 N.3   220  LEU220     -0.1245
     94  CA        17.7210  -33.2000   52.0520 C.3   220  LEU220      0.1561
     95  C         18.7390  -33.1800   53.1950 C.2   220  LEU220      0.2260
     96  O         19.4850  -34.1520   53.3670 O.2   220  LEU220     -0.2867
     97  CB        16.4940  -34.0470   52.4550 C.3   220  LEU220      0.0270
     98  CG        15.1040  -33.5450   51.9610 C.3   220  LEU220      0.0019
     99  CD1       15.0510  -33.3590   50.4460 C.3   220  LEU220      0.0001
    100  CD2       14.0210  -34.4820   52.4100 C.3   220  LEU220      0.0001
    101  N         21.1900  -36.6000   52.7090 N.3   228  THR228     -0.1218
    102  CA        20.8650  -37.8420   51.9910 C.3   228  THR228      0.1862
    103  C         20.5040  -37.4010   50.5770 C.2   228  THR228      0.2287
    104  O         19.6230  -36.5470   50.3930 O.2   228  THR228     -0.2866
    105  CB        19.7460  -38.6330   52.6510 C.3   228  THR228      0.1770
    106  OG1       20.1680  -38.9950   53.9710 O.3   228  THR228     -0.2211
    107  CG2       19.3940  -39.9250   51.8480 C.3   228  THR228      0.0375
    108  N         19.1690  -38.4650   46.8550 N.3   230  THR230     -0.1218
    109  CA        18.4240  -39.5050   46.1740 C.3   230  THR230      0.1862
    110  C         18.5560  -39.2760   44.6560 C.2   230  THR230      0.2287
    111  O         18.2140  -38.1920   44.1590 O.2   230  THR230     -0.2866
    112  CB        16.9490  -39.5630   46.6160 C.3   230  THR230      0.1770
    113  OG1       16.8900  -39.6580   48.0310 O.3   230  THR230     -0.2211
    114  CG2       16.1870  -40.7810   45.9840 C.3   230  THR230      0.0375
    115  N         17.1600  -40.2530   41.0120 N.3   232  PHE232     -0.1241
    116  CA        15.9980  -40.8120   40.3090 C.3   232  PHE232      0.1605
    117  C         16.4460  -41.0580   38.8690 C.2   232  PHE232      0.2264
    118  O         16.8750  -40.1220   38.1930 O.2   232  PHE232     -0.2867
    119  CB        14.8060  -39.8540   40.3520 C.3   232  PHE232      0.0534
    120  CG        14.2330  -39.7480   41.7400 C.ar  232  PHE232     -0.0203
    121  CD1       13.4470  -40.7670   42.2640 C.ar  232  PHE232     -0.0042
    122  CD2       14.5230  -38.6450   42.5490 C.ar  232  PHE232     -0.0042
    123  CE1       12.9210  -40.6750   43.5480 C.ar  232  PHE232     -0.0003
    124  CE2       13.9880  -38.5440   43.8330 C.ar  232  PHE232     -0.0003
    125  CZ        13.1760  -39.5540   44.3200 C.ar  232  PHE232     -0.0000
    126  N          7.1050  -40.1860   44.7120 N.3   312  PRO312     -0.2102
    127  CA         7.5330  -39.2460   45.7590 C.3   312  PRO312      0.1504
    128  C          7.8930  -37.8310   45.3160 C.2   312  PRO312      0.2576
    129  O          8.4040  -37.0440   46.1270 O.2   312  PRO312     -0.2718
    130  CB         8.7740  -39.9290   46.3190 C.3   312  PRO312      0.0282
    131  CG         9.3590  -40.6310   45.1140 C.3   312  PRO312      0.0208
    132  CD         8.1770  -41.1510   44.3740 C.3   312  PRO312      0.0893
    133  N          7.6000  -37.4910   44.0540 N.am  313  PHE313     -0.1963
    134  CA         8.0550  -36.2320   43.4510 C.3   313  PHE313      0.1771
    135  C          7.4740  -34.9620   44.0610 C.2   313  PHE313      0.2620
    136  O          7.9890  -33.8860   43.7520 O.2   313  PHE313     -0.2715
    137  CB         7.8710  -36.2560   41.9200 C.3   313  PHE313      0.0574
    138  CG         8.4830  -37.4940   41.2830 C.ar  313  PHE313     -0.0200
    139  CD1        9.7770  -37.9050   41.6130 C.ar  313  PHE313     -0.0042
    140  CD2        7.7550  -38.2620   40.3860 C.ar  313  PHE313     -0.0042
    141  CE1       10.3230  -39.0690   41.0490 C.ar  313  PHE313     -0.0003
    142  CE2        8.3080  -39.4110   39.8030 C.ar  313  PHE313     -0.0003
    143  CZ         9.5710  -39.8230   40.1620 C.ar  313  PHE313     -0.0000
    144  N          6.4760  -35.0610   44.9630 N.am  314  HIS314     -0.1959
    145  CA         5.9650  -33.8680   45.6410 C.3   314  HIS314      0.1787
    146  C          6.2940  -33.8650   47.1480 C.2   314  HIS314      0.2620
    147  O          5.9390  -32.9050   47.8310 O.2   314  HIS314     -0.2715
    148  CB         4.4310  -33.7090   45.4450 C.3   314  HIS314      0.0785
    149  CG         3.9880  -32.2790   45.3310 C.ar  314  HIS314      0.0821
    150  ND1        4.2820  -31.3340   46.3120 N.ar  314  HIS314     -0.2267
    151  CD2        3.2330  -31.6910   44.3770 C.ar  314  HIS314      0.1154
    152  CE1        3.7300  -30.2010   45.8980 C.ar  314  HIS314      0.1986
    153  NE2        3.0900  -30.3670   44.7470 N.ar  314  HIS314     -0.2212
    154  N          6.9210  -34.9350   47.6530 N.am  315  GLY315     -0.1954
    155  CA         7.2410  -35.0850   49.0660 C.3   315  GLY315      0.1869
    156  C          5.9790  -34.9430   49.8950 C.2   315  GLY315      0.2309
    157  O          5.9490  -34.1480   50.8290 O.2   315  GLY315     -0.2863
    158  N          4.7420  -33.1050   39.2670 N.3   363  ASN363     -0.1240
    159  CA         5.8320  -32.3350   39.8610 C.3   363  ASN363      0.1653
    160  C          7.2100  -32.7090   39.3390 C.2   363  ASN363      0.2266
    161  O          8.1220  -31.8940   39.3940 O.2   363  ASN363     -0.2867
    162  CB         5.8090  -32.3600   41.3860 C.3   363  ASN363      0.1155
    163  CG         6.4890  -31.1240   41.9800 C.2   363  ASN363      0.2627
    164  OD1        6.1610  -29.9850   41.6360 O.2   363  ASN363     -0.2716
    165  ND2        7.4490  -31.3030   42.8760 N.am  363  ASN363     -0.0877
    166  N         10.3610  -30.1610   38.4510 N.3   367  MET367     -0.1245
    167  CA        11.6660  -30.1970   39.1080 C.3   367  MET367      0.1570
    168  C         12.8460  -30.4850   38.2150 C.2   367  MET367      0.2261
    169  O         13.9450  -29.9640   38.4600 O.2   367  MET367     -0.2867
    170  CB        11.6840  -31.2870   40.1790 C.3   367  MET367      0.0387
    171  CG        10.9010  -30.9720   41.4160 C.3   367  MET367      0.0595
    172  SD        11.2880  -32.2310   42.6690 S.3   367  MET367     -0.1393
    173  CE        10.7090  -33.7270   41.8230 C.3   367  MET367      0.0692
    174  N          1.9690  -25.0540   44.3030 N.3   395  TYR395     -0.1241
    175  CA         2.9650  -25.6080   45.2280 C.3   395  TYR395      0.1605
    176  C          2.6790  -25.1450   46.6680 C.2   395  TYR395      0.2264
    177  O          2.7510  -25.9570   47.5970 O.2   395  TYR395     -0.2867
    178  CB         4.4100  -25.2710   44.8070 C.3   395  TYR395      0.0534
    179  CG         5.4070  -25.9850   45.6900 C.ar  395  TYR395     -0.0201
    180  CD1        5.7110  -27.3290   45.4820 C.ar  395  TYR395     -0.0009
    181  CD2        5.9490  -25.3590   46.8090 C.ar  395  TYR395     -0.0009
    182  CE1        6.5580  -28.0230   46.3490 C.ar  395  TYR395      0.0417
    183  CE2        6.8010  -26.0420   47.6790 C.ar  395  TYR395      0.0417
    184  CZ         7.1290  -27.3640   47.4250 C.ar  395  TYR395      0.1957
    185  OH         7.9490  -28.0470   48.2940 O.3   395  TYR395     -0.2866
    186  N          1.6820  -27.5050   49.8120 N.3   399  THR399     -0.1218
    187  CA         2.7150  -27.5820   50.8330 C.3   399  THR399      0.1862
    188  C          2.4070  -26.8050   52.1210 C.2   399  THR399      0.2287
    189  O          2.7190  -27.2930   53.2060 O.2   399  THR399     -0.2866
    190  CB         4.0640  -27.1490   50.2200 C.3   399  THR399      0.1770
    191  OG1        4.2520  -27.7660   48.9400 O.3   399  THR399     -0.2211
    192  CG2        5.2500  -27.4700   51.0980 C.3   399  THR399      0.0375
@<TRIPOS>BOND
     1    77    78    1
     2   118   117    2
     3   168   169    2
     4   168   167    1
     5   166   167    1
     6    78    81    1
     7    78    79    1
     8    81    82    1
     9   117   116    1
    10   167   170    1
    11   158   159    1
    12    82    83    1
    13   160   161    2
    14   160   159    1
    15   142   143   ar
    16   142   140   ar
    17   159   162    1
    18    79    80    2
    19    83    84    1
    20   143   141   ar
    21   170   171    1
    22   116   119    1
    23   116   115    1
    24   119   120    1
    25   140   138   ar
    26    40    38    1
    27   141   139   ar
    28   138   139   ar
    29   138   137    1
    30   162   163    1
    31    75    73    1
    32   171   172    1
    33   164   163    2
    34   120   121   ar
    35   120   122   ar
    36   173   172    1
    37   137   134    1
    38   163   165   am
    39    72    71    2
    40    38    39    1
    41    38    37    2
    42    71    70    1
    43   121   123   ar
    44   122   124   ar
    45    73    70    1
    46    73    74    1
    47    37    36    1
    48    76    74    1
    49    70    69    1
    50    36    35    1
    51   134   133    1
    52   134   135    1
    53   123   125   ar
    54   136   135    2
    55   124   125   ar
    56   133   128   am
    57   135   144   am
    58   111   110    2
    59    85    86    1
    60   174   175    1
    61   132   126    1
    62   132   131    1
    63   151   153   ar
    64   151   149   ar
    65   110   109    1
    66    35    34    1
    67   126   127    1
    68   153   152   ar
    69   178   175    1
    70   178   179    1
    71   144   145    1
    72   131   130    1
    73    86    89    1
    74    86    87    1
    75   175   176    1
    76   128   127    1
    77   128   129    2
    78   149   148    1
    79   149   150   ar
    80    89    91    1
    81    89    90    1
    82   148   145    1
    83   180   179   ar
    84   180   182   ar
    85    34    31    1
    86    33    32    2
    87   145   146    1
    88   179   181   ar
    89   127   130    1
    90   152   150   ar
    91   114   112    1
    92    32    31    1
    93   109   112    1
    94   109   108    1
    95   182   184   ar
    96    92    90    1
    97    87    88    2
    98   112   113    1
    99   176   177    2
   100    31    30    1
   101   181   183   ar
   102    68    66    1
   103   146   154   am
   104   146   147    2
   105   184   183   ar
   106   184   185    1
   107    49    47   ar
   108    49    51   ar
   109    64    63    2
   110   154   155    1
   111    52    51    1
   112    47    46   ar
   113    51    50   ar
   114    63    62    1
   115    66    67    1
   116    66    65    1
   117    44    43    2
   118   191   190    1
   119   155   156    1
   120    42    41    1
   121    42    43    1
   122    42    45    1
   123    65    62    1
   124    46    45    1
   125    46    48   ar
   126    62    61    1
   127    50    48   ar
   128   186   187    1
   129   156   157    2
   130   190   187    1
   131   190   192    1
   132   104   103    2
   133    99    98    1
   134   103   102    1
   135   187   188    1
   136    93    94    1
   137    60    58    1
   138   107   105    1
   139    98   100    1
   140    98    97    1
   141   102   105    1
   142   102   101    1
   143    94    97    1
   144    94    95    1
   145   188   189    2
   146    29    26    1
   147    58    57    1
   148   105   106    1
   149    59    57    1
   150    95    96    2
   151    12    11    2
   152    57    54    1
   153    25    26    1
   154    25    19   am
   155    24    22    1
   156     8     6    1
   157    26    27    1
   158    28    27    2
   159     7     5    1
   160     5     6    1
   161     5     2    1
   162    18    19    1
   163    18    21    1
   164    18    17    1
   165    11    17   am
   166    11    10    1
   167    53    54    1
   168    19    20    2
   169    54    55    1
   170     9    10    1
   171     9     3   am
   172    21    22    1
   173    22    23    1
   174    13    10    1
   175    13    14    1
   176     2     3    1
   177     2     1    1
   178    15    14    2
   179    55    56    2
   180     3     4    2
   181    14    16   am
