@<TRIPOS>MOLECULE
tmp/5mzjA04.pdb
 79 73 0 0 0
SMALL
GASTEIGER

@<TRIPOS>ATOM
      1  N        -27.6920    3.6750    2.8120 N.3    13  VAL13      -0.1245
      2  CA       -26.7860    2.5690    3.0860 C.3    13  VAL13       0.1561
      3  C        -27.1730    1.8780    4.3870 C.2    13  VAL13       0.2260
      4  O        -27.1990    0.6400    4.4630 O.2    13  VAL13      -0.2867
      5  CB       -25.3280    3.0720    3.0990 C.3    13  VAL13       0.0252
      6  CG1      -24.3880    1.9900    3.6130 C.3    13  VAL13       0.0019
      7  CG2      -24.9040    3.5150    1.6750 C.3    13  VAL13       0.0019
      8  N        -30.2010   -0.3670    3.7190 N.3    16  ALA16      -0.1231
      9  CA       -29.7990   -1.5730    2.9970 C.3    16  ALA16       0.1694
     10  C        -29.1450   -2.5900    3.9280 C.2    16  ALA16       0.2591
     11  O        -29.4140   -3.7930    3.8410 O.2    16  ALA16      -0.2718
     12  CB       -28.8360   -1.1980    1.8790 C.3    16  ALA16       0.0304
     13  N        -28.2660   -2.1250    4.8120 N.am   17  ILE17      -0.1980
     14  CA       -27.6540   -3.0040    5.8020 C.3    17  ILE17       0.1595
     15  C        -28.7110   -3.6010    6.7170 C.2    17  ILE17       0.2287
     16  O        -28.6640   -4.7960    7.0400 O.2    17  ILE17      -0.2864
     17  CB       -26.5850   -2.2320    6.5930 C.3    17  ILE17       0.0276
     18  CG1      -25.4650   -1.8280    5.6450 C.3    17  ILE17       0.0022
     19  CG2      -26.0500   -3.0650    7.7780 C.3    17  ILE17       0.0022
     20  CD1      -24.5930   -0.7380    6.2110 C.3    17  ILE17       0.0001
     21  N        -30.5670   -6.4740    5.0760 N.3    20  LEU20      -0.1245
     22  CA       -29.7330   -7.6630    4.9400 C.3    20  LEU20       0.1561
     23  C        -29.4540   -8.3100    6.2920 C.2    20  LEU20       0.2260
     24  O        -29.4040   -9.5400    6.3960 O.2    20  LEU20      -0.2867
     25  CB       -28.4260   -7.3080    4.2380 C.3    20  LEU20       0.0270
     26  CG       -28.5610   -6.8760    2.7720 C.3    20  LEU20       0.0019
     27  CD1      -27.2320   -6.3110    2.2790 C.3    20  LEU20       0.0001
     28  CD2      -29.0070   -8.0550    1.9000 C.3    20  LEU20       0.0001
     29  N        -21.2590    2.6280    9.5910 N.3   356  VAL356     -0.1245
     30  CA       -21.8170    1.6620    8.6520 C.3   356  VAL356      0.1561
     31  C        -21.0440    0.3500    8.7120 C.2   356  VAL356      0.2260
     32  O        -21.6320   -0.7360    8.6820 O.2   356  VAL356     -0.2867
     33  CB       -21.8200    2.2650    7.2320 C.3   356  VAL356      0.0252
     34  CG1      -21.6530    1.1880    6.1780 C.3   356  VAL356      0.0019
     35  CG2      -23.0880    3.0770    6.9990 C.3   356  VAL356      0.0019
     36  N        -22.3630   -3.3520    9.4530 N.3   360  THR360     -0.1218
     37  CA       -22.2130   -4.4180    8.4700 C.3   360  THR360      0.1862
     38  C        -21.8390   -5.7430    9.1230 C.2   360  THR360      0.2287
     39  O        -22.1360   -6.8050    8.5660 O.2   360  THR360     -0.2866
     40  CB       -21.1650   -4.0210    7.4260 C.3   360  THR360      0.1770
     41  OG1      -21.5100   -2.7460    6.8670 O.3   360  THR360     -0.2211
     42  CG2      -21.0870   -5.0560    6.3090 C.3   360  THR360      0.0375
     43  N        -24.4060   -8.3160    9.1280 N.3   363  VAL363     -0.1231
     44  CA       -24.7360   -9.0240    7.8930 C.3   363  VAL363      0.1692
     45  C        -23.8930  -10.2890    7.7020 C.2   363  VAL363      0.2591
     46  O        -24.3680  -11.2520    7.0770 O.2   363  VAL363     -0.2718
     47  CB       -24.5780   -8.0830    6.6720 C.3   363  VAL363      0.0266
     48  CG1      -24.9700   -8.7930    5.3570 C.3   363  VAL363      0.0020
     49  CG2      -25.4080   -6.8170    6.8590 C.3   363  VAL363      0.0020
     50  N        -22.6630  -10.3270    8.2290 N.am  364  VAL364     -0.1980
     51  CA       -21.6820  -11.2600    7.6730 C.3   364  VAL364      0.1595
     52  C        -21.8280  -12.6830    8.2100 C.2   364  VAL364      0.2287
     53  O        -21.5180  -13.6360    7.4900 O.2   364  VAL364     -0.2864
     54  CB       -20.2480  -10.7500    7.8960 C.3   364  VAL364      0.0276
     55  CG1      -20.0340   -9.4520    7.1530 C.3   364  VAL364      0.0022
     56  CG2      -19.9510  -10.5880    9.3890 C.3   364  VAL364      0.0022
     57  N        -23.3980  -15.5230    6.1290 N.3   367  PHE367     -0.1241
     58  CA       -22.5660  -15.9480    5.0040 C.3   367  PHE367      0.1605
     59  C        -21.4630  -16.8990    5.4460 C.2   367  PHE367      0.2264
     60  O        -21.1580  -17.8690    4.7390 O.2   367  PHE367     -0.2867
     61  CB       -21.9870  -14.7270    4.2980 C.3   367  PHE367      0.0534
     62  CG       -23.0000  -13.9980    3.4980 C.ar  367  PHE367     -0.0203
     63  CD1      -23.7840  -13.0200    4.0860 C.ar  367  PHE367     -0.0042
     64  CD2      -23.2190  -14.3380    2.1710 C.ar  367  PHE367     -0.0042
     65  CE1      -24.7450  -12.3620    3.3530 C.ar  367  PHE367     -0.0003
     66  CE2      -24.1790  -13.6880    1.4350 C.ar  367  PHE367     -0.0003
     67  CZ       -24.9480  -12.7060    2.0250 C.ar  367  PHE367     -0.0000
     68  N        -21.0030  -20.7210    3.9740 N.3   371  TYR371     -0.1241
     69  CA       -19.8170  -21.1470    3.2420 C.3   371  TYR371      0.1605
     70  C        -18.9850  -22.1750    3.9950 C.2   371  TYR371      0.2264
     71  O        -18.2420  -22.9300    3.3580 O.2   371  TYR371     -0.2867
     72  CB       -18.9450  -19.9340    2.9040 C.3   371  TYR371      0.0534
     73  CG       -19.3910  -19.1960    1.6630 C.ar  371  TYR371     -0.0201
     74  CD1      -19.1580  -19.7280    0.4000 C.ar  371  TYR371     -0.0009
     75  CD2      -20.0420  -17.9690    1.7490 C.ar  371  TYR371     -0.0009
     76  CE1      -19.5600  -19.0660   -0.7470 C.ar  371  TYR371      0.0417
     77  CE2      -20.4500  -17.2960    0.6040 C.ar  371  TYR371      0.0417
     78  CZ       -20.2050  -17.8530   -0.6410 C.ar  371  TYR371      0.1957
     79  OH       -20.6030  -17.2010   -1.7860 O.3   371  TYR371     -0.2866
@<TRIPOS>BOND
     1    79    78    1
     2    76    78   ar
     3    76    74   ar
     4    78    77   ar
     5    74    73   ar
     6    77    75   ar
     7    66    67   ar
     8    66    64   ar
     9    73    75   ar
    10    73    72    1
    11     7     5    1
    12    12     9    1
    13    28    26    1
    14    67    65   ar
    15    64    62   ar
    16    27    26    1
    17    26    25    1
    18     1     2    1
    19    72    69    1
    20     9     8    1
    21     9    10    1
    22     2     5    1
    23     2     3    1
    24     5     6    1
    25    69    68    1
    26    69    70    1
    27    65    63   ar
    28    71    70    2
    29    62    63   ar
    30    62    61    1
    31    11    10    2
    32    10    13   am
    33    25    22    1
    34    61    58    1
    35     3     4    2
    36    60    59    2
    37    13    14    1
    38    22    21    1
    39    22    23    1
    40    58    59    1
    41    58    57    1
    42    48    47    1
    43    18    20    1
    44    18    17    1
    45    14    17    1
    46    14    15    1
    47    34    33    1
    48    23    24    2
    49    42    40    1
    50    17    19    1
    51    47    49    1
    52    47    44    1
    53    15    16    2
    54    41    40    1
    55    35    33    1
    56    46    45    2
    57    55    54    1
    58    33    30    1
    59    40    37    1
    60    53    52    2
    61    51    54    1
    62    51    52    1
    63    51    50    1
    64    45    44    1
    65    45    50   am
    66    44    43    1
    67    54    56    1
    68    37    38    1
    69    37    36    1
    70    39    38    2
    71    30    31    1
    72    30    29    1
    73    32    31    2
