@<TRIPOS>MOLECULE
tmp/5mzkA02.pdb
 111 105 0 0 0
SMALL
GASTEIGER

@<TRIPOS>ATOM
      1  N         -6.8020  -23.4390   36.9190 N.3   414  ILE414     -0.1245
      2  CA        -7.3310  -22.1460   36.4520 C.3   414  ILE414      0.1561
      3  C         -6.1750  -21.1470   36.3480 C.2   414  ILE414      0.2260
      4  O         -6.0720  -20.4440   35.3450 O.2   414  ILE414     -0.2867
      5  CB        -8.4540  -21.6270   37.4020 C.3   414  ILE414      0.0252
      6  CG1       -9.7200  -22.5310   37.3470 C.3   414  ILE414      0.0019
      7  CG2       -8.8080  -20.1560   37.1430 C.3   414  ILE414      0.0019
      8  CD1      -10.7000  -22.3450   38.5490 C.3   414  ILE414      0.0001
      9  N         -3.8090  -22.0930   33.4800 N.3   417  GLN417     -0.1231
     10  CA        -4.4930  -21.7630   32.2270 C.3   417  GLN417      0.1698
     11  C         -4.4810  -20.2760   31.9560 C.2   417  GLN417      0.2592
     12  O         -4.2060  -19.8910   30.8270 O.2   417  GLN417     -0.2718
     13  CB        -5.9350  -22.2900   32.1980 C.3   417  GLN417      0.0381
     14  CG        -6.0110  -23.7900   31.9070 C.3   417  GLN417      0.0905
     15  CD        -7.4280  -24.3130   31.9020 C.2   417  GLN417      0.2608
     16  OE1       -8.2430  -24.0170   32.7930 O.2   417  GLN417     -0.2717
     17  NE2       -7.7370  -25.1440   30.9160 N.am  417  GLN417     -0.0878
     18  N         -4.7620  -19.4480   32.9860 N.am  418  LEU418     -0.1980
     19  CA        -4.7640  -17.9840   32.9010 C.3   418  LEU418      0.1596
     20  C         -3.4050  -17.4620   32.4650 C.2   418  LEU418      0.2287
     21  O         -3.3350  -16.6810   31.5310 O.2   418  LEU418     -0.2864
     22  CB        -5.1130  -17.3580   34.2620 C.3   418  LEU418      0.0297
     23  CG        -6.5770  -17.2300   34.6120 C.3   418  LEU418      0.0022
     24  CD1       -6.7580  -16.8920   36.0820 C.3   418  LEU418      0.0001
     25  CD2       -7.2370  -16.1880   33.7590 C.3   418  LEU418      0.0001
     26  N         -2.4570  -18.6280   28.7960 N.3   421  PHE421     -0.1227
     27  CA        -3.2520  -17.9010   27.8250 C.3   421  PHE421      0.1736
     28  C         -2.7650  -16.4610   27.7060 C.2   421  PHE421      0.2595
     29  O         -2.5620  -15.9940   26.5900 O.2   421  PHE421     -0.2718
     30  CB        -4.7400  -17.9650   28.1980 C.3   421  PHE421      0.0547
     31  CG        -5.6250  -17.4500   27.0890 C.ar  421  PHE421     -0.0202
     32  CD1       -6.1580  -18.3210   26.1440 C.ar  421  PHE421     -0.0042
     33  CD2       -5.9010  -16.0940   26.9720 C.ar  421  PHE421     -0.0042
     34  CE1       -6.9530  -17.8450   25.1010 C.ar  421  PHE421     -0.0003
     35  CE2       -6.6850  -15.6170   25.9150 C.ar  421  PHE421     -0.0003
     36  CZ        -7.1980  -16.4970   24.9850 C.ar  421  PHE421     -0.0000
     37  N         -2.5460  -15.7790   28.8570 N.am  422  ALA422     -0.1980
     38  CA        -2.1190  -14.3780   28.9560 C.3   422  ALA422      0.1597
     39  C         -0.7640  -14.0930   28.3130 C.2   422  ALA422      0.2287
     40  O         -0.6140  -13.0610   27.6650 O.2   422  ALA422     -0.2864
     41  CB        -2.1170  -13.9260   30.4150 C.3   422  ALA422      0.0319
     42  N          2.6740  -12.9220   23.1920 N.3   426  HIS426     -0.1241
     43  CA         3.4200  -11.8290   23.8210 C.3   426  HIS426      0.1621
     44  C          4.8330  -12.2860   24.1840 C.2   426  HIS426      0.2264
     45  O          5.0090  -13.3990   24.6820 O.2   426  HIS426     -0.2867
     46  CB         2.6830  -11.3050   25.0610 C.3   426  HIS426      0.0745
     47  CG         1.3670  -10.6720   24.7430 C.ar  426  HIS426      0.0817
     48  ND1        1.2710   -9.3330   24.4140 N.ar  426  HIS426     -0.2268
     49  CD2        0.1330  -11.2250   24.6870 C.ar  426  HIS426      0.1154
     50  CE1       -0.0120   -9.1130   24.1730 C.ar  426  HIS426      0.1986
     51  NE2       -0.7360  -10.2210   24.3280 N.ar  426  HIS426     -0.2212
     52  N          3.9150   -5.5560   26.9840 N.3   431  SER431     -0.1202
     53  CA         2.8620   -5.6980   25.9750 C.3   431  SER431      0.2020
     54  C          1.5900   -6.3740   26.5280 C.2   431  SER431      0.2619
     55  O          0.5970   -6.4740   25.8020 O.2   431  SER431     -0.2717
     56  CB         3.3850   -6.4350   24.7430 C.3   431  SER431      0.2103
     57  OG         3.9320   -7.7010   25.0770 O.3   431  SER431     -0.2182
     58  N          1.5960   -6.7870   27.8180 N.am  432  ILE432     -0.1965
     59  CA         0.4440   -7.4380   28.4610 C.3   432  ILE432      0.1727
     60  C         -0.3850   -6.4420   29.3040 C.2   432  ILE432      0.2616
     61  O          0.1680   -5.7400   30.1530 O.2   432  ILE432     -0.2715
     62  CB         0.8680   -8.7050   29.2620 C.3   432  ILE432      0.0290
     63  CG1        1.4870   -9.7700   28.3220 C.3   432  ILE432      0.0022
     64  CG2       -0.3120   -9.2980   30.0540 C.3   432  ILE432      0.0023
     65  CD1        2.4340  -10.7680   28.9770 C.3   432  ILE432      0.0001
     66  N         -1.7160   -6.4040   29.0560 N.am  433  ASN433     -0.1972
     67  CA        -2.6840   -5.5680   29.7710 C.3   433  ASN433      0.1688
     68  C         -2.9770   -6.2550   31.1130 C.2   433  ASN433      0.2292
     69  O         -3.7660   -7.2030   31.1660 O.2   433  ASN433     -0.2864
     70  CB        -3.9660   -5.4000   28.9190 C.3   433  ASN433      0.1181
     71  CG        -4.9750   -4.3730   29.3830 C.2   433  ASN433      0.2629
     72  OD1       -5.0560   -3.9950   30.5580 O.2   433  ASN433     -0.2716
     73  ND2       -5.8170   -3.9420   28.4580 N.am  433  ASN433     -0.0877
     74  N         -6.6460   -6.4570   32.5170 N.3   436  ALA436     -0.1231
     75  CA        -7.4400   -7.4640   31.8130 C.3   436  ALA436      0.1694
     76  C         -7.1840   -8.8750   32.3840 C.2   436  ALA436      0.2591
     77  O         -8.1500   -9.6140   32.6010 O.2   436  ALA436     -0.2718
     78  CB        -7.1590   -7.4210   30.3250 C.3   436  ALA436      0.0304
     79  N         -5.9080   -9.2180   32.6950 N.am  437  VAL437     -0.1980
     80  CA        -5.5390  -10.5120   33.3040 C.3   437  VAL437      0.1595
     81  C         -6.1370  -10.5810   34.7220 C.2   437  VAL437      0.2287
     82  O         -6.6930  -11.6150   35.1100 O.2   437  VAL437     -0.2864
     83  CB        -3.9990  -10.7650   33.3040 C.3   437  VAL437      0.0276
     84  CG1       -3.6520  -12.1280   33.9190 C.3   437  VAL437      0.0022
     85  CG2       -3.4170  -10.6560   31.8900 C.3   437  VAL437      0.0022
     86  N         -9.7780  -11.3880   34.8530 N.3   440  GLU440     -0.1245
     87  CA        -9.9710  -12.8280   34.7020 C.3   440  GLU440      0.1567
     88  C         -9.6960  -13.5660   36.0160 C.2   440  GLU440      0.2260
     89  O        -10.3440  -14.5810   36.2770 O.2   440  GLU440     -0.2867
     90  CB        -9.1500  -13.3890   33.5300 C.3   440  GLU440      0.0388
     91  CG        -9.5200  -12.8260   32.1630 C.3   440  GLU440      0.1160
     92  CD       -10.9040  -13.1340   31.6160 C.2   440  GLU440      0.3649
     93  OE1      -11.4640  -14.2040   31.9490 O.co2 440  GLU440     -0.2457
     94  OE2      -11.4110  -12.3180   30.8150 O.co2 440  GLU440     -0.2457
     95  N        -12.7890  -12.9320   38.1310 N.3   443  ARG443     -0.1231
     96  CA       -13.9050  -13.6470   37.5200 C.3   443  ARG443      0.1694
     97  C        -13.8590  -15.1550   37.7720 C.2   443  ARG443      0.2592
     98  O        -14.9170  -15.7710   37.9270 O.2   443  ARG443     -0.2718
     99  CB       -13.9350  -13.3770   36.0050 C.3   443  ARG443      0.0321
    100  CG       -15.2650  -13.6810   35.3380 C.3   443  ARG443      0.0489
    101  CD       -15.2520  -13.3520   33.8460 C.3   443  ARG443      0.2205
    102  NE       -14.2940  -14.1590   33.0830 N.pl3 443  ARG443     -0.0865
    103  CZ       -14.4580  -15.4430   32.7640 C.cat 443  ARG443      0.5346
    104  NH1      -13.5300  -16.0830   32.0650 N.pl3 443  ARG443      0.1354
    105  NH2      -15.5370  -16.1040   33.1640 N.pl3 443  ARG443      0.1354
    106  N        -12.6500  -15.7560   37.7840 N.am  444  CYS444     -0.1970
    107  CA       -12.4810  -17.2080   37.8410 C.3   444  CYS444      0.1712
    108  C        -12.0500  -17.7670   39.1970 C.2   444  CYS444      0.2296
    109  O        -12.2120  -18.9680   39.4250 O.2   444  CYS444     -0.2864
    110  CB       -11.5210  -17.6520   36.7430 C.3   444  CYS444      0.0983
    111  SG       -12.0960  -17.3010   35.0650 S.3   444  CYS444     -0.0798
@<TRIPOS>BOND
     1    42    43    1
     2    43    44    1
     3    43    46    1
     4    50    51   ar
     5    50    48   ar
     6    44    45    2
     7    51    49   ar
     8    48    47   ar
     9    49    47   ar
    10    47    46    1
    11    56    57    1
    12    56    53    1
    13    36    34   ar
    14    36    35   ar
    15    34    32   ar
    16    55    54    2
    17    35    33   ar
    18    53    54    1
    19    53    52    1
    20    32    31   ar
    21    54    58   am
    22    29    28    2
    23    33    31   ar
    24    31    30    1
    25    40    39    2
    26    28    27    1
    27    28    37   am
    28    58    59    1
    29    27    30    1
    30    27    26    1
    31    39    38    1
    32    63    65    1
    33    63    62    1
    34    73    71   am
    35    59    62    1
    36    59    60    1
    37    37    38    1
    38    70    71    1
    39    70    67    1
    40    38    41    1
    41    66    60   am
    42    66    67    1
    43    62    64    1
    44    60    61    2
    45    71    72    2
    46    67    68    1
    47    78    75    1
    48    94    92   ar
    49    12    11    2
    50    17    15   am
    51    68    69    2
    52    21    20    2
    53    92    93   ar
    54    92    91    1
    55    75    76    1
    56    75    74    1
    57    85    83    1
    58    15    14    1
    59    15    16    2
    60    14    13    1
    61    11    10    1
    62    11    18   am
    63   104   103    1
    64    91    90    1
    65    13    10    1
    66    10     9    1
    67    76    77    2
    68    76    79   am
    69    20    19    1
    70    79    80    1
    71   103   102    2
    72   103   105    1
    73    19    18    1
    74    19    22    1
    75   102   101    1
    76    80    83    1
    77    80    81    1
    78    83    84    1
    79    90    87    1
    80    25    23    1
    81   101   100    1
    82    22    23    1
    83    23    24    1
    84    87    86    1
    85    87    88    1
    86    81    82    2
    87   111   110    1
    88   100    99    1
    89     4     3    2
    90    99    96    1
    91    88    89    2
    92     3     2    1
    93     2     1    1
    94     2     5    1
    95   110   107    1
    96     7     5    1
    97     6     5    1
    98     6     8    1
    99    96    97    1
   100    96    95    1
   101    97   106   am
   102    97    98    2
   103   106   107    1
   104   107   108    1
   105   108   109    2
