@<TRIPOS>MOLECULE
tmp/5mzkB02.pdb
 198 188 0 0 0
SMALL
GASTEIGER

@<TRIPOS>ATOM
      1  N        -32.9920  -12.0620    9.8640 N.3    47  ILE47      -0.1231
      2  CA       -32.9340  -10.8380   10.6740 C.3    47  ILE47       0.1692
      3  C        -31.9840   -9.8100   10.0540 C.2    47  ILE47       0.2592
      4  O        -31.1860  -10.1290    9.1610 O.2    47  ILE47      -0.2718
      5  CB       -32.5750  -11.1170   12.1570 C.3    47  ILE47       0.0266
      6  CG1      -31.1480  -11.7010   12.2820 C.3    47  ILE47       0.0019
      7  CG2      -33.6540  -11.9800   12.8530 C.3    47  ILE47       0.0020
      8  CD1      -30.4170  -11.2920   13.5580 C.3    47  ILE47       0.0001
      9  N        -32.0760   -8.5890   10.5500 N.am   48  ASN48      -0.1960
     10  CA       -31.2190   -7.4990   10.1580 C.3    48  ASN48       0.1819
     11  C        -30.0440   -7.4220   11.1580 C.2    48  ASN48       0.2621
     12  O        -30.2010   -7.7470   12.3330 O.2    48  ASN48      -0.2715
     13  CB       -32.0150   -6.1910   10.0990 C.3    48  ASN48       0.1195
     14  CG       -32.6230   -5.9410    8.7240 C.2    48  ASN48       0.2630
     15  OD1      -33.1330   -6.8660    8.0770 O.2    48  ASN48      -0.2716
     16  ND2      -32.5830   -4.7010    8.2510 N.am   48  ASN48      -0.0877
     17  N        -28.8820   -6.9840   10.6750 N.am   49  LEU49      -0.1963
     18  CA       -27.6770   -6.8050   11.4610 C.3    49  LEU49       0.1728
     19  C        -27.2750   -5.3310   11.4150 C.2    49  LEU49       0.2616
     20  O        -27.5790   -4.6420   10.4400 O.2    49  LEU49      -0.2715
     21  CB       -26.5300   -7.6440   10.8340 C.3    49  LEU49       0.0311
     22  CG       -26.8170   -9.1220   10.5620 C.3    49  LEU49       0.0022
     23  CD1      -25.6650   -9.7810    9.8070 C.3    49  LEU49       0.0001
     24  CD2      -27.1270   -9.8730   11.8370 C.3    49  LEU49       0.0001
     25  N        -26.5570   -4.8720   12.4420 N.am   50  ALA50      -0.1977
     26  CA       -26.0460   -3.5260   12.4760 C.3    50  ALA50       0.1597
     27  C        -24.6530   -3.5490   11.8260 C.2    50  ALA50       0.2287
     28  O        -23.7350   -4.2090   12.3250 O.2    50  ALA50      -0.2864
     29  CB       -25.9390   -3.0350   13.9150 C.3    50  ALA50       0.0319
     30  N        -29.3480    6.2650   18.8890 N.3    78  ARG78      -0.1245
     31  CA       -29.9210    5.2900   19.7850 C.3    78  ARG78       0.1563
     32  C        -31.1590    5.8800   20.4990 C.2    78  ARG78       0.2260
     33  O        -31.0450    6.8920   21.2050 O.2    78  ARG78      -0.2867
     34  CB       -28.8390    4.8750   20.7670 C.3    78  ARG78       0.0307
     35  CG       -29.2330    3.8010   21.7330 C.3    78  ARG78       0.0489
     36  CD       -28.6090    4.1490   23.0500 C.3    78  ARG78       0.2205
     37  NE       -27.3680    3.4310   23.2890 N.pl3  78  ARG78      -0.0865
     38  CZ       -26.5200    3.7240   24.2660 C.cat  78  ARG78       0.5346
     39  NH1      -25.4160    3.0180   24.4220 N.pl3  78  ARG78       0.1354
     40  NH2      -26.7550    4.7490   25.0750 N.pl3  78  ARG78       0.1354
     41  N        -25.4900    9.5930   17.0420 N.3    92  TYR92      -0.1241
     42  CA       -24.1540    8.9860   16.9910 C.3    92  TYR92       0.1605
     43  C        -23.0070    9.9860   16.7690 C.2    92  TYR92       0.2264
     44  O        -21.8560    9.6470   17.0250 O.2    92  TYR92      -0.2867
     45  CB       -24.1020    7.8600   15.9510 C.3    92  TYR92       0.0534
     46  CG       -24.9780    6.6790   16.2910 C.ar   92  TYR92      -0.0201
     47  CD1      -24.8870    6.0520   17.5330 C.ar   92  TYR92      -0.0009
     48  CD2      -25.8610    6.1520   15.3550 C.ar   92  TYR92      -0.0009
     49  CE1      -25.6950    4.9650   17.8520 C.ar   92  TYR92       0.0417
     50  CE2      -26.6680    5.0600   15.6600 C.ar   92  TYR92       0.0417
     51  CZ       -26.6040    4.4920   16.9200 C.ar   92  TYR92       0.1957
     52  OH       -27.3960    3.4110   17.1840 O.3    92  TYR92      -0.2866
     53  N        -25.2020    4.0200   11.9680 N.3   100  ILE100     -0.1245
     54  CA       -25.0930    2.5640   11.9110 C.3   100  ILE100      0.1561
     55  C        -26.1730    2.1600   10.8890 C.2   100  ILE100      0.2260
     56  O        -27.2130    2.8130   10.7950 O.2   100  ILE100     -0.2867
     57  CB       -25.2770    1.8630   13.2910 C.3   100  ILE100      0.0252
     58  CG1      -24.3510    2.4340   14.3690 C.3   100  ILE100      0.0019
     59  CG2      -25.0800    0.3480   13.1510 C.3   100  ILE100      0.0019
     60  CD1      -24.6690    1.8610   15.7850 C.3   100  ILE100      0.0001
     61  N        -31.9490  -15.3300   24.7440 N.3   187  TYR187     -0.1241
     62  CA       -32.6170  -14.3090   23.9410 C.3   187  TYR187      0.1605
     63  C        -33.8090  -14.8790   23.2020 C.2   187  TYR187      0.2264
     64  O        -33.8010  -16.0410   22.7950 O.2   187  TYR187     -0.2867
     65  CB       -31.6680  -13.5270   22.9960 C.3   187  TYR187      0.0534
     66  CG       -31.1470  -14.3100   21.8040 C.ar  187  TYR187     -0.0201
     67  CD1      -31.8210  -14.2930   20.5810 C.ar  187  TYR187     -0.0009
     68  CD2      -29.9510  -15.0230   21.8820 C.ar  187  TYR187     -0.0009
     69  CE1      -31.3310  -14.9940   19.4780 C.ar  187  TYR187      0.0417
     70  CE2      -29.4470  -15.7140   20.7830 C.ar  187  TYR187      0.0417
     71  CZ       -30.1350  -15.6870   19.5810 C.ar  187  TYR187      0.1957
     72  OH       -29.6600  -16.4110   18.5190 O.3   187  TYR187     -0.2866
     73  N        -36.5980  -13.6410   20.0910 N.3   189  GLU189     -0.1245
     74  CA       -36.9500  -12.7200   19.0160 C.3   189  GLU189      0.1567
     75  C        -38.4590  -12.5900   18.8830 C.2   189  GLU189      0.2260
     76  O        -39.1690  -13.5820   18.8520 O.2   189  GLU189     -0.2867
     77  CB       -36.3030  -13.1800   17.6990 C.3   189  GLU189      0.0388
     78  CG       -34.7950  -13.0210   17.7100 C.3   189  GLU189      0.1160
     79  CD       -34.0840  -13.5840   16.4960 C.2   189  GLU189      0.3649
     80  OE1      -32.8830  -13.2790   16.3250 O.co2 189  GLU189     -0.2457
     81  OE2      -34.7370  -14.2830   15.6860 O.co2 189  GLU189     -0.2457
     82  N        -31.7990    2.8570   16.4410 N.3   207  LEU207     -0.1245
     83  CA       -31.6590    1.5590   17.1240 C.3   207  LEU207      0.1561
     84  C        -32.3650    1.8040   18.4650 C.2   207  LEU207      0.2260
     85  O        -32.0380    2.7690   19.1590 O.2   207  LEU207     -0.2867
     86  CB       -30.1820    1.2320   17.3630 C.3   207  LEU207      0.0270
     87  CG       -29.8740   -0.1510   17.9650 C.3   207  LEU207      0.0019
     88  CD1      -28.5940   -0.6980   17.3630 C.3   207  LEU207      0.0001
     89  CD2      -29.7550   -0.0780   19.4910 C.3   207  LEU207      0.0001
     90  N        -33.6150    0.8090   22.3980 N.3   209  ILE209     -0.1245
     91  CA       -33.3010    0.0280   23.6100 C.3   209  ILE209      0.1561
     92  C        -34.3310    0.2690   24.7170 C.2   209  ILE209      0.2260
     93  O        -34.6950    1.4130   24.9720 O.2   209  ILE209     -0.2867
     94  CB       -31.8500    0.2700   24.1270 C.3   209  ILE209      0.0252
     95  CG1      -30.8070   -0.0930   23.0340 C.3   209  ILE209      0.0019
     96  CG2      -31.5890   -0.5320   25.4290 C.3   209  ILE209      0.0019
     97  CD1      -29.4230    0.4850   23.3110 C.3   209  ILE209      0.0001
     98  N        -34.0800   -4.8780   22.8160 N.3   218  ILE218     -0.1245
     99  CA       -33.4620   -4.0620   21.7590 C.3   218  ILE218      0.1561
    100  C        -34.3060   -4.2510   20.5080 C.2   218  ILE218      0.2260
    101  O        -34.8460   -5.3380   20.3120 O.2   218  ILE218     -0.2867
    102  CB       -31.9610   -4.4290   21.5080 C.3   218  ILE218      0.0252
    103  CG1      -31.2760   -3.4040   20.5510 C.3   218  ILE218      0.0019
    104  CG2      -31.7850   -5.8900   20.9710 C.3   218  ILE218      0.0019
    105  CD1      -29.7420   -3.5910   20.3680 C.3   218  ILE218      0.0001
    106  N        -34.2480   -3.4560   16.1360 N.3   220  LEU220     -0.1245
    107  CA       -33.6250   -2.9410   14.9370 C.3   220  LEU220      0.1561
    108  C        -34.7130   -2.8120   13.8540 C.2   220  LEU220      0.2260
    109  O        -35.5740   -3.6860   13.7200 O.2   220  LEU220     -0.2867
    110  CB       -32.4990   -3.8730   14.4420 C.3   220  LEU220      0.0270
    111  CG       -31.0850   -3.5930   14.9960 C.3   220  LEU220      0.0019
    112  CD1      -31.0000   -3.8870   16.5280 C.3   220  LEU220      0.0001
    113  CD2      -30.0370   -4.4130   14.2150 C.3   220  LEU220      0.0001
    114  N        -35.6880   -7.9900   20.3700 N.3   230  THR230     -0.1218
    115  CA       -35.0580   -9.1010   21.0530 C.3   230  THR230      0.1862
    116  C        -35.0310   -8.8550   22.5400 C.2   230  THR230      0.2287
    117  O        -34.5440   -7.8200   22.9890 O.2   230  THR230     -0.2866
    118  CB       -33.6330   -9.3810   20.5270 C.3   230  THR230      0.1770
    119  OG1      -33.6410   -9.5340   19.1100 O.3   230  THR230     -0.2211
    120  CG2      -32.9980  -10.5960   21.1910 C.3   230  THR230      0.0375
    121  N        -33.4560   -9.9610   26.0690 N.3   232  PHE232     -0.1241
    122  CA       -32.3140  -10.6120   26.7100 C.3   232  PHE232      0.1605
    123  C        -32.7270  -10.8210   28.1490 C.2   232  PHE232      0.2264
    124  O        -33.1080   -9.8660   28.8170 O.2   232  PHE232     -0.2867
    125  CB       -31.0620   -9.7370   26.6470 C.3   232  PHE232      0.0534
    126  CG       -30.4960   -9.6500   25.2660 C.ar  232  PHE232     -0.0203
    127  CD1      -29.8060  -10.7270   24.7050 C.ar  232  PHE232     -0.0042
    128  CD2      -30.6600   -8.5000   24.5020 C.ar  232  PHE232     -0.0042
    129  CE1      -29.2740  -10.6390   23.4150 C.ar  232  PHE232     -0.0003
    130  CE2      -30.1470   -8.4290   23.2050 C.ar  232  PHE232     -0.0003
    131  CZ       -29.4220   -9.4800   22.6920 C.ar  232  PHE232     -0.0000
    132  N        -23.4420  -10.8900   21.4650 N.3   312  PRO312     -0.2102
    133  CA       -23.8570   -9.9210   20.4200 C.3   312  PRO312      0.1504
    134  C        -24.1050   -8.4830   20.8880 C.2   312  PRO312      0.2576
    135  O        -24.6100   -7.6540   20.1040 O.2   312  PRO312     -0.2718
    136  CB       -25.1420  -10.5440   19.9050 C.3   312  PRO312      0.0282
    137  CG       -25.7790  -11.1190   21.1680 C.3   312  PRO312      0.0208
    138  CD       -24.5860  -11.7130   21.9180 C.3   312  PRO312      0.0893
    139  N        -23.7000   -8.1870   22.1420 N.am  313  PHE313     -0.1963
    140  CA       -24.0270   -6.9380   22.8360 C.3   313  PHE313      0.1771
    141  C        -23.4170   -5.6570   22.2450 C.2   313  PHE313      0.2620
    142  O        -23.9110   -4.5780   22.5650 O.2   313  PHE313     -0.2715
    143  CB       -23.7340   -7.0350   24.3340 C.3   313  PHE313      0.0574
    144  CG       -24.3920   -8.2170   25.0280 C.ar  313  PHE313     -0.0200
    145  CD1      -25.7250   -8.5450   24.7770 C.ar  313  PHE313     -0.0042
    146  CD2      -23.7000   -8.9570   25.9660 C.ar  313  PHE313     -0.0042
    147  CE1      -26.3310   -9.6280   25.4280 C.ar  313  PHE313     -0.0003
    148  CE2      -24.3070  -10.0340   26.6230 C.ar  313  PHE313     -0.0003
    149  CZ       -25.6170  -10.3630   26.3480 C.ar  313  PHE313     -0.0000
    150  N        -22.4130   -5.7640   21.3580 N.am  314  HIS314     -0.1959
    151  CA       -21.8440   -4.5910   20.6910 C.3   314  HIS314      0.1787
    152  C        -22.2180   -4.4700   19.1980 C.2   314  HIS314      0.2620
    153  O        -21.8840   -3.4450   18.5640 O.2   314  HIS314     -0.2715
    154  CB       -20.3070   -4.5280   20.8860 C.3   314  HIS314      0.0785
    155  CG       -19.7870   -3.1370   21.1480 C.ar  314  HIS314      0.0821
    156  ND1      -20.0930   -2.0780   20.3050 N.ar  314  HIS314     -0.2267
    157  CD2      -18.9810   -2.6830   22.1450 C.ar  314  HIS314      0.1154
    158  CE1      -19.4990   -1.0110   20.8290 C.ar  314  HIS314      0.1986
    159  NE2      -18.7920   -1.3330   21.9190 N.ar  314  HIS314     -0.2212
    160  N        -22.9160   -5.4770   18.6470 N.am  315  GLY315     -0.1954
    161  CA       -23.2510   -5.4890   17.2190 C.3   315  GLY315      0.1869
    162  C        -21.9930   -5.4300   16.3730 C.2   315  GLY315      0.2309
    163  O        -21.9250   -4.6710   15.4020 O.2   315  GLY315     -0.2863
    164  N        -20.4370   -4.0650   27.1560 N.3   363  ASN363     -0.1240
    165  CA       -21.5390   -3.2590   26.5930 C.3   363  ASN363      0.1653
    166  C        -22.9390   -3.6280   27.1240 C.2   363  ASN363      0.2266
    167  O        -23.8440   -2.7880   27.0630 O.2   363  ASN363     -0.2867
    168  CB       -21.5560   -3.2410   25.0610 C.3   363  ASN363      0.1155
    169  CG       -22.1640   -1.9450   24.5440 C.2   363  ASN363      0.2627
    170  OD1      -21.8690   -0.8640   25.0630 O.2   363  ASN363     -0.2716
    171  ND2      -23.0660   -2.0170   23.5590 N.am  363  ASN363     -0.0877
    172  N        -25.7850   -0.6480   28.0380 N.3   367  MET367     -0.1245
    173  CA       -27.0970   -0.5580   27.4150 C.3   367  MET367      0.1570
    174  C        -28.2330   -0.7770   28.4060 C.2   367  MET367      0.2261
    175  O        -29.2410   -0.0970   28.3080 O.2   367  MET367     -0.2867
    176  CB       -27.2500   -1.6220   26.3260 C.3   367  MET367      0.0387
    177  CG       -26.3420   -1.4500   25.1350 C.3   367  MET367      0.0595
    178  SD       -26.8170   -2.6480   23.8330 S.3   367  MET367     -0.1393
    179  CE       -26.5400   -4.2110   24.6860 C.3   367  MET367      0.0692
    180  N        -17.2340    3.8820   22.5690 N.3   398  TYR398     -0.1241
    181  CA       -18.2790    3.4680   21.6290 C.3   398  TYR398      0.1605
    182  C        -17.9540    3.9440   20.1940 C.2   398  TYR398      0.2264
    183  O        -18.0710    3.1690   19.2540 O.2   398  TYR398     -0.2867
    184  CB       -19.6870    3.9210   22.0650 C.3   398  TYR398      0.0534
    185  CG       -20.7700    3.3120   21.1900 C.ar  398  TYR398     -0.0201
    186  CD1      -21.2420    2.0260   21.4280 C.ar  398  TYR398     -0.0009
    187  CD2      -21.2260    3.9700   20.0480 C.ar  398  TYR398     -0.0009
    188  CE1      -22.1870    1.4320   20.5900 C.ar  398  TYR398      0.0417
    189  CE2      -22.1540    3.3790   19.1920 C.ar  398  TYR398      0.0417
    190  CZ       -22.6460    2.1170   19.4800 C.ar  398  TYR398      0.1957
    191  OH       -23.5840    1.5320   18.6640 O.3   398  TYR398     -0.2866
    192  N        -17.1850    1.6520   17.0250 N.3   402  THR402     -0.1218
    193  CA       -18.2030    1.6590   16.0070 C.3   402  THR402      0.1862
    194  C        -17.8590    2.4950   14.7540 C.2   402  THR402      0.2287
    195  O        -18.2040    2.0670   13.6480 O.2   402  THR402     -0.2866
    196  CB       -19.5610    2.0690   16.6480 C.3   402  THR402      0.1770
    197  OG1      -19.7160    1.4090   17.9280 O.3   402  THR402     -0.2211
    198  CG2      -20.7540    1.7290   15.7720 C.3   402  THR402      0.0375
@<TRIPOS>BOND
     1    15    14    2
     2    16    14   am
     3    14    13    1
     4     4     3    2
     5    23    22    1
     6     1     2    1
     7     3     9   am
     8     3     2    1
     9    13    10    1
    10    10     9    1
    11    10    11    1
    12    20    19    2
    13    22    21    1
    14    22    24    1
    15     2     5    1
    16    17    11   am
    17    17    18    1
    18    56    55    2
    19    21    18    1
    20    55    54    1
    21    11    12    2
    22    19    18    1
    23    19    25   am
    24    27    28    2
    25    27    26    1
    26    54    53    1
    27    54    57    1
    28     5     6    1
    29     5     7    1
    30     6     8    1
    31    25    26    1
    32    26    29    1
    33    59    57    1
    34    57    58    1
    35   195   194    2
    36   109   108    2
    37   108   107    1
    38   113   111    1
    39    58    60    1
    40   110   107    1
    41   110   111    1
    42   194   193    1
    43   107   106    1
    44   111   112    1
    45    48    50   ar
    46    48    46   ar
    47   163   162    2
    48    50    51   ar
    49    81    79   ar
    50   198   196    1
    51    45    46    1
    52    45    42    1
    53   193   196    1
    54   193   192    1
    55    46    47   ar
    56    80    79   ar
    57   162   161    1
    58    82    83    1
    59    79    78    1
    60   196   197    1
    61    43    42    1
    62    43    44    2
    63    51    52    1
    64    51    49   ar
    65    42    41    1
    66    83    86    1
    67    83    84    1
    68   161   160    1
    69    88    87    1
    70    86    87    1
    71    47    49   ar
    72    77    78    1
    73    77    74    1
    74    87    89    1
    75    84    85    2
    76    72    71    1
    77   153   152    2
    78   160   152   am
    79   191   190    1
    80    76    75    2
    81    75    74    1
    82    30    31    1
    83    74    73    1
    84   119   118    1
    85   189   190   ar
    86   189   187   ar
    87   152   151    1
    88   183   182    2
    89    69    71   ar
    90    69    67   ar
    91   190   188   ar
    92    71    70   ar
    93    31    32    1
    94    31    34    1
    95   136   133    1
    96   136   137    1
    97   187   185   ar
    98   135   134    2
    99   182   181    1
   100   156   158   ar
   101   156   155   ar
   102   101   100    2
   103   105   103    1
   104   114   115    1
   105   133   134    1
   106   133   132    1
   107    32    33    2
   108   100    99    1
   109   118   115    1
   110   118   120    1
   111   103   102    1
   112    67    66   ar
   113   188   186   ar
   114   151   154    1
   115   151   150    1
   116    34    35    1
   117    70    68   ar
   118   158   159   ar
   119   154   155    1
   120   134   139   am
   121   104   102    1
   122   115   116    1
   123   155   157   ar
   124   137   138    1
   125   185   186   ar
   126   185   184    1
   127   150   141   am
   128   132   138    1
   129   102    99    1
   130   181   184    1
   131   181   180    1
   132    35    36    1
   133    99    98    1
   134    66    68   ar
   135    66    65    1
   136   159   157   ar
   137   139   140    1
   138   141   142    2
   139   141   140    1
   140    90    91    1
   141   116   117    2
   142   131   130   ar
   143   131   129   ar
   144    64    63    2
   145   140   143    1
   146    65    62    1
   147    95    97    1
   148    95    94    1
   149    36    37    1
   150    63    62    1
   151   130   128   ar
   152    37    38    2
   153   129   127   ar
   154   171   169   am
   155    91    94    1
   156    91    92    1
   157   178   179    1
   158   178   177    1
   159    62    61    1
   160    94    96    1
   161    38    39    1
   162    38    40    1
   163   143   144    1
   164   128   126   ar
   165   169   168    1
   166   169   170    2
   167   127   126   ar
   168    92    93    2
   169   145   144   ar
   170   145   147   ar
   171   144   146   ar
   172   168   165    1
   173   177   176    1
   174   126   125    1
   175   147   149   ar
   176   146   148   ar
   177   121   122    1
   178   176   173    1
   179   149   148   ar
   180   165   166    1
   181   165   164    1
   182   125   122    1
   183   122   123    1
   184   167   166    2
   185   173   172    1
   186   173   174    1
   187   123   124    2
   188   175   174    2
