@<TRIPOS>MOLECULE
tmp/5mzlA00.pdb
 141 131 0 0 0
SMALL
GASTEIGER

@<TRIPOS>ATOM
      1  N        188.5310   79.8650   -0.0620 N.3    12  LEU12      -0.1231
      2  CA       189.0320   81.2100    0.1960 C.3    12  LEU12       0.1693
      3  C        188.0160   82.0840    0.9200 C.2    12  LEU12       0.2592
      4  O        188.4060   83.0800    1.5400 O.2    12  LEU12      -0.2718
      5  CB       189.4200   81.8980   -1.1220 C.3    12  LEU12       0.0284
      6  CG       190.7650   81.5310   -1.7490 C.3    12  LEU12       0.0019
      7  CD1      190.8470   82.0540   -3.1730 C.3    12  LEU12       0.0001
      8  CD2      191.9080   82.0890   -0.9230 C.3    12  LEU12       0.0001
      9  N        186.7400   81.7320    0.8520 N.am   13  GLY13      -0.1957
     10  CA       185.6840   82.5090    1.4720 C.3    13  GLY13       0.1869
     11  C        184.3560   82.2150    0.8160 C.2    13  GLY13       0.2309
     12  O        184.2730   81.5270   -0.2030 O.2    13  GLY13      -0.2863
     13  N        184.2320   80.5620   -2.8470 N.3    16  VAL16      -0.1245
     14  CA       185.4260   80.7560   -3.6570 C.3    16  VAL16       0.1561
     15  C        186.5090   79.8330   -3.1240 C.2    16  VAL16       0.2260
     16  O        186.8140   79.8550   -1.9260 O.2    16  VAL16      -0.2867
     17  CB       185.8920   82.2230   -3.6340 C.3    16  VAL16       0.0252
     18  CG1      187.1240   82.4120   -4.5130 C.3    16  VAL16       0.0019
     19  CG2      184.7600   83.1390   -4.0870 C.3    16  VAL16       0.0019
     20  N        191.5260   81.4230   -8.6130 N.3    29  ALA29      -0.1245
     21  CA       190.4220   81.3440   -7.6720 C.3    29  ALA29       0.1562
     22  C        189.1930   80.8440   -8.4170 C.2    29  ALA29       0.2260
     23  O        188.9150   81.2830   -9.5380 O.2    29  ALA29      -0.2867
     24  CB       190.1430   82.7040   -7.0290 C.3    29  ALA29       0.0290
     25  N        185.2280   80.4070   -8.2990 N.3    31  LYS31      -0.1245
     26  CA       184.0360   80.9470   -7.6600 C.3    31  LYS31       0.1561
     27  C        182.7980   80.2400   -8.1880 C.2    31  LYS31       0.2260
     28  O        182.5710   80.1950   -9.4030 O.2    31  LYS31      -0.2867
     29  CB       183.9130   82.4530   -7.9000 C.3    31  LYS31       0.0271
     30  CG       182.6490   83.0540   -7.3030 C.3    31  LYS31       0.0035
     31  CD       182.6170   84.5640   -7.4650 C.3    31  LYS31       0.0206
     32  CE       181.3620   85.1520   -6.8350 C.3    31  LYS31       0.1093
     33  NZ       181.3630   86.6460   -6.8670 N.3    31  LYS31      -0.1314
     34  N        177.1850   89.1340  -13.5070 N.3    53  GLU53      -0.1245
     35  CA       178.5610   89.1850  -13.0260 C.3    53  GLU53       0.1567
     36  C        179.5360   88.7050  -14.0950 C.2    53  GLU53       0.2260
     37  O        180.6330   89.2590  -14.2410 O.2    53  GLU53      -0.2867
     38  CB       178.6970   88.3520  -11.7530 C.3    53  GLU53       0.0388
     39  CG       180.1130   88.2890  -11.2070 C.3    53  GLU53       0.1160
     40  CD       180.2060   87.5380   -9.8910 C.2    53  GLU53       0.3649
     41  OE1      179.1790   86.9910   -9.4340 O.co2  53  GLU53      -0.2457
     42  OE2      181.3130   87.5000   -9.3110 O.co2  53  GLU53      -0.2457
     43  N        190.7580   91.9740  -10.5730 N.3    68  ILE68      -0.1245
     44  CA       190.9520   90.5330  -10.6810 C.3    68  ILE68       0.1561
     45  C        190.2060   90.0590  -11.9210 C.2    68  ILE68       0.2260
     46  O        188.9820   90.2060  -12.0200 O.2    68  ILE68      -0.2867
     47  CB       190.4710   89.8060   -9.4160 C.3    68  ILE68       0.0252
     48  CG1      191.4120   90.0730   -8.2320 C.3    68  ILE68       0.0019
     49  CG2      190.3520   88.2990   -9.6560 C.3    68  ILE68       0.0019
     50  CD1      192.8530   89.6340   -8.4340 C.3    68  ILE68       0.0001
     51  N        189.0520   82.8010  -11.8710 N.3    84  LEU84      -0.1231
     52  CA       189.5830   84.1370  -11.6640 C.3    84  LEU84       0.1693
     53  C        191.0810   84.0690  -11.4030 C.2    84  LEU84       0.2592
     54  O        191.6130   83.0430  -10.9750 O.2    84  LEU84      -0.2718
     55  CB       188.8950   84.8260  -10.4770 C.3    84  LEU84       0.0284
     56  CG       187.3750   84.9790  -10.5470 C.3    84  LEU84       0.0019
     57  CD1      186.8060   85.1990   -9.1530 C.3    84  LEU84       0.0001
     58  CD2      186.9950   86.1290  -11.4590 C.3    84  LEU84       0.0001
     59  N        191.7580   85.1850  -11.6630 N.am   85  GLU85      -0.1966
     60  CA       193.1490   85.3240  -11.2560 C.3    85  GLU85       0.1733
     61  C        193.2690   85.1500   -9.7480 C.2    85  GLU85       0.2616
     62  O        192.3590   85.4900   -8.9880 O.2    85  GLU85      -0.2715
     63  CB       193.6940   86.6980  -11.6490 C.3    85  GLU85       0.0429
     64  CG       193.9390   86.8880  -13.1310 C.3    85  GLU85       0.1163
     65  CD       194.4510   88.2800  -13.4550 C.2    85  GLU85       0.3649
     66  OE1      194.0050   89.2490  -12.7990 O.co2  85  GLU85      -0.2457
     67  OE2      195.3000   88.4050  -14.3660 O.co2  85  GLU85      -0.2457
     68  N        194.4120   84.6230   -9.3120 N.am   86  ARG86      -0.1964
     69  CA       194.7270   84.5450   -7.8860 C.3    86  ARG86       0.1714
     70  C        196.1790   84.9400   -7.6770 C.2    86  ARG86       0.2458
     71  O        197.0730   84.0850   -7.6390 O.2    86  ARG86      -0.2730
     72  CB       194.4630   83.1520   -7.3180 C.3    86  ARG86       0.0347
     73  CG       194.7870   83.0580   -5.8210 C.3    86  ARG86       0.0492
     74  CD       194.2880   81.7630   -5.2160 C.3    86  ARG86       0.2205
     75  NE       194.9240   80.5920   -5.8130 N.pl3  86  ARG86      -0.0865
     76  CZ       196.0790   80.0720   -5.4090 C.cat  86  ARG86       0.5346
     77  NH1      196.7500   80.6190   -4.4030 N.pl3  86  ARG86       0.1354
     78  NH2      196.5710   79.0020   -6.0150 N.pl3  86  ARG86       0.1354
     79  N        196.4560   86.2320   -7.5380 N.am   87  PRO87      -0.2727
     80  CA       197.8090   86.6500   -7.1640 C.3    87  PRO87       0.1402
     81  C        198.1540   86.1840   -5.7590 C.2    87  PRO87       0.2269
     82  O        197.2850   85.9110   -4.9280 O.2    87  PRO87      -0.2865
     83  CB       197.7540   88.1790   -7.2490 C.3    87  PRO87       0.0296
     84  CG       196.2980   88.5210   -7.1650 C.3    87  PRO87       0.0237
     85  CD       195.5710   87.3810   -7.7950 C.3    87  PRO87       0.0939
     86  N        198.6010   87.7090   -1.0470 N.3    90  VAL90      -0.1231
     87  CA       197.6280   88.7920   -1.0230 C.3    90  VAL90       0.1692
     88  C        197.0370   88.9170    0.3690 C.2    90  VAL90       0.2592
     89  O        196.9920   87.9550    1.1420 O.2    90  VAL90      -0.2718
     90  CB       196.4870   88.5910   -2.0450 C.3    90  VAL90       0.0266
     91  CG1      197.0190   88.6440   -3.4640 C.3    90  VAL90       0.0020
     92  CG2      195.7540   87.2780   -1.7780 C.3    90  VAL90       0.0020
     93  N        196.5690   90.1230    0.6730 N.am   91  GLN91      -0.1966
     94  CA       195.7250   90.3940    1.8250 C.3    91  GLN91       0.1733
     95  C        194.6880   91.4110    1.3830 C.2    91  GLN91       0.2616
     96  O        195.0090   92.3400    0.6340 O.2    91  GLN91      -0.2715
     97  CB       196.5350   90.9310    3.0100 C.3    91  GLN91       0.0408
     98  CG       195.7410   91.0910    4.2990 C.3    91  GLN91       0.0908
     99  CD       196.5880   91.6310    5.4380 C.2    91  GLN91       0.2608
    100  OE1      197.4590   92.4740    5.2290 O.2    91  GLN91      -0.2717
    101  NE2      196.3380   91.1430    6.6500 N.am   91  GLN91      -0.0878
    102  N        193.4440   91.2220    1.8100 N.am   92  ASP92      -0.1971
    103  CA       192.4480   92.2060    1.4330 C.3    92  ASP92       0.1709
    104  C        192.6270   93.4480    2.2980 C.2    92  ASP92       0.2293
    105  O        193.2130   93.4060    3.3840 O.2    92  ASP92      -0.2864
    106  CB       191.0260   91.6320    1.5210 C.3    92  ASP92       0.1436
    107  CG       190.5180   91.4780    2.9430 C.2    92  ASP92       0.3671
    108  OD1      189.9330   90.4140    3.2330 O.co2  92  ASP92      -0.2456
    109  OD2      190.6510   92.4160    3.7560 O.co2  92  ASP92      -0.2456
    110  N        186.5140   94.5330   -0.6310 N.3   136  ASN136     -0.1240
    111  CA       186.5300   94.1380   -2.0320 C.3   136  ASN136      0.1653
    112  C        187.7720   94.6320   -2.7620 C.2   136  ASN136      0.2266
    113  O        187.7500   94.7680   -3.9910 O.2   136  ASN136     -0.2867
    114  CB       185.2560   94.6290   -2.7210 C.3   136  ASN136      0.1155
    115  CG       184.0380   93.8200   -2.3140 C.2   136  ASN136      0.2627
    116  OD1      184.1670   92.6760   -1.8800 O.2   136  ASN136     -0.2716
    117  ND2      182.8550   94.4060   -2.4430 N.am  136  ASN136     -0.0877
    118  N        191.9500   93.7360   -2.9750 N.3   138  LEU138     -0.1245
    119  CA       193.0850   92.8940   -2.6200 C.3   138  LEU138      0.1561
    120  C        194.3870   93.6530   -2.8370 C.2   138  LEU138      0.2260
    121  O        194.5300   94.3890   -3.8180 O.2   138  LEU138     -0.2867
    122  CB       193.1070   91.6120   -3.4540 C.3   138  LEU138      0.0270
    123  CG       191.8990   90.6800   -3.3840 C.3   138  LEU138      0.0019
    124  CD1      192.1270   89.4830   -4.3000 C.3   138  LEU138      0.0001
    125  CD2      191.6390   90.2190   -1.9590 C.3   138  LEU138      0.0001
    126  N        187.6820   93.2530   -6.5430 N.3   149  ILE149     -0.1231
    127  CA       187.0030   91.9640   -6.5950 C.3   149  ILE149      0.1692
    128  C        185.5090   92.1500   -6.3530 C.2   149  ILE149      0.2592
    129  O        185.0400   93.2170   -5.9510 O.2   149  ILE149     -0.2718
    130  CB       187.5760   90.9540   -5.5800 C.3   149  ILE149      0.0266
    131  CG1      187.5440   91.5420   -4.1670 C.3   149  ILE149      0.0019
    132  CG2      188.9920   90.5570   -5.9650 C.3   149  ILE149      0.0020
    133  CD1      187.8670   90.5300   -3.0920 C.3   149  ILE149      0.0001
    134  N        184.7740   91.0650   -6.6090 N.am  150  ASP150     -0.1974
    135  CA       183.3450   90.9260   -6.3470 C.3   150  ASP150      0.1709
    136  C        182.4990   91.9270   -7.1230 C.2   150  ASP150      0.2293
    137  O        182.1030   92.9740   -6.5950 O.2   150  ASP150     -0.2864
    138  CB       183.0480   91.0420   -4.8490 C.3   150  ASP150      0.1436
    139  CG       181.6480   90.5570   -4.5030 C.2   150  ASP150      0.3671
    140  OD1      181.2880   90.5470   -3.3080 O.co2 150  ASP150     -0.2456
    141  OD2      180.9040   90.1880   -5.4420 O.co2 150  ASP150     -0.2456
@<TRIPOS>BOND
     1    67    65   ar
     2    37    36    2
     3    36    35    1
     4    34    35    1
     5    65    64    1
     6    65    66   ar
     7    64    63    1
     8    35    38    1
     9    46    45    2
    10    45    44    1
    11    51    52    1
    12    38    39    1
    13    52    53    1
    14    52    55    1
    15    59    53   am
    16    59    60    1
    17    63    60    1
    18    58    56    1
    19    53    54    2
    20    60    61    1
    21    39    40    1
    22    44    43    1
    23    44    47    1
    24    56    55    1
    25    56    57    1
    26    40    41   ar
    27    40    42   ar
    28    61    68   am
    29    61    62    2
    30    49    47    1
    31    23    22    2
    32    47    48    1
    33    28    27    2
    34    68    69    1
    35    20    21    1
    36    50    48    1
    37    22    21    1
    38    25    26    1
    39    27    26    1
    40    29    26    1
    41    29    30    1
    42    69    70    1
    43    69    72    1
    44    85    79    1
    45    85    84    1
    46    70    71    2
    47    70    79   am
    48    21    24    1
    49    79    80    1
    50    31    30    1
    51    31    32    1
    52    72    73    1
    53    83    84    1
    54    83    80    1
    55    80    81    1
    56   136   137    2
    57   136   135    1
    58    33    32    1
    59   134   128   am
    60   134   135    1
    61   127   126    1
    62   127   128    1
    63   127   130    1
    64   128   129    2
    65   135   138    1
    66    78    76    1
    67   132   130    1
    68    73    74    1
    69    75    76    2
    70    75    74    1
    71    81    82    2
    72   130   131    1
    73   141   139   ar
    74    76    77    1
    75   138   139    1
    76    18    17    1
    77   139   140   ar
    78   124   123    1
    79   131   133    1
    80    19    17    1
    81   113   112    2
    82   121   120    2
    83    14    17    1
    84    14    15    1
    85    14    13    1
    86    91    90    1
    87   122   123    1
    88   122   119    1
    89   123   125    1
    90     7     6    1
    91    15    16    2
    92   118   119    1
    93   120   119    1
    94   112   111    1
    95   114   115    1
    96   114   111    1
    97   117   115   am
    98   115   116    2
    99    90    92    1
   100    90    87    1
   101   111   110    1
   102     6     5    1
   103     6     8    1
   104     5     2    1
   105    86    87    1
   106    87    88    1
   107    12    11    2
   108     1     2    1
   109     2     3    1
   110    88    93   am
   111    88    89    2
   112    96    95    2
   113    93    94    1
   114    11    10    1
   115     9     3   am
   116     9    10    1
   117     3     4    2
   118    95   102   am
   119    95    94    1
   120   103   106    1
   121   103   102    1
   122   103   104    1
   123   106   107    1
   124    94    97    1
   125   104   105    2
   126   107   108   ar
   127   107   109   ar
   128    97    98    1
   129    98    99    1
   130   100    99    2
   131    99   101   am
