@<TRIPOS>MOLECULE
tmp/5mznA02.pdb
 99 92 0 0 0
SMALL
GASTEIGER

@<TRIPOS>ATOM
      1  N        -44.4020   15.8720  -36.1220 N.3   264  PRO264     -0.2102
      2  CA       -43.8410   17.0550  -36.7950 C.3   264  PRO264      0.1504
      3  C        -44.6140   17.4260  -38.0510 C.2   264  PRO264      0.2576
      4  O        -44.8470   16.5990  -38.9250 O.2   264  PRO264     -0.2718
      5  CB       -42.4110   16.6130  -37.1190 C.3   264  PRO264      0.0282
      6  CG       -42.0720   15.6390  -36.0140 C.3   264  PRO264      0.0208
      7  CD       -43.3670   14.8730  -35.8020 C.3   264  PRO264      0.0893
      8  N        -45.0220   18.6950  -38.1340 N.am  265  GLY265     -0.1957
      9  CA       -45.6240   19.2010  -39.3610 C.3   265  GLY265      0.1869
     10  C        -47.0510   18.7910  -39.6580 C.2   265  GLY265      0.2309
     11  O        -47.4470   18.8010  -40.8330 O.2   265  GLY265     -0.2863
     12  N        -50.6390   20.9080  -35.4700 N.3   268  LYS268     -0.1245
     13  CA       -51.0520   21.1000  -34.0800 C.3   268  LYS268      0.1561
     14  C        -51.6030   22.5080  -33.8870 C.2   268  LYS268      0.2260
     15  O        -52.7160   22.7110  -33.3840 O.2   268  LYS268     -0.2867
     16  CB       -49.8550   20.8680  -33.1360 C.3   268  LYS268      0.0271
     17  CG       -49.3680   19.4320  -33.0510 C.3   268  LYS268      0.0035
     18  CD       -48.0910   19.2730  -32.2050 C.3   268  LYS268      0.0206
     19  CE       -46.8230   19.8490  -32.8580 C.3   268  LYS268      0.1093
     20  NZ       -46.5880   19.1260  -34.1670 N.3   268  LYS268     -0.1314
     21  N        -48.0030   22.8180  -27.6970 N.3   410  GLU410     -0.1245
     22  CA       -46.6740   22.3230  -27.3190 C.3   410  GLU410      0.1567
     23  C        -46.7210   21.6450  -25.9450 C.2   410  GLU410      0.2260
     24  O        -45.8380   21.8260  -25.1070 O.2   410  GLU410     -0.2867
     25  CB       -45.6540   23.4630  -27.3380 C.3   410  GLU410      0.0388
     26  CG       -45.6110   24.1580  -28.7100 C.3   410  GLU410      0.1160
     27  CD       -44.8500   23.3630  -29.7310 C.2   410  GLU410      0.3649
     28  OE1      -43.6200   23.5290  -29.7410 O.co2 410  GLU410     -0.2457
     29  OE2      -45.4370   22.5840  -30.5270 O.co2 410  GLU410     -0.2457
     30  N        -46.5550   16.7120  -29.0850 N.3   435  ASP435     -0.1239
     31  CA       -45.8100   15.6520  -29.7710 C.3   435  ASP435      0.1674
     32  C        -45.0270   14.9070  -28.7040 C.2   435  ASP435      0.2266
     33  O        -43.9580   15.3780  -28.2730 O.2   435  ASP435     -0.2867
     34  CB       -44.8730   16.2090  -30.8310 C.3   435  ASP435      0.1410
     35  CG       -44.1370   15.1230  -31.5700 C.2   435  ASP435      0.3668
     36  OD1      -44.2850   13.9540  -31.1630 O.co2 435  ASP435     -0.2456
     37  OD2      -43.4150   15.4470  -32.5480 O.co2 435  ASP435     -0.2456
     38  N        -40.6670   13.2470  -28.7010 N.3   438  GLN438     -0.1245
     39  CA       -39.5320   14.1560  -28.6940 C.3   438  GLN438      0.1566
     40  C        -38.8560   14.0290  -27.3390 C.2   438  GLN438      0.2260
     41  O        -39.3820   13.3830  -26.4380 O.2   438  GLN438     -0.2867
     42  CB       -39.9650   15.5970  -28.9210 C.3   438  GLN438      0.0367
     43  CG       -40.7640   15.7670  -30.1990 C.3   438  GLN438      0.0905
     44  CD       -40.6770   17.1510  -30.6720 C.2   438  GLN438      0.2608
     45  OE1      -40.0980   17.4220  -31.7180 O.2   438  GLN438     -0.2717
     46  NE2      -41.2370   18.0590  -29.9020 N.am  438  GLN438     -0.0878
     47  N        -44.4300   18.8350  -44.2410 N.3   475  ARG475     -0.1245
     48  CA       -43.0900   19.4210  -44.2510 C.3   475  ARG475      0.1563
     49  C        -42.0770   18.6980  -45.1230 C.2   475  ARG475      0.2260
     50  O        -41.2770   19.3430  -45.7850 O.2   475  ARG475     -0.2867
     51  CB       -42.5070   19.4210  -42.8210 C.3   475  ARG475      0.0307
     52  CG       -43.0870   20.4180  -41.9190 C.3   475  ARG475      0.0489
     53  CD       -42.5920   20.1160  -40.4870 C.3   475  ARG475      0.2205
     54  NE       -41.1390   20.2950  -40.3280 N.pl3 475  ARG475     -0.0865
     55  CZ       -40.2420   19.3250  -40.1530 C.cat 475  ARG475      0.5346
     56  NH1      -38.9600   19.6330  -39.9870 N.pl3 475  ARG475      0.1354
     57  NH2      -40.6050   18.0540  -40.1200 N.pl3 475  ARG475      0.1354
     58  N        -33.6030   20.1900  -31.2260 N.3   594  GLN594     -0.1231
     59  CA       -34.9740   19.6740  -31.2680 C.3   594  GLN594      0.1698
     60  C        -35.9670   20.6910  -31.8400 C.2   594  GLN594      0.2593
     61  O        -36.8940   20.3220  -32.5670 O.2   594  GLN594     -0.2718
     62  CB       -35.4040   19.2450  -29.8680 C.3   594  GLN594      0.0381
     63  CG       -36.8190   18.8090  -29.8120 C.3   594  GLN594      0.0905
     64  CD       -37.0790   17.8960  -28.6420 C.2   594  GLN594      0.2608
     65  OE1      -36.5760   16.7870  -28.6090 O.2   594  GLN594     -0.2717
     66  NE2      -37.8320   18.3840  -27.6350 N.am  594  GLN594     -0.0878
     67  N        -35.8290   21.9500  -31.4950 N.am  595  GLY595     -0.1942
     68  CA       -36.8140   22.8730  -32.0600 C.3   595  GLY595      0.2014
     69  C        -36.5030   23.5060  -33.4110 C.2   595  GLY595      0.2639
     70  O        -37.1660   24.4770  -33.8000 O.2   595  GLY595     -0.2714
     71  N        -35.5190   22.9940  -34.1420 N.am  596  GLN596     -0.1963
     72  CA       -34.9860   23.6090  -35.3610 C.3   596  GLN596      0.1733
     73  C        -35.1740   22.6750  -36.5490 C.2   596  GLN596      0.2616
     74  O        -35.3880   21.4720  -36.3920 O.2   596  GLN596     -0.2715
     75  CB       -33.5000   23.9290  -35.2190 C.3   596  GLN596      0.0408
     76  CG       -33.1320   24.9860  -34.1620 C.3   596  GLN596      0.0908
     77  CD       -31.6380   25.3220  -34.2400 C.2   596  GLN596      0.2608
     78  OE1      -31.1550   25.8520  -35.2560 O.2   596  GLN596     -0.2717
     79  NE2      -30.9030   24.9690  -33.2000 N.am  596  GLN596     -0.0878
     80  N        -35.1750   23.2460  -37.7540 N.am  597  GLU597     -0.1977
     81  CA       -35.2890   22.4290  -38.9610 C.3   597  GLU597      0.1602
     82  C        -34.4960   23.1040  -40.0620 C.2   597  GLU597      0.2287
     83  O        -34.1980   24.3000  -39.9880 O.2   597  GLU597     -0.2864
     84  CB       -36.7360   22.2530  -39.3990 C.3   597  GLU597      0.0415
     85  CG       -37.4180   23.6010  -39.6940 C.3   597  GLU597      0.1163
     86  CD       -38.8630   23.4640  -40.1220 C.2   597  GLU597      0.3649
     87  OE1      -39.3920   22.3590  -40.0880 O.co2 597  GLU597     -0.2457
     88  OE2      -39.4740   24.4670  -40.5010 O.co2 597  GLU597     -0.2457
     89  N        -35.8370   16.4010  -38.7930 N.3   627  ARG627     -0.1245
     90  CA       -35.3170   17.7760  -38.8120 C.3   627  ARG627      0.1563
     91  C        -35.1510   18.3350  -40.2080 C.2   627  ARG627      0.2260
     92  O        -35.0010   19.5540  -40.3330 O.2   627  ARG627     -0.2867
     93  CB       -33.9440   17.8740  -38.1330 C.3   627  ARG627      0.0307
     94  CG       -33.8910   17.4960  -36.6390 C.3   627  ARG627      0.0489
     95  CD       -34.9020   18.3350  -35.8320 C.3   627  ARG627      0.2205
     96  NE       -36.2170   17.6950  -35.8580 N.pl3 627  ARG627     -0.0865
     97  CZ       -37.3720   18.3400  -35.7650 C.cat 627  ARG627      0.5346
     98  NH1      -37.3990   19.6590  -35.6640 N.pl3 627  ARG627      0.1354
     99  NH2      -38.5080   17.6610  -35.7800 N.pl3 627  ARG627      0.1354
@<TRIPOS>BOND
     1    50    49    2
     2    49    48    1
     3    48    47    1
     4    48    51    1
     5    51    52    1
     6    52    53    1
     7    11    10    2
     8    88    86   ar
     9    53    54    1
    10    92    91    2
    11    54    55    2
    12    91    90    1
    13    55    57    1
    14    55    56    1
    15    86    87   ar
    16    86    85    1
    17    82    83    2
    18    82    81    1
    19    85    84    1
    20    10     9    1
    21    84    81    1
    22     9     8    1
    23    81    80    1
    24     4     3    2
    25    90    89    1
    26    90    93    1
    27     8     3   am
    28    93    94    1
    29     3     2    1
    30    80    73   am
    31     5     2    1
    32     5     6    1
    33     2     1    1
    34    94    95    1
    35    73    74    2
    36    73    72    1
    37     1     7    1
    38     6     7    1
    39    96    95    1
    40    96    97    2
    41    99    97    1
    42    97    98    1
    43    12    13    1
    44    72    75    1
    45    72    71    1
    46    78    77    2
    47    75    76    1
    48    77    76    1
    49    77    79   am
    50    20    19    1
    51    71    69   am
    52    13    14    1
    53    13    16    1
    54    14    15    2
    55    70    69    2
    56    69    68    1
    57    16    17    1
    58    17    18    1
    59    19    18    1
    60    61    60    2
    61    37    35   ar
    62    68    67    1
    63    60    67   am
    64    60    59    1
    65    45    44    2
    66    35    36   ar
    67    35    34    1
    68    59    58    1
    69    59    62    1
    70    34    31    1
    71    44    43    1
    72    44    46   am
    73    29    27   ar
    74    43    42    1
    75    62    63    1
    76    63    64    1
    77    31    30    1
    78    31    32    1
    79    28    27   ar
    80    27    26    1
    81    42    39    1
    82    26    25    1
    83    32    33    2
    84    38    39    1
    85    39    40    1
    86    64    65    2
    87    64    66   am
    88    21    22    1
    89    40    41    2
    90    25    22    1
    91    22    23    1
    92    23    24    2
