@<TRIPOS>MOLECULE
tmp/5mznA09.pdb
 126 120 0 0 0
SMALL
GASTEIGER

@<TRIPOS>ATOM
      1  N        -61.0920   24.0680  -43.6450 N.3   239  LYS239     -0.1231
      2  CA       -60.0640   23.5990  -44.5780 C.3   239  LYS239      0.1693
      3  C        -59.0520   22.7240  -43.8470 C.2   239  LYS239      0.2592
      4  O        -57.8570   23.0100  -43.7740 O.2   239  LYS239     -0.2718
      5  CB       -59.3860   24.7810  -45.2690 C.3   239  LYS239      0.0285
      6  CG       -60.4030   25.7450  -45.8950 C.3   239  LYS239      0.0035
      7  CD       -59.7940   26.5650  -47.0180 C.3   239  LYS239      0.0206
      8  CE       -60.8490   27.4160  -47.7110 C.3   239  LYS239      0.1093
      9  NZ       -61.3760   28.4620  -46.7950 N.3   239  LYS239     -0.1314
     10  N        -59.5710   21.6530  -43.2900 N.am  240  LEU240     -0.1966
     11  CA       -58.8010   20.7350  -42.4660 C.3   240  LEU240      0.1728
     12  C        -58.8260   19.3700  -43.1130 C.2   240  LEU240      0.2616
     13  O        -59.6730   19.0970  -43.9730 O.2   240  LEU240     -0.2715
     14  CB       -59.3910   20.6300  -41.0780 C.3   240  LEU240      0.0311
     15  CG       -59.4760   21.9430  -40.3040 C.3   240  LEU240      0.0022
     16  CD1      -60.2860   21.7220  -39.0510 C.3   240  LEU240      0.0001
     17  CD2      -58.0970   22.4780  -39.9620 C.3   240  LEU240      0.0001
     18  N        -57.8850   18.5170  -42.7090 N.am  241  ASN241     -0.1972
     19  CA       -57.9810   17.1260  -43.0820 C.3   241  ASN241      0.1688
     20  C        -58.8600   16.4070  -42.0670 C.2   241  ASN241      0.2292
     21  O        -59.2190   16.9430  -41.0090 O.2   241  ASN241     -0.2864
     22  CB       -56.5940   16.4810  -43.2400 C.3   241  ASN241      0.1181
     23  CG       -55.8080   16.4100  -41.9470 C.2   241  ASN241      0.2629
     24  OD1      -56.3180   15.9620  -40.9120 O.2   241  ASN241     -0.2716
     25  ND2      -54.5180   16.7950  -42.0210 N.am  241  ASN241     -0.0877
     26  N        -57.7280   16.1430  -38.3750 N.3   244  GLN244     -0.1245
     27  CA       -57.8450   17.4110  -37.6520 C.3   244  GLN244      0.1566
     28  C        -59.2990   17.7170  -37.2770 C.2   244  GLN244      0.2260
     29  O        -59.5910   18.0890  -36.1320 O.2   244  GLN244     -0.2867
     30  CB       -57.2630   18.5290  -38.4950 C.3   244  GLN244      0.0367
     31  CG       -55.7410   18.3340  -38.7010 C.3   244  GLN244      0.0905
     32  CD       -55.1970   19.2300  -39.7890 C.2   244  GLN244      0.2608
     33  OE1      -55.9180   19.6070  -40.7220 O.2   244  GLN244     -0.2717
     34  NE2      -53.9260   19.5650  -39.6880 N.am  244  GLN244     -0.0878
     35  N        -45.0220   18.6950  -38.1340 N.3   265  GLY265     -0.1210
     36  CA       -45.6240   19.2010  -39.3610 C.3   265  GLY265      0.1956
     37  C        -47.0510   18.7910  -39.6580 C.2   265  GLY265      0.2613
     38  O        -47.4470   18.8010  -40.8330 O.2   265  GLY265     -0.2717
     39  N        -47.8210   18.3710  -38.6560 N.am  266  THR266     -0.1938
     40  CA       -49.1500   17.8380  -38.8880 C.3   266  THR266      0.2028
     41  C        -50.2450   18.8040  -38.5070 C.2   266  THR266      0.2643
     42  O        -51.4120   18.4100  -38.5340 O.2   266  THR266     -0.2714
     43  CB       -49.3490   16.5230  -38.1280 C.3   266  THR266      0.1808
     44  OG1      -49.1590   16.7260  -36.7010 O.3   266  THR266     -0.2208
     45  CG2      -48.3830   15.4920  -38.6220 C.3   266  THR266      0.0379
     46  N        -49.9090   20.0500  -38.1360 N.am  267  GLY267     -0.1939
     47  CA       -50.9380   21.0480  -37.8940 C.3   267  GLY267      0.2014
     48  C        -51.4780   21.1370  -36.4840 C.2   267  GLY267      0.2639
     49  O        -52.6750   21.4260  -36.3100 O.2   267  GLY267     -0.2714
     50  N        -50.6390   20.9080  -35.4700 N.am  268  LYS268     -0.1963
     51  CA       -51.0520   21.1000  -34.0800 C.3   268  LYS268      0.1728
     52  C        -51.6030   22.5080  -33.8870 C.2   268  LYS268      0.2617
     53  O        -52.7160   22.7110  -33.3840 O.2   268  LYS268     -0.2715
     54  CB       -49.8550   20.8680  -33.1360 C.3   268  LYS268      0.0311
     55  CG       -49.3680   19.4320  -33.0510 C.3   268  LYS268      0.0038
     56  CD       -48.0910   19.2730  -32.2050 C.3   268  LYS268      0.0206
     57  CE       -46.8230   19.8490  -32.8580 C.3   268  LYS268      0.1093
     58  NZ       -46.5880   19.1260  -34.1670 N.3   268  LYS268     -0.1314
     59  N        -50.8240   23.5040  -34.2800 N.am  269  THR269     -0.1937
     60  CA       -51.2550   24.8790  -34.0450 C.3   269  THR269      0.2028
     61  C        -52.4420   25.2550  -34.9330 C.2   269  THR269      0.2642
     62  O        -53.3780   25.9080  -34.4640 O.2   269  THR269     -0.2714
     63  CB       -50.0640   25.8070  -34.2140 C.3   269  THR269      0.1808
     64  OG1      -49.0400   25.3870  -33.2920 O.3   269  THR269     -0.2208
     65  CG2      -50.4590   27.2530  -33.9220 C.3   269  THR269      0.0379
     66  N        -52.4350   24.8370  -36.2090 N.am  270  LYS270     -0.1977
     67  CA       -53.5890   25.0630  -37.0720 C.3   270  LYS270      0.1596
     68  C        -54.8560   24.4700  -36.4620 C.2   270  LYS270      0.2287
     69  O        -55.9250   25.0900  -36.5120 O.2   270  LYS270     -0.2864
     70  CB       -53.3290   24.4860  -38.4740 C.3   270  LYS270      0.0298
     71  CG       -54.4890   24.7150  -39.4780 C.3   270  LYS270      0.0038
     72  CD       -54.0490   24.4200  -40.9420 C.3   270  LYS270      0.0206
     73  CE       -54.4590   25.5280  -41.9190 C.3   270  LYS270      0.1093
     74  NZ       -53.2970   25.9890  -42.7340 N.3   270  LYS270     -0.1314
     75  N        -46.6420   32.7600  -31.5510 N.3   309  GLU309     -0.1245
     76  CA       -47.0270   32.1820  -32.8350 C.3   309  GLU309      0.1567
     77  C        -48.5420   32.0680  -32.9430 C.2   309  GLU309      0.2260
     78  O        -49.1370   32.4200  -33.9670 O.2   309  GLU309     -0.2867
     79  CB       -46.3880   30.8110  -33.0380 C.3   309  GLU309      0.0388
     80  CG       -46.7530   30.2950  -34.4390 C.3   309  GLU309      0.1160
     81  CD       -46.2030   28.9600  -34.7630 C.2   309  GLU309      0.3649
     82  OE1      -45.3050   28.4870  -34.0280 O.co2 309  GLU309     -0.2457
     83  OE2      -46.6840   28.3940  -35.7740 O.co2 309  GLU309     -0.2457
     84  N        -50.9620   34.1010  -35.5850 N.3   313  ARG313     -0.1245
     85  CA       -51.8190   33.3860  -36.5090 C.3   313  ARG313      0.1563
     86  C        -53.2940   33.6740  -36.2740 C.2   313  ARG313      0.2260
     87  O        -54.0850   33.5750  -37.2200 O.2   313  ARG313     -0.2867
     88  CB       -51.4990   31.8930  -36.4070 C.3   313  ARG313      0.0307
     89  CG       -50.1510   31.6190  -37.0660 C.3   313  ARG313      0.0489
     90  CD       -49.6680   30.2260  -36.8670 C.3   313  ARG313      0.2205
     91  NE       -50.4310   29.2630  -37.6460 N.pl3 313  ARG313     -0.0865
     92  CZ       -50.0750   27.9820  -37.7210 C.cat 313  ARG313      0.5346
     93  NH1      -48.9650   27.6040  -37.1340 N.pl3 313  ARG313      0.1354
     94  NH2      -50.7590   27.1010  -38.4180 N.pl3 313  ARG313      0.1354
     95  N        -48.0030   22.8180  -27.6970 N.3   410  GLU410     -0.1245
     96  CA       -46.6740   22.3230  -27.3190 C.3   410  GLU410      0.1567
     97  C        -46.7210   21.6450  -25.9450 C.2   410  GLU410      0.2260
     98  O        -45.8380   21.8260  -25.1070 O.2   410  GLU410     -0.2867
     99  CB       -45.6540   23.4630  -27.3380 C.3   410  GLU410      0.0388
    100  CG       -45.6110   24.1580  -28.7100 C.3   410  GLU410      0.1160
    101  CD       -44.8500   23.3630  -29.7310 C.2   410  GLU410      0.3649
    102  OE1      -43.6200   23.5290  -29.7410 O.co2 410  GLU410     -0.2457
    103  OE2      -45.4370   22.5840  -30.5270 O.co2 410  GLU410     -0.2457
    104  N        -46.9200   17.8650  -43.4840 N.3   474  TYR474     -0.1227
    105  CA       -46.8460   18.8180  -44.5810 C.3   474  TYR474      0.1736
    106  C        -45.4780   19.4670  -44.7250 C.2   474  TYR474      0.2595
    107  O        -45.3730   20.5580  -45.3060 O.2   474  TYR474     -0.2718
    108  CB       -47.9150   19.9090  -44.4170 C.3   474  TYR474      0.0548
    109  CG       -49.3250   19.3750  -44.4370 C.ar  474  TYR474     -0.0200
    110  CD1      -50.0430   19.2460  -45.6460 C.ar  474  TYR474     -0.0009
    111  CD2      -49.9670   19.0130  -43.2590 C.ar  474  TYR474     -0.0009
    112  CE1      -51.3290   18.7540  -45.6470 C.ar  474  TYR474      0.0417
    113  CE2      -51.2500   18.5250  -43.2660 C.ar  474  TYR474      0.0417
    114  CZ       -51.9200   18.4000  -44.4650 C.ar  474  TYR474      0.1957
    115  OH       -53.1910   17.8790  -44.4360 O.3   474  TYR474     -0.2866
    116  N        -44.4300   18.8350  -44.2410 N.am  475  ARG475     -0.1980
    117  CA       -43.0900   19.4210  -44.2510 C.3   475  ARG475      0.1597
    118  C        -42.0770   18.6980  -45.1230 C.2   475  ARG475      0.2287
    119  O        -41.2770   19.3430  -45.7850 O.2   475  ARG475     -0.2864
    120  CB       -42.5070   19.4210  -42.8210 C.3   475  ARG475      0.0334
    121  CG       -43.0870   20.4180  -41.9190 C.3   475  ARG475      0.0492
    122  CD       -42.5920   20.1160  -40.4870 C.3   475  ARG475      0.2205
    123  NE       -41.1390   20.2950  -40.3280 N.pl3 475  ARG475     -0.0865
    124  CZ       -40.2420   19.3250  -40.1530 C.cat 475  ARG475      0.5346
    125  NH1      -38.9600   19.6330  -39.9870 N.pl3 475  ARG475      0.1354
    126  NH2      -40.6050   18.0540  -40.1200 N.pl3 475  ARG475      0.1354
@<TRIPOS>BOND
     1     8     7    1
     2     8     9    1
     3     7     6    1
     4     6     5    1
     5   119   118    2
     6   112   110   ar
     7   112   114   ar
     8   110   109   ar
     9   107   106    2
    10     5     2    1
    11   118   117    1
    12   106   105    1
    13   106   116   am
    14   105   108    1
    15   105   104    1
    16     2     3    1
    17     2     1    1
    18   114   115    1
    19   114   113   ar
    20   109   108    1
    21   109   111   ar
    22   117   116    1
    23   117   120    1
    24    13    12    2
    25     3     4    2
    26     3    10   am
    27    10    11    1
    28   113   111   ar
    29    22    19    1
    30    22    23    1
    31    12    18   am
    32    12    11    1
    33    19    18    1
    34    19    20    1
    35   120   121    1
    36    74    73    1
    37    11    14    1
    38    20    21    2
    39    25    23   am
    40    23    24    2
    41    73    72    1
    42   121   122    1
    43    14    15    1
    44    72    71    1
    45    38    37    2
    46    33    32    2
    47   122   123    1
    48   123   124    2
    49    15    17    1
    50    15    16    1
    51   124   126    1
    52   124   125    1
    53    32    34   am
    54    32    31    1
    55    37    36    1
    56    37    39   am
    57    71    70    1
    58    36    35    1
    59    40    39    1
    60    40    41    1
    61    40    43    1
    62    31    30    1
    63    45    43    1
    64    42    41    2
    65    41    46   am
    66    30    27    1
    67    70    67    1
    68    94    92    1
    69    26    27    1
    70    46    47    1
    71    43    44    1
    72    47    48    1
    73    92    91    2
    74    92    93    1
    75    27    28    1
    76    91    90    1
    77    28    29    2
    78    87    86    2
    79    67    68    1
    80    67    66    1
    81    89    90    1
    82    89    88    1
    83    69    68    2
    84    85    88    1
    85    85    86    1
    86    85    84    1
    87    48    49    2
    88    48    50   am
    89    66    61   am
    90    83    81   ar
    91    50    51    1
    92    61    62    2
    93    61    60    1
    94    81    80    1
    95    81    82   ar
    96    80    79    1
    97    59    60    1
    98    59    52   am
    99    63    60    1
   100    63    65    1
   101    63    64    1
   102    58    57    1
   103    51    52    1
   104    51    54    1
   105    78    77    2
   106    52    53    2
   107    54    55    1
   108    55    56    1
   109    79    76    1
   110    77    76    1
   111    57    56    1
   112    76    75    1
   113   103   101   ar
   114   102   101   ar
   115   101   100    1
   116   100    99    1
   117    95    96    1
   118    99    96    1
   119    96    97    1
   120    97    98    2
