@<TRIPOS>MOLECULE
tmp/5mznA10.pdb
 79 73 0 0 0
SMALL
GASTEIGER

@<TRIPOS>ATOM
      1  N        -46.6340   33.4680  -28.8920 N.3   308  ASP308     -0.1239
      2  CA       -46.6480   34.5360  -29.8790 C.3   308  ASP308      0.1674
      3  C        -47.0450   33.9890  -31.2380 C.2   308  ASP308      0.2266
      4  O        -47.6790   34.6980  -32.0210 O.2   308  ASP308     -0.2867
      5  CB       -45.3000   35.2050  -29.9610 C.3   308  ASP308      0.1410
      6  CG       -44.9560   36.0000  -28.7130 C.2   308  ASP308      0.3668
      7  OD1      -45.8340   36.2080  -27.8550 O.co2 308  ASP308     -0.2456
      8  OD2      -43.8010   36.4160  -28.5970 O.co2 308  ASP308     -0.2456
      9  N        -49.9470   35.5710  -33.4490 N.3   312  LEU312     -0.1245
     10  CA       -49.7530   36.0480  -34.8120 C.3   312  LEU312      0.1561
     11  C        -50.7240   35.3830  -35.7660 C.2   312  LEU312      0.2260
     12  O        -51.2820   36.0310  -36.6470 O.2   312  LEU312     -0.2867
     13  CB       -48.3240   35.7770  -35.2570 C.3   312  LEU312      0.0270
     14  CG       -47.2400   36.7440  -34.7980 C.3   312  LEU312      0.0019
     15  CD1      -45.9100   36.3430  -35.3960 C.3   312  LEU312      0.0001
     16  CD2      -47.5920   38.1680  -35.1950 C.3   312  LEU312      0.0001
     17  N        -45.8950   40.4380  -21.2150 N.3   335  ARG335     -0.1231
     18  CA       -45.0380   40.9210  -22.2880 C.3   335  ARG335      0.1694
     19  C        -44.2470   39.7700  -22.9000 C.2   335  ARG335      0.2592
     20  O        -43.8040   38.8510  -22.2030 O.2   335  ARG335     -0.2718
     21  CB       -44.0740   41.9850  -21.7610 C.3   335  ARG335      0.0321
     22  CG       -44.3370   43.3890  -22.2560 C.3   335  ARG335      0.0489
     23  CD       -44.2270   43.4530  -23.7780 C.3   335  ARG335      0.2205
     24  NE       -44.2130   44.8140  -24.3200 N.pl3 335  ARG335     -0.0865
     25  CZ       -45.2010   45.6930  -24.1790 C.cat 335  ARG335      0.5346
     26  NH1      -46.2770   45.3840  -23.4780 N.pl3 335  ARG335      0.1354
     27  NH2      -45.1130   46.8990  -24.7190 N.pl3 335  ARG335      0.1354
     28  N        -44.0760   39.8140  -24.2190 N.am  336  SER336     -0.1952
     29  CA       -43.2730   38.8050  -24.8900 C.3   336  SER336      0.1924
     30  C        -41.7800   39.0630  -24.7010 C.2   336  SER336      0.2314
     31  O        -41.3460   40.1420  -24.2900 O.2   336  SER336     -0.2863
     32  CB       -43.5710   38.7590  -26.3830 C.3   336  SER336      0.2116
     33  OG       -42.6170   37.9290  -27.0450 O.3   336  SER336     -0.2180
     34  N        -39.4670   38.7130  -27.3050 N.3   338  VAL338     -0.1231
     35  CA       -38.9750   39.3320  -28.5230 C.3   338  VAL338      0.1692
     36  C        -39.7330   40.6380  -28.7170 C.2   338  VAL338      0.2592
     37  O        -40.7390   40.8870  -28.0430 O.2   338  VAL338     -0.2718
     38  CB       -39.1610   38.3520  -29.6980 C.3   338  VAL338      0.0266
     39  CG1      -38.7970   38.9770  -31.0490 C.3   338  VAL338      0.0020
     40  CG2      -38.3500   37.0700  -29.4480 C.3   338  VAL338      0.0020
     41  N        -39.2490   41.4910  -29.6120 N.am  339  VAL339     -0.1966
     42  CA       -39.9390   42.7230  -29.9710 C.3   339  VAL339      0.1727
     43  C        -40.6460   42.5010  -31.3010 C.2   339  VAL339      0.2616
     44  O        -40.0070   42.1780  -32.3110 O.2   339  VAL339     -0.2715
     45  CB       -38.9700   43.9150  -30.0340 C.3   339  VAL339      0.0290
     46  CG1      -38.4880   44.2710  -28.6340 C.3   339  VAL339      0.0023
     47  CG2      -37.7850   43.6170  -30.9530 C.3   339  VAL339      0.0023
     48  N        -41.9720   42.6490  -31.2960 N.am  340  ASN340     -0.1972
     49  CA       -42.7730   42.5060  -32.5090 C.3   340  ASN340      0.1688
     50  C        -43.9740   43.4040  -32.3810 C.2   340  ASN340      0.2292
     51  O        -44.7890   43.2000  -31.4870 O.2   340  ASN340     -0.2864
     52  CB       -43.2350   41.0760  -32.7350 C.3   340  ASN340      0.1181
     53  CG       -44.1490   40.9380  -33.9440 C.2   340  ASN340      0.2629
     54  OD1      -44.9210   41.8340  -34.2290 O.2   340  ASN340     -0.2716
     55  ND2      -44.0710   39.8140  -34.6500 N.am  340  ASN340     -0.0877
     56  N        -47.1990   41.5840  -32.1890 N.3   343  ILE343     -0.1231
     57  CA       -47.5690   41.0400  -30.8880 C.3   343  ILE343      0.1692
     58  C        -47.7870   42.1560  -29.8760 C.2   343  ILE343      0.2591
     59  O        -48.7130   42.0900  -29.0690 O.2   343  ILE343     -0.2718
     60  CB       -46.5120   40.0290  -30.4200 C.3   343  ILE343      0.0266
     61  CG1      -46.5570   38.7960  -31.3040 C.3   343  ILE343      0.0019
     62  CG2      -46.7320   39.6350  -28.9510 C.3   343  ILE343      0.0020
     63  CD1      -47.9260   38.1800  -31.4220 C.3   343  ILE343      0.0001
     64  N        -46.9580   43.2010  -29.9220 N.am  344  LYS344     -0.1980
     65  CA       -47.0790   44.2950  -28.9630 C.3   344  LYS344      0.1596
     66  C        -48.4960   44.8580  -28.9220 C.2   344  LYS344      0.2287
     67  O        -49.0440   45.1010  -27.8420 O.2   344  LYS344     -0.2864
     68  CB       -46.0740   45.3970  -29.3110 C.3   344  LYS344      0.0298
     69  CG       -46.1940   46.6640  -28.4420 C.3   344  LYS344      0.0038
     70  CD       -44.9260   47.5360  -28.4960 C.3   344  LYS344      0.0206
     71  CE       -45.0990   48.8240  -27.6800 C.3   344  LYS344      0.1093
     72  NZ       -43.8170   49.5150  -27.3410 N.3   344  LYS344     -0.1314
     73  N        -50.8740   43.0620  -26.5810 N.3   347  THR347     -0.1218
     74  CA       -50.5860   42.8670  -25.1680 C.3   347  THR347      0.1862
     75  C        -51.4920   43.7380  -24.3200 C.2   347  THR347      0.2287
     76  O        -51.8400   44.8680  -24.7010 O.2   347  THR347     -0.2866
     77  CB       -49.1410   43.2190  -24.8410 C.3   347  THR347      0.1770
     78  OG1      -48.9080   44.6190  -25.1220 O.3   347  THR347     -0.2211
     79  CG2      -48.2170   42.3340  -25.6710 C.3   347  THR347      0.0375
@<TRIPOS>BOND
     1    12    11    2
     2    11    10    1
     3    15    14    1
     4    13    10    1
     5    13    14    1
     6    16    14    1
     7    10     9    1
     8    55    53   am
     9    54    53    2
    10    53    52    1
    11    52    49    1
    12    49    50    1
    13    49    48    1
    14    50    51    2
    15    44    43    2
    16    56    57    1
    17     4     3    2
    18    63    61    1
    19    61    60    1
    20    43    48   am
    21    43    42    1
    22     3     2    1
    23    39    38    1
    24    47    45    1
    25    57    60    1
    26    57    58    1
    27    60    62    1
    28    45    42    1
    29    45    46    1
    30    42    41    1
    31     5     2    1
    32     5     6    1
    33    64    58   am
    34    64    65    1
    35     2     1    1
    36    58    59    2
    37    38    40    1
    38    38    35    1
    39    41    36   am
    40    68    65    1
    41    68    69    1
    42    65    66    1
    43    66    67    2
    44    36    35    1
    45    36    37    2
    46     6     8   ar
    47     6     7   ar
    48    35    34    1
    49    70    69    1
    50    70    71    1
    51    71    72    1
    52    33    32    1
    53    73    74    1
    54    32    29    1
    55    79    77    1
    56    74    77    1
    57    74    75    1
    58    78    77    1
    59    29    30    1
    60    29    28    1
    61    27    25    1
    62    76    75    2
    63    30    31    2
    64    24    25    2
    65    24    23    1
    66    28    19   am
    67    25    26    1
    68    23    22    1
    69    19    18    1
    70    19    20    2
    71    18    21    1
    72    18    17    1
    73    22    21    1
