@<TRIPOS>MOLECULE
tmp/5mzpA18.pdb
 147 139 0 0 0
SMALL
GASTEIGER

@<TRIPOS>ATOM
      1  N        -25.9460    8.1720    3.4210 N.3    10  TYR10      -0.1241
      2  CA       -25.7320    7.4530    4.6610 C.3    10  TYR10       0.1605
      3  C        -26.9940    6.7340    5.0830 C.2    10  TYR10       0.2264
      4  O        -26.9440    5.6050    5.4740 O.2    10  TYR10      -0.2867
      5  CB       -25.2110    8.3870    5.7680 C.3    10  TYR10       0.0534
      6  CG       -25.3640    7.8420    7.1760 C.ar   10  TYR10      -0.0201
      7  CD1      -24.5770    6.8020    7.6250 C.ar   10  TYR10      -0.0009
      8  CD2      -26.3050    8.3490    8.0380 C.ar   10  TYR10      -0.0009
      9  CE1      -24.7190    6.2900    8.8850 C.ar   10  TYR10       0.0417
     10  CE2      -26.4460    7.8510    9.3110 C.ar   10  TYR10       0.0417
     11  CZ       -25.6490    6.8180    9.7230 C.ar   10  TYR10       0.1957
     12  OH       -25.7830    6.2880   10.9520 O.3    10  TYR10      -0.2866
     13  N        -29.7460    5.0120   14.9200 N.3    64  ALA64      -0.1245
     14  CA       -28.5860    5.7110   14.3760 C.3    64  ALA64       0.1562
     15  C        -28.9970    6.7240   13.3150 C.2    64  ALA64       0.2260
     16  O        -28.4090    7.8080   13.2210 O.2    64  ALA64      -0.2867
     17  CB       -27.5950    4.7030   13.7940 C.3    64  ALA64       0.0290
     18  N        -30.4550    9.7290   15.3240 N.3    67  ILE67      -0.1245
     19  CA       -29.4800   10.5490   16.0340 C.3    67  ILE67       0.1561
     20  C        -28.5520   11.3020   15.0950 C.2    67  ILE67       0.2260
     21  O        -27.8830   12.2480   15.5270 O.2    67  ILE67      -0.2867
     22  CB       -28.6690    9.6870   17.0240 C.3    67  ILE67       0.0252
     23  CG1      -28.1510   10.5510   18.1780 C.3    67  ILE67       0.0019
     24  CG2      -27.5180    8.9870   16.3200 C.3    67  ILE67       0.0019
     25  CD1      -27.5490    9.7560   19.3140 C.3    67  ILE67       0.0001
     26  N        -28.8980    6.6310   21.8360 N.3    82  ALA82      -0.1245
     27  CA       -27.4770    6.5030   21.6290 C.3    82  ALA82       0.1562
     28  C        -26.8680    5.2170   22.2140 C.2    82  ALA82       0.2260
     29  O        -25.9670    4.6870   21.6790 O.2    82  ALA82      -0.2867
     30  CB       -26.7820    7.6970   22.2360 C.3    82  ALA82       0.0290
     31  N        -27.4380    0.4510   20.9710 N.3    85  VAL85      -0.1231
     32  CA       -26.5450   -0.3450   20.1320 C.3    85  VAL85       0.1692
     33  C        -25.4010   -0.9210   20.9580 C.2    85  VAL85       0.2591
     34  O        -24.8590   -1.9830   20.6270 O.2    85  VAL85      -0.2718
     35  CB       -26.0240    0.4930   18.9470 C.3    85  VAL85       0.0266
     36  CG1      -25.0810    1.5900   19.4300 C.3    85  VAL85       0.0020
     37  CG2      -25.3360   -0.4030   17.9190 C.3    85  VAL85       0.0020
     38  N        -25.0240   -0.2480   22.0490 N.am   86  LEU86      -0.1980
     39  CA       -23.9720   -0.7700   22.9150 C.3    86  LEU86       0.1596
     40  C        -24.4430   -2.0000   23.6800 C.2    86  LEU86       0.2287
     41  O        -23.6350   -2.8820   23.9940 O.2    86  LEU86      -0.2864
     42  CB       -23.5020    0.3150   23.8860 C.3    86  LEU86       0.0297
     43  CG       -22.9840    1.6130   23.2630 C.3    86  LEU86       0.0022
     44  CD1      -22.6340    2.6330   24.3420 C.3    86  LEU86       0.0001
     45  CD2      -21.7790    1.3340   22.3770 C.3    86  LEU86       0.0001
     46  N        -24.6920   11.8730   19.2960 N.3   169  PHE169     -0.1227
     47  CA       -24.0300   10.8410   20.0940 C.3   169  PHE169      0.1736
     48  C        -22.9490   11.4370   20.9870 C.2   169  PHE169      0.2595
     49  O        -22.9580   11.2480   22.2090 O.2   169  PHE169     -0.2718
     50  CB       -23.4350    9.7610   19.1830 C.3   169  PHE169      0.0547
     51  CG       -22.8580    8.5810   19.9320 C.ar  169  PHE169     -0.0202
     52  CD1      -21.5670    8.6230   20.4420 C.ar  169  PHE169     -0.0042
     53  CD2      -23.6070    7.4310   20.1210 C.ar  169  PHE169     -0.0042
     54  CE1      -21.0360    7.5410   21.1330 C.ar  169  PHE169     -0.0003
     55  CE2      -23.0830    6.3440   20.8090 C.ar  169  PHE169     -0.0003
     56  CZ       -21.7950    6.4020   21.3150 C.ar  169  PHE169     -0.0000
     57  N        -21.9990   12.1580   20.3900 N.am  170  GLU170     -0.1979
     58  CA       -20.8490   12.6390   21.1480 C.3   170  GLU170      0.1602
     59  C        -21.1810   13.8100   22.0620 C.2   170  GLU170      0.2287
     60  O        -20.3250   14.2080   22.8590 O.2   170  GLU170     -0.2864
     61  CB       -19.7160   13.0220   20.1940 C.3   170  GLU170      0.0415
     62  CG       -19.1500   11.8360   19.4240 C.3   170  GLU170      0.1163
     63  CD       -17.8700   12.1690   18.6840 C.2   170  GLU170      0.3649
     64  OE1      -17.1940   13.1460   19.0680 O.co2 170  GLU170     -0.2457
     65  OE2      -17.5410   11.4530   17.7160 O.co2 170  GLU170     -0.2457
     66  N        -16.8480   10.5070   26.2170 N.3   175  MET175     -0.1245
     67  CA       -15.8440    9.7460   25.4880 C.3   175  MET175      0.1570
     68  C        -14.9330    8.9450   26.4110 C.2   175  MET175      0.2261
     69  O        -14.3270    7.9670   25.9600 O.2   175  MET175     -0.2867
     70  CB       -15.0180   10.6780   24.6000 C.3   175  MET175      0.0387
     71  CG       -14.3410    9.9710   23.4390 C.3   175  MET175      0.0595
     72  SD       -15.4940    9.1070   22.3510 S.3   175  MET175     -0.1393
     73  CE       -16.0520   10.4490   21.3050 C.3   175  MET175      0.0692
     74  N        -16.7570    5.7460   26.5610 N.3   178  MET178     -0.1245
     75  CA       -16.6200    4.9940   25.3180 C.3   178  MET178      0.1570
     76  C        -15.2450    4.3560   25.1820 C.2   178  MET178      0.2261
     77  O        -15.1280    3.2490   24.6430 O.2   178  MET178     -0.2867
     78  CB       -16.8920    5.9020   24.1180 C.3   178  MET178      0.0387
     79  CG       -18.3630    6.2030   23.8810 C.3   178  MET178      0.0595
     80  SD       -19.3590    4.7070   23.7220 S.3   178  MET178     -0.1393
     81  CE       -18.5840    3.9020   22.3190 C.3   178  MET178      0.0692
     82  N        -15.8280   -3.5410   14.1140 N.3   330  TRP330     -0.1241
     83  CA       -16.0110   -2.5290   15.1440 C.3   330  TRP330      0.1605
     84  C        -14.7980   -1.6960   15.5190 C.2   330  TRP330      0.2264
     85  O        -14.9520   -0.6420   16.0600 O.2   330  TRP330     -0.2867
     86  CB       -16.5510   -3.1620   16.4330 C.3   330  TRP330      0.0550
     87  CG       -18.0010   -3.4340   16.4300 C.ar  330  TRP330      0.0003
     88  CD1      -18.6010   -4.5670   16.0520 C.ar  330  TRP330      0.0946
     89  CD2      -19.0360   -2.5430   16.8160 C.ar  330  TRP330      0.0152
     90  NE1      -19.9470   -4.4540   16.1730 N.ar  330  TRP330     -0.2442
     91  CE2      -20.2400   -3.2140   16.6530 C.ar  330  TRP330      0.0810
     92  CE3      -19.0590   -1.2470   17.3070 C.ar  330  TRP330      0.0012
     93  CZ2      -21.4520   -2.6290   16.9300 C.ar  330  TRP330      0.0191
     94  CZ3      -20.2570   -0.6710   17.5760 C.ar  330  TRP330      0.0001
     95  CH2      -21.4380   -1.3610   17.3980 C.ar  330  TRP330      0.0015
     96  N        -14.4030    2.2670   14.3590 N.3   333  LEU333     -0.1231
     97  CA       -15.1700    3.2220   15.1520 C.3   333  LEU333      0.1693
     98  C        -14.5450    3.4250   16.5290 C.2   333  LEU333      0.2592
     99  O        -14.4740    4.5540   17.0270 O.2   333  LEU333     -0.2718
    100  CB       -16.6200    2.7500   15.2770 C.3   333  LEU333      0.0284
    101  CG       -17.6210    3.6590   15.9960 C.3   333  LEU333      0.0019
    102  CD1      -17.5820    5.0770   15.4450 C.3   333  LEU333      0.0001
    103  CD2      -19.0310    3.0860   15.8850 C.3   333  LEU333      0.0001
    104  N        -14.0730    2.3450   17.1540 N.am  334  HIS334     -0.1976
    105  CA       -13.4330    2.4670   18.4600 C.3   334  HIS334      0.1656
    106  C        -12.1120    3.2200   18.3660 C.2   334  HIS334      0.2291
    107  O        -11.7760    4.0070   19.2590 O.2   334  HIS334     -0.2864
    108  CB       -13.2100    1.0850   19.0680 C.3   334  HIS334      0.0771
    109  CG       -14.4560    0.4500   19.5960 C.ar  334  HIS334      0.0820
    110  ND1      -15.1610    0.9680   20.6610 N.ar  334  HIS334     -0.2267
    111  CD2      -15.1180   -0.6680   19.2150 C.ar  334  HIS334      0.1154
    112  CE1      -16.2080    0.2010   20.9090 C.ar  334  HIS334      0.1986
    113  NE2      -16.2050   -0.7990   20.0460 N.ar  334  HIS334     -0.2212
    114  N        -12.7510    6.8990   18.0910 N.3   337  ASN337     -0.1240
    115  CA       -13.0700    7.4360   19.4110 C.3   337  ASN337      0.1653
    116  C        -11.8090    7.6620   20.2330 C.2   337  ASN337      0.2266
    117  O        -11.7230    8.6330   20.9950 O.2   337  ASN337     -0.2867
    118  CB       -14.0290    6.4990   20.1480 C.3   337  ASN337      0.1155
    119  CG       -15.4250    6.5080   19.5550 C.2   337  ASN337      0.2627
    120  OD1      -15.7960    7.4290   18.8300 O.2   337  ASN337     -0.2716
    121  ND2      -16.2090    5.4830   19.8670 N.am  337  ASN337     -0.0877
    122  N        -16.9000    9.2850    9.9740 N.3   354  MET354     -0.1245
    123  CA       -17.7680    8.8100   11.0450 C.3   354  MET354      0.1570
    124  C        -18.8880    7.9440   10.4860 C.2   354  MET354      0.2261
    125  O        -19.1620    6.8540   11.0010 O.2   354  MET354     -0.2867
    126  CB       -18.3500    9.9940   11.8210 C.3   354  MET354      0.0387
    127  CG       -17.3190   10.9300   12.4290 C.3   354  MET354      0.0595
    128  SD       -16.2200   10.1100   13.6000 S.3   354  MET354     -0.1393
    129  CE       -17.3940    9.2800   14.6710 C.3   354  MET354      0.0692
    130  N        -19.4550    4.0090   11.2180 N.3   358  ILE358     -0.1245
    131  CA       -20.7220    3.5410   11.7410 C.3   358  ILE358      0.1561
    132  C        -21.3320    2.4400   10.8680 C.2   358  ILE358      0.2260
    133  O        -21.7340    1.4210   11.3640 O.2   358  ILE358     -0.2867
    134  CB       -21.7120    4.6990   11.9440 C.3   358  ILE358      0.0252
    135  CG1      -21.2630    5.5810   13.0990 C.3   358  ILE358      0.0019
    136  CG2      -23.1010    4.1660   12.2070 C.3   358  ILE358      0.0019
    137  CD1      -21.8740    6.9420   13.1240 C.3   358  ILE358      0.0001
    138  N        -22.1780   -1.6500   11.5620 N.3   362  HIS362     -0.1241
    139  CA       -23.4760   -2.2690   11.3270 C.3   362  HIS362      0.1621
    140  C        -23.3880   -3.4320   10.3430 C.2   362  HIS362      0.2264
    141  O        -24.1770   -4.3780   10.4400 O.2   362  HIS362     -0.2867
    142  CB       -24.4730   -1.2210   10.8310 C.3   362  HIS362      0.0745
    143  CG       -24.8210   -0.1860   11.8560 C.ar  362  HIS362      0.0817
    144  ND1      -25.3430    1.0460   11.5250 N.ar  362  HIS362     -0.2268
    145  CD2      -24.7260   -0.2030   13.2070 C.ar  362  HIS362      0.1154
    146  CE1      -25.5510    1.7450   12.6280 C.ar  362  HIS362      0.1986
    147  NE2      -25.1840    1.0100   13.6620 N.ar  362  HIS362     -0.2212
@<TRIPOS>BOND
     1     1     2    1
     2     2     3    1
     3     2     5    1
     4     3     4    2
     5     5     6    1
     6     6     7   ar
     7     6     8   ar
     8     7     9   ar
     9     8    10   ar
    10     9    11   ar
    11    10    11   ar
    12    11    12    1
    13   122   123    1
    14   140   141    2
    15   140   139    1
    16   124   125    2
    17   124   123    1
    18   142   139    1
    19   142   143    1
    20   132   133    2
    21   132   131    1
    22   123   126    1
    23   130   131    1
    24   139   138    1
    25   144   143   ar
    26   144   146   ar
    27   131   134    1
    28   126   127    1
    29   143   145   ar
    30   134   136    1
    31   134   135    1
    32   127   128    1
    33   146   147   ar
    34   135   137    1
    35   145   147   ar
    36    16    15    2
    37    15    14    1
    38   128   129    1
    39    17    14    1
    40    82    83    1
    41    96    97    1
    42    14    13    1
    43    20    21    2
    44    20    19    1
    45    83    84    1
    46    83    86    1
    47    97   100    1
    48    97    98    1
    49   100   101    1
    50    18    19    1
    51   102   101    1
    52    84    85    2
    53   103   101    1
    54    19    22    1
    55    88    90   ar
    56    88    87   ar
    57    90    91   ar
    58    24    22    1
    59    87    86    1
    60    87    89   ar
    61    98    99    2
    62    98   104   am
    63    91    89   ar
    64    91    93   ar
    65    89    92   ar
    66    93    95   ar
    67    22    23    1
    68   104   105    1
    69    92    94   ar
    70    95    94   ar
    71    65    63   ar
    72    37    35    1
    73   114   115    1
    74    23    25    1
    75   106   105    1
    76   106   107    2
    77   105   108    1
    78    63    64   ar
    79    63    62    1
    80   120   119    2
    81    35    36    1
    82    35    32    1
    83   108   109    1
    84    50    51    1
    85    50    47    1
    86   111   109   ar
    87   111   113   ar
    88    46    47    1
    89   115   118    1
    90   115   116    1
    91    62    61    1
    92   119   121   am
    93   119   118    1
    94   109   110   ar
    95    51    53   ar
    96    51    52   ar
    97   113   112   ar
    98    47    48    1
    99    53    55   ar
   100    32    33    1
   101    32    31    1
   102    61    58    1
   103   116   117    2
   104    57    48   am
   105    57    58    1
   106    52    54   ar
   107    34    33    2
   108   110   112   ar
   109    55    56   ar
   110    33    38   am
   111    48    49    2
   112    54    56   ar
   113    58    59    1
   114    73    72    1
   115    27    26    1
   116    27    28    1
   117    27    30    1
   118    29    28    2
   119    38    39    1
   120    59    60    2
   121    81    80    1
   122    72    71    1
   123    45    43    1
   124    39    40    1
   125    39    42    1
   126    43    42    1
   127    43    44    1
   128    71    70    1
   129    40    41    2
   130    80    79    1
   131    79    78    1
   132    78    75    1
   133    70    67    1
   134    77    76    2
   135    76    75    1
   136    75    74    1
   137    67    66    1
   138    67    68    1
   139    69    68    2
