@<TRIPOS>MOLECULE
tmp/5mzpA03.pdb
 86 81 0 0 0
SMALL
GASTEIGER

@<TRIPOS>ATOM
      1  N        -14.1200  -11.0810   12.5020 N.3   325  LEU325     -0.1245
      2  CA       -14.9300  -10.1710   11.7240 C.3   325  LEU325      0.1561
      3  C        -15.6080   -9.1460   12.6060 C.2   325  LEU325      0.2260
      4  O        -15.7400   -8.0290   12.2260 O.2   325  LEU325     -0.2867
      5  CB       -15.9210  -10.9080   10.8500 C.3   325  LEU325      0.0270
      6  CG       -15.3300  -11.5470    9.5930 C.3   325  LEU325      0.0019
      7  CD1      -16.3630  -12.3970    8.9230 C.3   325  LEU325      0.0001
      8  CD2      -14.7770  -10.5330    8.6160 C.3   325  LEU325      0.0001
      9  N        -12.8630   -6.7140   13.3120 N.3   328  LEU328     -0.1231
     10  CA       -12.5430   -5.9250   12.1530 C.3   328  LEU328      0.1693
     11  C        -13.6200   -4.8840   11.8830 C.2   328  LEU328      0.2592
     12  O        -13.3350   -3.7810   11.5250 O.2   328  LEU328     -0.2718
     13  CB       -12.3780   -6.8230   10.9480 C.3   328  LEU328      0.0284
     14  CG       -11.7940   -6.1800    9.6980 C.3   328  LEU328      0.0019
     15  CD1      -10.3100   -5.9380    9.8930 C.3   328  LEU328      0.0001
     16  CD2      -12.0450   -7.0530    8.4800 C.3   328  LEU328      0.0001
     17  N        -14.8580   -5.2990   12.0230 N.am  329  CYS329     -0.1970
     18  CA       -15.9850   -4.4400   11.8390 C.3   329  CYS329      0.1712
     19  C        -16.1380   -3.3320   12.8420 C.2   329  CYS329      0.2296
     20  O        -16.5730   -2.3370   12.4630 O.2   329  CYS329     -0.2864
     21  CB       -17.2940   -5.1990   11.6930 C.3   329  CYS329      0.0983
     22  SG       -17.4820   -6.0410   10.1360 S.3   329  CYS329     -0.0798
     23  N        -19.8070    0.4220    8.8310 N.3   360  LEU360     -0.1245
     24  CA       -18.9610   -0.7430    8.9140 C.3   360  LEU360      0.1561
     25  C        -19.3030   -1.5710   10.1550 C.2   360  LEU360      0.2260
     26  O        -19.3600   -2.7600   10.0940 O.2   360  LEU360     -0.2867
     27  CB       -17.5030   -0.3390    8.9350 C.3   360  LEU360      0.0270
     28  CG       -16.5300   -1.4950    8.9880 C.3   360  LEU360      0.0019
     29  CD1      -16.6890   -2.4180    7.8020 C.3   360  LEU360      0.0001
     30  CD2      -15.1040   -1.0140    9.1250 C.3   360  LEU360      0.0001
     31  N        -22.4480   -3.3770    9.3950 N.3   363  THR363     -0.1218
     32  CA       -22.2890   -4.4540    8.4230 C.3   363  THR363      0.1862
     33  C        -21.9680   -5.7860    9.0930 C.2   363  THR363      0.2287
     34  O        -22.2420   -6.8430    8.5130 O.2   363  THR363     -0.2866
     35  CB       -21.1940   -4.0870    7.4130 C.3   363  THR363      0.1770
     36  OG1      -21.4740   -2.7990    6.8510 O.3   363  THR363     -0.2211
     37  CG2      -21.1190   -5.1090    6.2850 C.3   363  THR363      0.0375
     38  N        -22.7800  -10.2700    8.1850 N.3   367  VAL367     -0.1245
     39  CA       -21.8010  -11.2080    7.6380 C.3   367  VAL367      0.1561
     40  C        -21.9530  -12.6220    8.1980 C.2   367  VAL367      0.2260
     41  O        -21.5950  -13.5900    7.5180 O.2   367  VAL367     -0.2867
     42  CB       -20.3730  -10.6850    7.8660 C.3   367  VAL367      0.0252
     43  CG1      -20.1700   -9.3710    7.1370 C.3   367  VAL367      0.0019
     44  CG2      -20.0900  -10.5260    9.3550 C.3   367  VAL367      0.0019
     45  N        -23.6730  -15.4810    6.1770 N.3   370  PHE370     -0.1227
     46  CA       -22.8880  -15.9140    5.0250 C.3   370  PHE370      0.1736
     47  C        -21.7440  -16.8310    5.4330 C.2   370  PHE370      0.2595
     48  O        -21.3910  -17.7470    4.6820 O.2   370  PHE370     -0.2718
     49  CB       -22.3560  -14.6990    4.2680 C.3   370  PHE370      0.0547
     50  CG       -23.4250  -13.9140    3.5780 C.ar  370  PHE370     -0.0202
     51  CD1      -24.1560  -12.9590    4.2640 C.ar  370  PHE370     -0.0042
     52  CD2      -23.7150  -14.1460    2.2460 C.ar  370  PHE370     -0.0042
     53  CE1      -25.1500  -12.2440    3.6310 C.ar  370  PHE370     -0.0003
     54  CE2      -24.7040  -13.4340    1.6090 C.ar  370  PHE370     -0.0003
     55  CZ       -25.4260  -12.4850    2.3020 C.ar  370  PHE370     -0.0000
     56  N        -21.1580  -16.6090    6.6090 N.am  371  ILE371     -0.1980
     57  CA       -20.0860  -17.4850    7.0690 C.3   371  ILE371      0.1595
     58  C        -20.6300  -18.8740    7.3830 C.2   371  ILE371      0.2287
     59  O        -19.9860  -19.8880    7.0880 O.2   371  ILE371     -0.2864
     60  CB       -19.3750  -16.8650    8.2830 C.3   371  ILE371      0.0276
     61  CG1      -18.9510  -15.4270    7.9760 C.3   371  ILE371      0.0022
     62  CG2      -18.1710  -17.7070    8.6820 C.3   371  ILE371      0.0022
     63  CD1      -17.9920  -15.3070    6.8180 C.3   371  ILE371      0.0001
     64  N        -21.2760  -20.6790    4.0050 N.3   374  TYR374     -0.1227
     65  CA       -20.0860  -21.0490    3.2530 C.3   374  TYR374      0.1736
     66  C        -19.1790  -22.0220    3.9960 C.2   374  TYR374      0.2595
     67  O        -18.3180  -22.6430    3.3630 O.2   374  TYR374     -0.2718
     68  CB       -19.2810  -19.7980    2.8800 C.3   374  TYR374      0.0548
     69  CG       -19.7850  -19.0760    1.6470 C.ar  374  TYR374     -0.0200
     70  CD1      -19.5200  -19.5680    0.3740 C.ar  374  TYR374     -0.0009
     71  CD2      -20.5120  -17.8970    1.7540 C.ar  374  TYR374     -0.0009
     72  CE1      -19.9730  -18.9110   -0.7560 C.ar  374  TYR374      0.0417
     73  CE2      -20.9690  -17.2320    0.6300 C.ar  374  TYR374      0.0417
     74  CZ       -20.6970  -17.7440   -0.6220 C.ar  374  TYR374      0.1957
     75  OH       -21.1500  -17.0870   -1.7440 O.3   374  TYR374     -0.2866
     76  N        -19.3480  -22.1820    5.3120 N.am  375  ARG375     -0.1980
     77  CA       -18.4340  -22.9960    6.1000 C.3   375  ARG375      0.1597
     78  C        -19.0850  -24.1440    6.8600 C.2   375  ARG375      0.2287
     79  O        -18.3650  -25.0530    7.2860 O.2   375  ARG375     -0.2864
     80  CB       -17.6690  -22.1200    7.1050 C.3   375  ARG375      0.0334
     81  CG       -16.7400  -21.1020    6.4610 C.3   375  ARG375      0.0492
     82  CD       -15.7410  -20.5650    7.4700 C.3   375  ARG375      0.2205
     83  NE       -14.9900  -21.6470    8.0970 N.pl3 375  ARG375     -0.0865
     84  CZ       -13.8480  -22.1380    7.6250 C.cat 375  ARG375      0.5346
     85  NH1      -13.3190  -21.6380    6.5180 N.pl3 375  ARG375      0.1354
     86  NH2      -13.2350  -23.1280    8.2620 N.pl3 375  ARG375      0.1354
@<TRIPOS>BOND
     1    75    74    1
     2    72    74   ar
     3    72    70   ar
     4    74    73   ar
     5    70    69   ar
     6    73    71   ar
     7    54    52   ar
     8    54    55   ar
     9    69    71   ar
    10    69    68    1
    11    52    50   ar
    12    55    53   ar
    13    68    65    1
    14    65    66    1
    15    65    64    1
    16    67    66    2
    17    50    51   ar
    18    50    49    1
    19    53    51   ar
    20    66    76   am
    21    49    46    1
    22    48    47    2
    23    46    47    1
    24    46    45    1
    25    76    77    1
    26    47    56   am
    27    77    78    1
    28    77    80    1
    29    37    35    1
    30    81    80    1
    31    81    82    1
    32    85    84    1
    33    56    57    1
    34    63    61    1
    35    36    35    1
    36    78    79    2
    37    57    58    1
    38    57    60    1
    39    59    58    2
    40    43    42    1
    41    35    32    1
    42    82    83    1
    43    41    40    2
    44    84    83    2
    45    84    86    1
    46    39    42    1
    47    39    38    1
    48    39    40    1
    49    29    28    1
    50    42    44    1
    51    61    60    1
    52    60    62    1
    53    32    33    1
    54    32    31    1
    55    16    14    1
    56    34    33    2
    57     8     6    1
    58    23    24    1
    59    24    27    1
    60    24    25    1
    61     7     6    1
    62    27    28    1
    63    28    30    1
    64     6     5    1
    65    14    15    1
    66    14    13    1
    67    26    25    2
    68    22    21    1
    69     5     2    1
    70    13    10    1
    71    12    11    2
    72    21    18    1
    73     2     1    1
    74     2     3    1
    75    18    17    1
    76    18    19    1
    77    11    17   am
    78    11    10    1
    79    10     9    1
    80     4     3    2
    81    20    19    2
