@<TRIPOS>MOLECULE
tmp/5mzrA03.pdb
 124 120 0 0 0
SMALL
GASTEIGER

@<TRIPOS>ATOM
      1  N         45.3570   -3.5590   39.1070 N.3   115  TYR115     -0.1228
      2  CA        44.9790   -4.9550   39.3060 C.3   115  TYR115      0.1721
      3  C         45.2480   -5.3920   40.7550 C.2   115  TYR115      0.2437
      4  O         46.2850   -5.0150   41.3100 O.2   115  TYR115     -0.2733
      5  CB        45.7350   -5.8250   38.3030 C.3   115  TYR115      0.0547
      6  CG        45.5290   -7.3090   38.4910 C.ar  115  TYR115     -0.0200
      7  CD1       46.2980   -8.0330   39.3980 C.ar  115  TYR115     -0.0009
      8  CD2       44.6220   -8.0090   37.7070 C.ar  115  TYR115     -0.0009
      9  CE1       46.1160   -9.4030   39.5660 C.ar  115  TYR115      0.0417
     10  CE2       44.4450   -9.3850   37.8570 C.ar  115  TYR115      0.0417
     11  CZ        45.1860  -10.0770   38.7960 C.ar  115  TYR115      0.1957
     12  OH        45.0060  -11.4300   38.9410 O.3   115  TYR115     -0.2866
     13  N         44.3380   -6.1720   41.3990 N.am  116  PRO116     -0.2718
     14  CA        43.0900   -6.7710   40.8780 C.3   116  PRO116      0.1535
     15  C         41.8190   -5.9260   41.0300 C.2   116  PRO116      0.2598
     16  O         40.7130   -6.4830   41.0130 O.2   116  PRO116     -0.2715
     17  CB        43.0050   -8.0450   41.7170 C.3   116  PRO116      0.0310
     18  CG        43.4560   -7.5770   43.0640 C.3   116  PRO116      0.0237
     19  CD        44.5850   -6.6230   42.7860 C.3   116  PRO116      0.0939
     20  N         41.9720   -4.6010   41.2230 N.am  117  PHE117     -0.1974
     21  CA        40.8620   -3.6520   41.4460 C.3   117  PHE117      0.1639
     22  C         40.6700   -2.8020   40.1960 C.2   117  PHE117      0.2290
     23  O         40.2500   -1.6360   40.2710 O.2   117  PHE117     -0.2864
     24  CB        41.1710   -2.7630   42.6760 C.3   117  PHE117      0.0560
     25  CG        41.3900   -3.5620   43.9300 C.ar  117  PHE117     -0.0200
     26  CD1       40.3150   -4.0660   44.6480 C.ar  117  PHE117     -0.0042
     27  CD2       42.6750   -3.8920   44.3460 C.ar  117  PHE117     -0.0042
     28  CE1       40.5190   -4.8820   45.7650 C.ar  117  PHE117     -0.0003
     29  CE2       42.8780   -4.7180   45.4510 C.ar  117  PHE117     -0.0003
     30  CZ        41.7980   -5.2020   46.1560 C.ar  117  PHE117     -0.0000
     31  N         39.9580  -12.3330   45.5060 N.3   193  TYR193     -0.1241
     32  CA        41.3430  -11.9410   45.7990 C.3   193  TYR193      0.1605
     33  C         41.5830  -11.6970   47.2950 C.2   193  TYR193      0.2264
     34  O         42.6660  -12.0030   47.7990 O.2   193  TYR193     -0.2867
     35  CB        41.7320  -10.7020   44.9640 C.3   193  TYR193      0.0534
     36  CG        41.8130  -10.9930   43.4850 C.ar  193  TYR193     -0.0201
     37  CD1       42.9850  -11.4730   42.9200 C.ar  193  TYR193     -0.0009
     38  CD2       40.6870  -10.8940   42.6670 C.ar  193  TYR193     -0.0009
     39  CE1       43.0740  -11.7420   41.5570 C.ar  193  TYR193      0.0417
     40  CE2       40.7380  -11.2460   41.3150 C.ar  193  TYR193      0.0417
     41  CZ        41.9400  -11.6600   40.7610 C.ar  193  TYR193      0.1957
     42  OH        42.0220  -11.9670   39.4240 O.3   193  TYR193     -0.2866
     43  N         44.0790  -14.5980   48.4080 N.3   197  ILE197     -0.1231
     44  CA        45.4600  -14.1310   48.2310 C.3   197  ILE197      0.1692
     45  C         45.8780  -13.0780   49.2630 C.2   197  ILE197      0.2591
     46  O         46.8980  -13.2780   49.9260 O.2   197  ILE197     -0.2718
     47  CB        45.7290  -13.6570   46.7590 C.3   197  ILE197      0.0266
     48  CG1       45.8360  -14.8460   45.7970 C.3   197  ILE197      0.0019
     49  CG2       47.0270  -12.8820   46.6870 C.3   197  ILE197      0.0020
     50  CD1       44.6660  -15.0630   44.9690 C.3   197  ILE197      0.0001
     51  N         45.1250  -11.9670   49.3830 N.am  198  ILE198     -0.1980
     52  CA        45.4500  -10.8540   50.3010 C.3   198  ILE198      0.1595
     53  C         45.5310  -11.2890   51.7420 C.2   198  ILE198      0.2287
     54  O         46.5780  -11.0710   52.3570 O.2   198  ILE198     -0.2864
     55  CB        44.4980   -9.6330   50.1270 C.3   198  ILE198      0.0276
     56  CG1       44.5600   -9.1080   48.6610 C.3   198  ILE198      0.0022
     57  CG2       44.8030   -8.5150   51.1300 C.3   198  ILE198      0.0022
     58  CD1       43.3540   -8.3500   48.1260 C.3   198  ILE198      0.0001
     59  N         48.4450  -13.8170   52.6240 N.3   201  MET201     -0.1245
     60  CA        49.7160  -13.0760   52.6510 C.3   201  MET201      0.1570
     61  C         49.9110  -12.3390   53.9800 C.2   201  MET201      0.2261
     62  O         51.0070  -12.4100   54.5510 O.2   201  MET201     -0.2867
     63  CB        49.8110  -12.0790   51.4970 C.3   201  MET201      0.0387
     64  CG        50.1530  -12.7060   50.1680 C.3   201  MET201      0.0595
     65  SD        50.3980  -11.4200   48.9280 S.3   201  MET201     -0.1393
     66  CE        50.8410  -12.3840   47.4870 C.3   201  MET201      0.0692
     67  N         50.3460  -15.5810   41.8830 N.3   238  VAL238     -0.1245
     68  CA        49.7680  -14.3320   41.4260 C.3   238  VAL238      0.1561
     69  C         50.3130  -13.8720   40.0760 C.2   238  VAL238      0.2260
     70  O         49.5250  -13.5820   39.1720 O.2   238  VAL238     -0.2867
     71  CB        50.0210  -13.2940   42.5320 C.3   238  VAL238      0.0252
     72  CG1       50.0660  -11.8770   41.9830 C.3   238  VAL238      0.0019
     73  CG2       49.0050  -13.4430   43.6530 C.3   238  VAL238      0.0019
     74  N         49.2500  -15.4190   36.5240 N.3   241  ASN241     -0.1240
     75  CA        47.9700  -14.9890   35.9330 C.3   241  ASN241      0.1653
     76  C         48.0510  -13.5880   35.2600 C.2   241  ASN241      0.2266
     77  O         47.0480  -13.1000   34.7320 O.2   241  ASN241     -0.2867
     78  CB        46.8260  -14.9950   36.9780 C.3   241  ASN241      0.1155
     79  CG        46.8700  -16.0660   38.0570 C.2   241  ASN241      0.2627
     80  OD1       47.3380  -17.1990   37.8490 O.2   241  ASN241     -0.2716
     81  ND2       46.3730  -15.7310   39.2490 N.am  241  ASN241     -0.0877
     82  N         49.7310   -2.4370   40.8740 N.3   250  TYR250     -0.1227
     83  CA        49.4520   -2.2840   42.2970 C.3   250  TYR250      0.1736
     84  C         49.9200   -3.5050   43.1120 C.2   250  TYR250      0.2596
     85  O         50.6110   -3.3700   44.1200 O.2   250  TYR250     -0.2718
     86  CB        47.9660   -1.9820   42.5010 C.3   250  TYR250      0.0548
     87  CG        47.5560   -1.8880   43.9500 C.ar  250  TYR250     -0.0200
     88  CD1       48.2210   -1.0320   44.8320 C.ar  250  TYR250     -0.0009
     89  CD2       46.4850   -2.6260   44.4380 C.ar  250  TYR250     -0.0009
     90  CE1       47.8240   -0.9140   46.1620 C.ar  250  TYR250      0.0417
     91  CE2       46.0750   -2.5100   45.7660 C.ar  250  TYR250      0.0417
     92  CZ        46.7540   -1.6620   46.6260 C.ar  250  TYR250      0.1957
     93  OH        46.3790   -1.5730   47.9450 O.3   250  TYR250     -0.2866
     94  N         49.5960   -4.6660   42.6230 N.am  251  THR251     -0.1953
     95  CA        49.9610   -5.9550   43.1430 C.3   251  THR251      0.1897
     96  C         51.4790   -6.1260   43.2040 C.2   251  THR251      0.2313
     97  O         51.9990   -6.6270   44.1940 O.2   251  THR251     -0.2863
     98  CB        49.3500   -6.9300   42.1780 C.3   251  THR251      0.1794
     99  OG1       47.9700   -7.0300   42.4970 O.3   251  THR251     -0.2208
    100  CG2       50.0390   -8.2780   42.1320 C.3   251  THR251      0.0378
    101  N         53.0630   -4.0690   45.9450 N.3   254  ILE254     -0.1227
    102  CA        52.7860   -4.7180   47.2290 C.3   254  ILE254      0.1732
    103  C         53.7140   -5.8920   47.4460 C.2   254  ILE254      0.2595
    104  O         54.3350   -5.9790   48.5000 O.2   254  ILE254     -0.2718
    105  CB        51.2910   -5.0840   47.3470 C.3   254  ILE254      0.0485
    106  CG1       50.5610   -3.8770   47.9200 C.2   254  ILE254     -0.0245
    107  CG2       51.0780   -6.3020   48.2520 C.3   254  ILE254      0.0067
    108  CD1       49.3210   -3.7250   47.5310 C.2   254  ILE254     -0.0049
    109  N         53.8430   -6.7600   46.4340 N.am  255  ILE255     -0.1980
    110  CA        54.7210   -7.9240   46.4280 C.3   255  ILE255      0.1595
    111  C         56.1510   -7.4890   46.7020 C.2   255  ILE255      0.2287
    112  O         56.7950   -8.0850   47.5590 O.2   255  ILE255     -0.2864
    113  CB        54.5590   -8.7260   45.1000 C.3   255  ILE255      0.0276
    114  CG1       53.2370   -9.5360   45.1280 C.3   255  ILE255      0.0022
    115  CG2       55.8010   -9.6190   44.7890 C.3   255  ILE255      0.0022
    116  CD1       52.8860  -10.2230   43.8840 C.3   255  ILE255      0.0001
    117  N         51.4560    1.0290   52.9070 N.3   303  ASN303     -0.1240
    118  CA        50.2630    0.6070   52.1880 C.3   303  ASN303      0.1653
    119  C         49.3290    1.7670   51.8590 C.2   303  ASN303      0.2266
    120  O         48.8200    1.8210   50.7350 O.2   303  ASN303     -0.2867
    121  CB        49.5400   -0.5170   52.9090 C.3   303  ASN303      0.1155
    122  CG        50.0330   -1.8650   52.4620 C.2   303  ASN303      0.2627
    123  OD1       50.9290   -2.4440   53.0640 O.2   303  ASN303     -0.2716
    124  ND2       49.5300   -2.3500   51.3460 N.am  303  ASN303     -0.0877
@<TRIPOS>BOND
     1    77    76    2
     2    76    75    1
     3    75    74    1
     4    75    78    1
     5    78    79    1
     6     8    10   ar
     7     8     6   ar
     8    80    79    2
     9    10    11   ar
    10    79    81   am
    11     5     6    1
    12     5     2    1
    13     6     7   ar
    14    11    12    1
    15    11     9   ar
    16     1     2    1
    17    70    69    2
    18     2     3    1
    19     7     9   ar
    20    42    41    1
    21    69    68    1
    22    22    23    2
    23    22    21    1
    24     3     4    2
    25     3    13   am
    26    41    40   ar
    27    41    39   ar
    28    82    83    1
    29    14    15    1
    30    14    13    1
    31    14    17    1
    32    16    15    2
    33    15    20   am
    34    20    21    1
    35    40    38   ar
    36    13    19    1
    37    68    67    1
    38    68    71    1
    39    21    24    1
    40    39    37   ar
    41    17    18    1
    42    72    71    1
    43   100    98    1
    44    98    99    1
    45    98    95    1
    46    83    86    1
    47    83    84    1
    48    86    87    1
    49    71    73    1
    50    94    84   am
    51    94    95    1
    52    38    36   ar
    53    24    25    1
    54    19    18    1
    55    37    36   ar
    56    84    85    2
    57    95    96    1
    58    96    97    2
    59    36    35    1
    60   116   114    1
    61    25    27   ar
    62    25    26   ar
    63    87    89   ar
    64    87    88   ar
    65    27    29   ar
    66    89    91   ar
    67    26    28   ar
    68   115   113    1
    69    88    90   ar
    70    35    32    1
    71    50    48    1
    72   113   114    1
    73   113   110    1
    74    29    30   ar
    75    31    32    1
    76    28    30   ar
    77    91    92   ar
    78    48    47    1
    79    32    33    1
    80   101   102    1
    81    90    92   ar
    82   110   109    1
    83   110   111    1
    84   109   103   am
    85    92    93    1
    86    49    47    1
    87   111   112    2
    88    47    44    1
    89   102   105    1
    90   102   103    1
    91    33    34    2
    92   105   106    1
    93   105   107    1
    94   103   104    2
    95    66    65    1
    96   108   106    2
    97    58    56    1
    98    44    43    1
    99    44    45    1
   100    56    55    1
   101    65    64    1
   102    45    51   am
   103    45    46    2
   104    51    52    1
   105    55    52    1
   106    55    57    1
   107    64    63    1
   108    52    53    1
   109   120   119    2
   110   124   122   am
   111    63    60    1
   112    53    54    2
   113   119   118    1
   114   118   117    1
   115   118   121    1
   116   122   121    1
   117   122   123    2
   118    59    60    1
   119    60    61    1
   120    61    62    2
