@<TRIPOS>MOLECULE
tmp/5n0dA00.pdb
 195 190 0 0 0
SMALL
GASTEIGER

@<TRIPOS>ATOM
      1  N          8.9320    5.1420    8.3650 N.3     4  HIS4       -0.1241
      2  CA         8.4420    3.9920    9.1190 C.3     4  HIS4        0.1621
      3  C          8.7400    2.6900    8.3680 C.2     4  HIS4        0.2264
      4  O          8.5550    2.6020    7.1520 O.2     4  HIS4       -0.2867
      5  CB         6.9270    4.1010    9.3470 C.3     4  HIS4        0.0745
      6  CG         6.5460    5.0100   10.4740 C.ar    4  HIS4        0.0817
      7  ND1        5.2620    5.0810   10.9730 N.ar    4  HIS4       -0.2268
      8  CD2        7.2830    5.8770   11.2090 C.ar    4  HIS4        0.1154
      9  CE1        5.2260    5.9520   11.9670 C.ar    4  HIS4        0.1986
     10  NE2        6.4390    6.4490   12.1310 N.ar    4  HIS4       -0.2212
     11  N          8.2620   -0.4390   10.3990 N.3     6  TRP6       -0.1241
     12  CA         7.7600   -1.4610   11.3070 C.3     6  TRP6        0.1605
     13  C          6.7450   -2.2980   10.5510 C.2     6  TRP6        0.2264
     14  O          6.1840   -1.8540    9.5430 O.2     6  TRP6       -0.2867
     15  CB         7.0810   -0.8250   12.5290 C.3     6  TRP6        0.0550
     16  CG         5.8660    0.0040   12.1820 C.ar    6  TRP6        0.0003
     17  CD1        5.8330    1.3330   11.8390 C.ar    6  TRP6        0.0946
     18  CD2        4.5180   -0.4660   12.0880 C.ar    6  TRP6        0.0152
     19  NE1        4.5470    1.7070   11.5380 N.ar    6  TRP6       -0.2442
     20  CE2        3.7200    0.6240   11.6880 C.ar    6  TRP6        0.0810
     21  CE3        3.9100   -1.7080   12.3070 C.ar    6  TRP6        0.0012
     22  CZ2        2.3390    0.5150   11.5040 C.ar    6  TRP6        0.0191
     23  CZ3        2.5380   -1.8200   12.1220 C.ar    6  TRP6        0.0001
     24  CH2        1.7660   -0.7100   11.7250 C.ar    6  TRP6        0.0015
     25  N         -3.4220    0.3920    3.6340 N.3    63  ASN63      -0.1240
     26  CA        -2.2720    1.2040    4.0600 C.3    63  ASN63       0.1653
     27  C         -1.0110    0.3660    4.3190 C.2    63  ASN63       0.2266
     28  O         -0.0260    0.8610    4.8670 O.2    63  ASN63      -0.2867
     29  CB        -2.6130    2.0100    5.3320 C.3    63  ASN63       0.1155
     30  CG        -3.0100    1.1230    6.4990 C.2    63  ASN63       0.2627
     31  OD1       -2.5930   -0.0260    6.5770 O.2    63  ASN63      -0.2716
     32  ND2       -3.8100    1.6620    7.4220 N.am   63  ASN63      -0.0877
     33  N         -0.7450   -2.1630    6.3580 N.3    65  HIS65      -0.1241
     34  CA        -0.8290   -2.8050    7.6920 C.3    65  HIS65       0.1621
     35  C         -2.2320   -3.3990    7.8890 C.2    65  HIS65       0.2264
     36  O         -2.4140   -4.3740    8.6180 O.2    65  HIS65      -0.2867
     37  CB        -0.5600   -1.7740    8.7870 C.3    65  HIS65       0.0745
     38  CG         0.7090   -1.0030    8.5860 C.ar   65  HIS65       0.0817
     39  ND1        1.9550   -1.5950    8.6120 N.ar   65  HIS65      -0.2268
     40  CD2        0.9240    0.3090    8.3290 C.ar   65  HIS65       0.1154
     41  CE1        2.8840   -0.6810    8.3810 C.ar   65  HIS65       0.1986
     42  NE2        2.2840    0.4850    8.2060 N.ar   65  HIS65      -0.2212
     43  N         -8.4750    0.4160    5.7960 N.3    68  ASN68      -0.1240
     44  CA        -9.3190    1.3280    6.5540 C.3    68  ASN68       0.1653
     45  C        -10.4780    1.8210    5.7230 C.2    68  ASN68       0.2266
     46  O        -10.2880    2.2770    4.5910 O.2    68  ASN68      -0.2867
     47  CB        -8.5220    2.5720    6.9900 C.3    68  ASN68       0.1155
     48  CG        -7.4700    2.2800    8.0420 C.2    68  ASN68       0.2627
     49  OD1       -7.3960    1.1900    8.5770 O.2    68  ASN68      -0.2716
     50  ND2       -6.6430    3.2890    8.3410 N.am   68  ASN68      -0.0877
     51  N        -14.0230    8.1680   12.6800 N.3    92  ILE92      -0.1231
     52  CA       -13.1540    8.5730   11.5840 C.3    92  ILE92       0.1692
     53  C        -12.8390    7.4030   10.6530 C.2    92  ILE92       0.2591
     54  O        -12.7330    7.5940    9.4400 O.2    92  ILE92      -0.2718
     55  CB       -11.8360    9.2420   12.0960 C.3    92  ILE92       0.0266
     56  CG1      -10.9300    9.5550   10.9090 C.3    92  ILE92       0.0019
     57  CG2      -11.1190    8.3370   13.0880 C.3    92  ILE92       0.0020
     58  CD1       -9.7860   10.4850   11.2510 C.3    92  ILE92       0.0001
     59  N        -12.7090    6.1960   11.2040 N.am   93  GLN93      -0.1979
     60  CA       -12.4220    5.0360   10.3590 C.3    93  GLN93       0.1601
     61  C        -12.5840    3.7340   11.1130 C.2    93  GLN93       0.2287
     62  O        -12.6730    3.7240   12.3390 O.2    93  GLN93      -0.2864
     63  CB       -10.9700    5.1080    9.8280 C.3    93  GLN93       0.0394
     64  CG        -9.8880    5.1350   10.9550 C.3    93  GLN93       0.0908
     65  CD        -9.1390    3.8090   11.1500 C.2    93  GLN93       0.2608
     66  OE1       -9.7070    2.7230   10.9940 O.2    93  GLN93      -0.2717
     67  NE2       -7.8640    3.9000   11.5380 N.am   93  GLN93      -0.0878
     68  N        -11.2390   -0.5560   10.8650 N.3    95  HIS95      -0.1241
     69  CA       -10.3650   -1.5130   10.2160 C.3    95  HIS95       0.1621
     70  C        -10.4340   -2.7730   11.0560 C.2    95  HIS95       0.2264
     71  O        -11.1100   -2.8250   12.1060 O.2    95  HIS95      -0.2867
     72  CB        -8.9100   -1.0400   10.1930 C.3    95  HIS95       0.0745
     73  CG        -8.3610   -0.7360   11.5470 C.ar   95  HIS95       0.0817
     74  ND1       -8.5940    0.4630   12.1870 N.ar   95  HIS95      -0.2268
     75  CD2       -7.6780   -1.5080   12.4240 C.ar   95  HIS95       0.1154
     76  CE1       -8.0900    0.4080   13.4080 C.ar   95  HIS95       0.1986
     77  NE2       -7.5290   -0.7790   13.5760 N.ar   95  HIS95      -0.2212
     78  N         -8.0700   -6.5350   12.2950 N.3    97  HIS97      -0.1241
     79  CA        -6.8010   -7.2450   12.5240 C.3    97  HIS97       0.1621
     80  C         -7.2470   -8.7140   12.3900 C.2    97  HIS97       0.2264
     81  O         -8.2860   -9.0940   12.9370 O.2    97  HIS97      -0.2867
     82  CB        -6.2580   -6.9720   13.9470 C.3    97  HIS97       0.0745
     83  CG        -5.9080   -5.5430   14.1920 C.ar   97  HIS97       0.0817
     84  ND1       -4.6440   -5.0330   13.9660 N.ar   97  HIS97      -0.2268
     85  CD2       -6.6710   -4.4960   14.5860 C.ar   97  HIS97       0.1154
     86  CE1       -4.6510   -3.7320   14.2090 C.ar   97  HIS97       0.1986
     87  NE2       -5.8670   -3.3830   14.5830 N.ar   97  HIS97      -0.2212
     88  N        -12.0230   -2.7110   14.7230 N.3   120  HIS120     -0.1241
     89  CA       -11.7780   -1.5020   15.4830 C.3   120  HIS120      0.1621
     90  C        -12.4590   -0.3160   14.8150 C.2   120  HIS120      0.2264
     91  O        -12.1290    0.0250   13.6660 O.2   120  HIS120     -0.2867
     92  CB       -10.2630   -1.2340   15.5970 C.3   120  HIS120      0.0745
     93  CG        -9.5620   -2.1810   16.5180 C.ar  120  HIS120      0.0817
     94  ND1       -8.2010   -2.4040   16.4850 N.ar  120  HIS120     -0.2268
     95  CD2      -10.0500   -2.9930   17.4850 C.ar  120  HIS120      0.1154
     96  CE1       -7.8850   -3.3180   17.3860 C.ar  120  HIS120      0.1986
     97  NE2       -8.9870   -3.6910   18.0070 N.ar  120  HIS120     -0.2212
     98  N        -12.6850    3.4250   15.1630 N.3   122  VAL122     -0.1245
     99  CA       -11.9110    4.5110   15.7870 C.3   122  VAL122      0.1561
    100  C        -12.6430    5.8450   15.8160 C.2   122  VAL122      0.2260
    101  O        -13.0930    6.3250   14.7680 O.2   122  VAL122     -0.2867
    102  CB       -10.5890    4.6920   15.0180 C.3   122  VAL122      0.0252
    103  CG1       -9.6650    5.6850   15.7380 C.3   122  VAL122      0.0019
    104  CG2       -9.9150    3.3550   14.8520 C.3   122  VAL122      0.0019
    105  N         -8.3590   14.8560   14.6620 N.3   131  PHE131     -0.1241
    106  CA        -7.7050   13.5980   14.9950 C.3   131  PHE131      0.1605
    107  C         -6.2540   13.7770   15.4070 C.2   131  PHE131      0.2264
    108  O         -5.8160   13.1870   16.3990 O.2   131  PHE131     -0.2867
    109  CB        -7.7810   12.6380   13.8080 C.3   131  PHE131      0.0534
    110  CG        -7.1770   11.2960   14.0740 C.ar  131  PHE131     -0.0203
    111  CD1       -7.8970   10.3150   14.7500 C.ar  131  PHE131     -0.0042
    112  CD2       -5.8900   11.0020   13.6340 C.ar  131  PHE131     -0.0042
    113  CE1       -7.3380    9.0610   14.9740 C.ar  131  PHE131     -0.0003
    114  CE2       -5.3300    9.7520   13.8570 C.ar  131  PHE131     -0.0003
    115  CZ        -6.0540    8.7750   14.5280 C.ar  131  PHE131     -0.0000
    116  N         -4.9460   12.5970   19.2420 N.3   135  VAL135     -0.1245
    117  CA        -4.0170   11.5060   19.5870 C.3   135  VAL135      0.1561
    118  C         -2.9080   11.9120   20.5530 C.2   135  VAL135      0.2260
    119  O         -2.2090   11.0580   21.0850 O.2   135  VAL135     -0.2867
    120  CB        -3.3900   10.8450   18.3290 C.3   135  VAL135      0.0252
    121  CG1       -4.5070   10.2550   17.4830 C.3   135  VAL135      0.0019
    122  CG2       -2.5770   11.8450   17.5250 C.3   135  VAL135      0.0019
    123  N         -8.9210    9.4690   22.0670 N.3   141  LEU141     -0.1245
    124  CA        -9.6100    8.5440   21.2060 C.3   141  LEU141      0.1561
    125  C        -10.4390    7.5420   21.9800 C.2   141  LEU141      0.2260
    126  O        -10.1660    7.2680   23.1510 O.2   141  LEU141     -0.2867
    127  CB        -8.5710    7.7790   20.3570 C.3   141  LEU141      0.0270
    128  CG        -7.6960    8.4910   19.2940 C.3   141  LEU141      0.0019
    129  CD1       -7.0120    7.4300   18.4290 C.3   141  LEU141      0.0001
    130  CD2       -8.5430    9.3990   18.4030 C.3   141  LEU141      0.0001
    131  N        -11.8720    3.7240   20.9910 N.3   143  VAL143     -0.1245
    132  CA       -11.9520    2.6980   19.9650 C.3   143  VAL143      0.1561
    133  C        -12.9010    1.6060   20.4440 C.2   143  VAL143      0.2260
    134  O        -12.7670    1.0870   21.5610 O.2   143  VAL143     -0.2867
    135  CB       -10.5690    2.0980   19.6320 C.3   143  VAL143      0.0252
    136  CG1      -10.6920    1.0800   18.4840 C.3   143  VAL143      0.0019
    137  CG2       -9.6330    3.2040   19.2080 C.3   143  VAL143      0.0019
    138  N         -2.9060    3.0450   21.1240 N.3   198  LEU198     -0.1231
    139  CA        -3.0360    2.5290   19.7780 C.3   198  LEU198      0.1693
    140  C         -2.2780    1.1950   19.8200 C.2   198  LEU198      0.2593
    141  O         -1.2730    1.0640   20.5530 O.2   198  LEU198     -0.2718
    142  CB        -2.3220    3.4430   18.8030 C.3   198  LEU198      0.0284
    143  CG        -2.7630    4.8940   18.8490 C.3   198  LEU198      0.0019
    144  CD1       -1.7750    5.6920   18.0280 C.3   198  LEU198      0.0001
    145  CD2       -4.1910    5.0260   18.3060 C.3   198  LEU198      0.0001
    146  N         -2.7270    0.2160   19.0360 N.am  199  THR199     -0.1939
    147  CA        -2.0560   -1.0860   18.9970 C.3   199  THR199      0.2028
    148  C         -1.0190   -1.1740   17.8790 C.2   199  THR199      0.2643
    149  O         -0.3850   -2.2250   17.6880 O.2   199  THR199     -0.2714
    150  CB        -3.0380   -2.2290   18.8090 C.3   199  THR199      0.1808
    151  OG1       -3.6990   -2.0950   17.5330 O.3   199  THR199     -0.2208
    152  CG2       -4.0460   -2.2600   19.9590 C.3   199  THR199      0.0379
    153  N         -0.8690   -0.0860   17.1290 N.am  200  THR200     -0.1937
    154  CA         0.1660   -0.0150   16.0920 C.3   200  THR200      0.2013
    155  C          1.0010    1.2420   16.3320 C.2   200  THR200      0.2484
    156  O          0.5220    2.2080   16.9270 O.2   200  THR200     -0.2729
    157  CB        -0.3770    0.1440   14.6630 C.3   200  THR200      0.1807
    158  OG1       -0.9650    1.4480   14.5190 O.3   200  THR200     -0.2208
    159  CG2       -1.3760   -0.9400   14.3430 C.3   200  THR200      0.0379
    160  N          2.2670    1.2320   15.8820 N.am  201  PRO201     -0.2715
    161  CA         3.0940    2.4350   16.0730 C.3   201  PRO201      0.1521
    162  C          2.2580    3.6040   15.5300 C.2   201  PRO201      0.2440
    163  O          1.5300    3.4170   14.5410 O.2   201  PRO201     -0.2731
    164  CB         4.3010    2.1410   15.1920 C.3   201  PRO201      0.0310
    165  CG         4.4910    0.6570   15.3680 C.3   201  PRO201      0.0237
    166  CD         3.0590    0.1150   15.3170 C.3   201  PRO201      0.0939
    167  N          2.3950    4.8110   16.0960 N.am  202  PRO202     -0.2727
    168  CA         3.2600    5.2360   17.2000 C.3   202  PRO202      0.1402
    169  C          2.9000    4.7740   18.6160 C.2   202  PRO202      0.2269
    170  O          3.5080    5.2340   19.5860 O.2   202  PRO202     -0.2865
    171  CB         3.2790    6.7500   17.0490 C.3   202  PRO202      0.0296
    172  CG         1.9100    7.0510   16.6340 C.3   202  PRO202      0.0237
    173  CD         1.6340    5.9760   15.5750 C.3   202  PRO202      0.0939
    174  N          0.6580    5.4770   20.6720 N.3   204  LEU204     -0.1245
    175  CA         0.2920    6.5390   21.6020 C.3   204  LEU204      0.1561
    176  C         -0.7430    6.0950   22.6410 C.2   204  LEU204      0.2260
    177  O         -1.7060    5.3810   22.3340 O.2   204  LEU204     -0.2867
    178  CB        -0.2000    7.7690   20.8290 C.3   204  LEU204      0.0270
    179  CG         0.8380    8.3180   19.8230 C.3   204  LEU204      0.0019
    180  CD1        0.1700    9.3830   18.9510 C.3   204  LEU204      0.0001
    181  CD2        2.0500    8.8940   20.5540 C.3   204  LEU204      0.0001
    182  N        -10.4290    2.2220   25.5700 N.3   209  TRP209     -0.1241
    183  CA       -10.8890    1.0200   24.8690 C.3   209  TRP209      0.1605
    184  C        -12.2370    0.5620   25.3940 C.2   209  TRP209      0.2264
    185  O        -12.4650    0.5170   26.6050 O.2   209  TRP209     -0.2867
    186  CB        -9.8670   -0.1360   25.0260 C.3   209  TRP209      0.0550
    187  CG        -8.7520   -0.0420   24.0500 C.ar  209  TRP209      0.0003
    188  CD1       -7.5360    0.5690   24.2280 C.ar  209  TRP209      0.0946
    189  CD2       -8.7980   -0.4400   22.6800 C.ar  209  TRP209      0.0152
    190  NE1       -6.8400    0.5800   23.0410 N.ar  209  TRP209     -0.2442
    191  CE2       -7.5910   -0.0400   22.0790 C.ar  209  TRP209      0.0810
    192  CE3       -9.7660   -1.0960   21.8990 C.ar  209  TRP209      0.0012
    193  CZ2       -7.3140   -0.2780   20.7270 C.ar  209  TRP209      0.0191
    194  CZ3       -9.4930   -1.3320   20.5730 C.ar  209  TRP209      0.0001
    195  CH2       -8.2800   -0.9290   19.9940 C.ar  209  TRP209      0.0015
@<TRIPOS>BOND
     1    25    26    1
     2    26    27    1
     3    26    29    1
     4    27    28    2
     5    46    45    2
     6    29    30    1
     7    45    44    1
     8    43    44    1
     9    33    34    1
    10    30    31    2
    11    30    32   am
    12    44    47    1
    13    47    48    1
    14     4     3    2
    15    34    35    1
    16    34    37    1
    17    35    36    2
    18    48    50   am
    19    48    49    2
    20    42    40   ar
    21    42    41   ar
    22    40    38   ar
    23     1     2    1
    24     3     2    1
    25    41    39   ar
    26    38    39   ar
    27    38    37    1
    28     2     5    1
    29     5     6    1
    30    54    53    2
    31    14    13    2
    32    63    60    1
    33    63    64    1
    34    72    69    1
    35    72    73    1
    36    69    68    1
    37    69    70    1
    38    60    61    1
    39    60    59    1
    40    11    12    1
    41     6     7   ar
    42     6     8   ar
    43    13    12    1
    44    53    59   am
    45    53    52    1
    46    56    58    1
    47    56    55    1
    48    64    65    1
    49     7     9   ar
    50    66    65    2
    51    70    71    2
    52    61    62    2
    53    65    67   am
    54     8    10   ar
    55    12    15    1
    56    22    20   ar
    57    22    24   ar
    58    19    20   ar
    59    19    17   ar
    60    73    74   ar
    61    73    75   ar
    62    52    55    1
    63    52    51    1
    64    20    18   ar
    65    24    23   ar
    66    17    16   ar
    67     9    10   ar
    68    18    16   ar
    69    18    21   ar
    70    55    57    1
    71    23    21   ar
    72    16    15    1
    73    74    76   ar
    74    78    79    1
    75    80    79    1
    76    80    81    2
    77    75    77   ar
    78    79    82    1
    79    76    77   ar
    80   112   114   ar
    81   112   110   ar
    82    91    90    2
    83   109   110    1
    84   109   106    1
    85   114   115   ar
    86    82    83    1
    87    84    83   ar
    88    84    86   ar
    89   110   111   ar
    90    83    85   ar
    91    86    87   ar
    92   159   157    1
    93   158   157    1
    94   115   113   ar
    95   163   162    2
    96    87    85   ar
    97   105   106    1
    98   157   154    1
    99    88    89    1
   100   111   113   ar
   101   101   100    2
   102    90    89    1
   103   104   102    1
   104   106   107    1
   105   102   103    1
   106   102    99    1
   107    98    99    1
   108   164   165    1
   109   164   161    1
   110   166   165    1
   111   166   160    1
   112   107   108    2
   113    89    92    1
   114   162   161    1
   115   162   167   am
   116   173   167    1
   117   173   172    1
   118    92    93    1
   119    99   100    1
   120   160   161    1
   121   160   155   am
   122   154   155    1
   123   154   153    1
   124   167   168    1
   125   155   156    2
   126    94    93   ar
   127    94    96   ar
   128    93    95   ar
   129   172   171    1
   130   171   168    1
   131   153   148   am
   132   168   169    1
   133    96    97   ar
   134   121   120    1
   135    95    97   ar
   136   122   120    1
   137   151   150    1
   138   149   148    2
   139   148   147    1
   140   144   143    1
   141   145   143    1
   142   120   117    1
   143   130   128    1
   144   129   128    1
   145   136   135    1
   146   169   170    2
   147   142   143    1
   148   142   139    1
   149   150   147    1
   150   150   152    1
   151   180   179    1
   152   147   146    1
   153   146   140   am
   154   137   135    1
   155   116   117    1
   156   128   127    1
   157   117   118    1
   158   135   132    1
   159   139   140    1
   160   139   138    1
   161   140   141    2
   162   179   181    1
   163   179   178    1
   164   132   133    1
   165   132   131    1
   166   195   194   ar
   167   195   193   ar
   168   127   124    1
   169   133   134    2
   170   118   119    2
   171   194   192   ar
   172   174   175    1
   173   193   191   ar
   174   178   175    1
   175   124   125    1
   176   124   123    1
   177   175   176    1
   178   192   189   ar
   179   125   126    2
   180   191   189   ar
   181   191   190   ar
   182   177   176    2
   183   189   187   ar
   184   190   188   ar
   185   187   188   ar
   186   187   186    1
   187   183   186    1
   188   183   184    1
   189   183   182    1
   190   184   185    2
