@<TRIPOS>MOLECULE
tmp/5n0lB00.pdb
 117 108 0 0 0
SMALL
GASTEIGER

@<TRIPOS>ATOM
      1  N         -3.5120  -20.0950   -7.2790 N.3    40  ASN40      -0.1240
      2  CA        -2.6210  -19.0260   -6.8650 C.3    40  ASN40       0.1653
      3  C         -1.5330  -19.7050   -6.0720 C.2    40  ASN40       0.2266
      4  O         -1.7820  -20.5000   -5.1990 O.2    40  ASN40      -0.2867
      5  CB        -3.3300  -17.9720   -5.9960 C.3    40  ASN40       0.1155
      6  CG        -4.1640  -16.9890   -6.8290 C.2    40  ASN40       0.2627
      7  OD1       -4.2430  -17.0800   -8.0450 O.2    40  ASN40      -0.2716
      8  ND2       -4.7850  -16.0570   -6.1700 N.am   40  ASN40      -0.0877
      9  N          2.1180  -18.8460   -4.0340 N.3    42  TYR42      -0.1241
     10  CA         3.0460  -17.9010   -3.4760 C.3    42  TYR42       0.1605
     11  C          4.2570  -18.6270   -2.8190 C.2    42  TYR42       0.2264
     12  O          4.0750  -19.4480   -1.9510 O.2    42  TYR42      -0.2867
     13  CB         2.4090  -17.0380   -2.4240 C.3    42  TYR42       0.0534
     14  CG         1.0540  -16.3320   -2.7520 C.ar   42  TYR42      -0.0201
     15  CD1       -0.1230  -17.0370   -2.7130 C.ar   42  TYR42      -0.0009
     16  CD2        1.0610  -15.0560   -3.1410 C.ar   42  TYR42      -0.0009
     17  CE1       -1.3140  -16.3790   -2.9630 C.ar   42  TYR42       0.0417
     18  CE2       -0.0710  -14.3620   -3.4550 C.ar   42  TYR42       0.0417
     19  CZ        -1.2680  -15.0700   -3.3690 C.ar   42  TYR42       0.1957
     20  OH        -2.4560  -14.3920   -3.6060 O.3    42  TYR42      -0.2866
     21  N         -7.2440  -11.6920   -6.5530 N.3    60  ASP60      -0.1239
     22  CA        -7.1680  -12.2090   -5.2000 C.3    60  ASP60       0.1674
     23  C         -5.7430  -12.1070   -4.5560 C.2    60  ASP60       0.2266
     24  O         -5.5040  -12.6000   -3.4180 O.2    60  ASP60      -0.2867
     25  CB        -7.6070  -13.6810   -5.2070 C.3    60  ASP60       0.1410
     26  CG        -9.0830  -13.8640   -5.5560 C.2    60  ASP60       0.3668
     27  OD1       -9.7520  -12.8830   -5.8800 O.co2  60  ASP60      -0.2456
     28  OD2       -9.4760  -15.0650   -5.4590 O.co2  60  ASP60      -0.2456
     29  N         -2.4560  -11.3710   -2.5830 N.3    62  SER62      -0.1217
     30  CA        -2.0280  -10.7110   -1.3380 C.3    62  SER62       0.1889
     31  C         -0.6650  -10.0310   -1.4310 C.2    62  SER62       0.2288
     32  O         -0.1710   -9.5800   -0.3960 O.2    62  SER62      -0.2866
     33  CB        -2.0220  -11.6610   -0.1300 C.3    62  SER62       0.2089
     34  OG        -3.3390  -11.9920    0.2220 O.3    62  SER62      -0.2183
     35  N          4.6960  -10.0490    1.4520 N.3    74  PHE74      -0.1241
     36  CA         3.4670  -10.0910    2.2720 C.3    74  PHE74       0.1605
     37  C          3.5730   -9.0260    3.3040 C.2    74  PHE74       0.2264
     38  O          4.6750   -8.6220    3.7150 O.2    74  PHE74      -0.2867
     39  CB         3.2890  -11.4240    2.9780 C.3    74  PHE74       0.0534
     40  CG         2.6160  -12.5110    2.1500 C.ar   74  PHE74      -0.0203
     41  CD1        2.3000  -12.3530    0.7970 C.ar   74  PHE74      -0.0042
     42  CD2        2.3490  -13.7140    2.7650 C.ar   74  PHE74      -0.0042
     43  CE1        1.7040  -13.3710    0.0820 C.ar   74  PHE74      -0.0003
     44  CE2        1.7050  -14.7390    2.0800 C.ar   74  PHE74      -0.0003
     45  CZ         1.4140  -14.5890    0.7140 C.ar   74  PHE74      -0.0000
     46  N          0.8290  -10.9540    7.6330 N.3    78  TYR78      -0.1241
     47  CA         0.8040  -12.1990    6.8910 C.3    78  TYR78       0.1605
     48  C          2.1480  -12.9620    7.0160 C.2    78  TYR78       0.2264
     49  O          2.1820  -14.1630    7.1700 O.2    78  TYR78      -0.2867
     50  CB         0.3860  -11.9670    5.4400 C.3    78  TYR78       0.0534
     51  CG        -1.1900  -11.8610    5.1860 C.ar   78  TYR78      -0.0201
     52  CD1       -2.0720  -11.3990    6.1270 C.ar   78  TYR78      -0.0009
     53  CD2       -1.6840  -12.2020    3.9310 C.ar   78  TYR78      -0.0009
     54  CE1       -3.4230  -11.3580    5.8460 C.ar   78  TYR78       0.0417
     55  CE2       -3.0710  -12.1340    3.6170 C.ar   78  TYR78       0.0417
     56  CZ        -3.9200  -11.6910    4.5740 C.ar   78  TYR78       0.1957
     57  OH        -5.2910  -11.6220    4.2390 O.3    78  TYR78      -0.2866
     58  N         -5.1030  -15.3490    7.6740 N.3   101  PHE101     -0.1241
     59  CA        -5.2120  -14.3460    6.6490 C.3   101  PHE101      0.1605
     60  C         -6.5280  -13.5130    6.7670 C.2   101  PHE101      0.2264
     61  O         -7.3780  -13.6710    5.9630 O.2   101  PHE101     -0.2867
     62  CB        -5.2010  -14.9960    5.2750 C.3   101  PHE101      0.0534
     63  CG        -4.0030  -15.8940    5.0130 C.ar  101  PHE101     -0.0203
     64  CD1       -2.7530  -15.3700    4.8180 C.ar  101  PHE101     -0.0042
     65  CD2       -4.1540  -17.2470    4.9320 C.ar  101  PHE101     -0.0042
     66  CE1       -1.7000  -16.2080    4.5770 C.ar  101  PHE101     -0.0003
     67  CE2       -3.0890  -18.0840    4.6860 C.ar  101  PHE101     -0.0003
     68  CZ        -1.8700  -17.5460    4.4950 C.ar  101  PHE101     -0.0000
     69  N         -9.0040  -11.5710    3.8760 N.3   104  GLU104     -0.1245
     70  CA        -9.5460  -12.3950    2.8640 C.3   104  GLU104      0.1567
     71  C        -10.9740  -12.2390    3.3140 C.2   104  GLU104      0.2260
     72  O        -11.5530  -13.1550    3.9280 O.2   104  GLU104     -0.2867
     73  CB        -9.1590  -13.8530    3.0810 C.3   104  GLU104      0.0388
     74  CG        -7.7290  -14.2820    2.8290 C.3   104  GLU104      0.1160
     75  CD        -7.0000  -13.4770    1.8330 C.2   104  GLU104      0.3649
     76  OE1       -7.2770  -13.6610    0.6670 O.co2 104  GLU104     -0.2457
     77  OE2       -6.0960  -12.7190    2.2190 O.co2 104  GLU104     -0.2457
     78  N        -13.1980  -13.7340    0.3110 N.3   107  ARG107     -0.1245
     79  CA       -12.7150  -14.9700   -0.3200 C.3   107  ARG107      0.1563
     80  C        -12.8110  -16.1900    0.6520 C.2   107  ARG107      0.2260
     81  O        -11.8850  -17.0120    0.7440 O.2   107  ARG107     -0.2867
     82  CB       -11.2620  -14.7120   -0.8340 C.3   107  ARG107      0.0307
     83  CG       -11.1560  -13.5890   -1.8990 C.3   107  ARG107      0.0489
     84  CD        -9.7380  -13.2660   -2.3970 C.3   107  ARG107      0.2205
     85  NE        -8.7980  -12.6600   -1.4260 N.pl3 107  ARG107     -0.0865
     86  CZ        -8.4010  -11.3830   -1.3930 C.cat 107  ARG107      0.5346
     87  NH1       -7.5340  -10.9720   -0.4580 N.pl3 107  ARG107      0.1354
     88  NH2       -8.8830  -10.4800   -2.2580 N.pl3 107  ARG107      0.1354
     89  N        -12.8820  -20.0580   -0.6320 N.3   110  LYS110     -0.1245
     90  CA       -11.6420  -20.6120   -1.2000 C.3   110  LYS110      0.1561
     91  C        -11.0310  -21.6650   -0.3330 C.2   110  LYS110      0.2260
     92  O        -11.2550  -21.6940    0.8990 O.2   110  LYS110     -0.2867
     93  CB       -10.6030  -19.5110   -1.3190 C.3   110  LYS110      0.0271
     94  CG       -10.9350  -18.5920   -2.4350 C.3   110  LYS110      0.0035
     95  CD        -9.8520  -17.5950   -2.7860 C.3   110  LYS110      0.0206
     96  CE        -8.9510  -18.1770   -3.8620 C.3   110  LYS110      0.1093
     97  NZ        -8.0210  -17.1870   -4.4900 N.3   110  LYS110     -0.1314
     98  N         -7.4860  -23.0650    0.9090 N.3   112  THR112     -0.1218
     99  CA        -6.0680  -22.5490    0.9890 C.3   112  THR112      0.1862
    100  C         -5.1990  -23.5430    1.7600 C.2   112  THR112      0.2287
    101  O         -5.5670  -24.0590    2.8290 O.2   112  THR112     -0.2866
    102  CB        -6.0920  -21.1500    1.6310 C.3   112  THR112      0.1770
    103  OG1       -6.7770  -20.2320    0.7770 O.3   112  THR112     -0.2211
    104  CG2       -4.6950  -20.5830    1.8610 C.3   112  THR112      0.0375
    105  N          2.3340  -21.0800   -0.2690 N.3   128  VAL128     -0.1245
    106  CA         0.8570  -20.8430   -0.0390 C.3   128  VAL128      0.1561
    107  C          0.1610  -21.1580   -1.3510 C.2   128  VAL128      0.2260
    108  O          0.5360  -20.5980   -2.3730 O.2   128  VAL128     -0.2867
    109  CB         0.5470  -19.4030    0.4230 C.3   128  VAL128      0.0252
    110  CG1       -1.0110  -19.2660    0.6490 C.3   128  VAL128      0.0019
    111  CG2        1.2330  -19.0870    1.7090 C.3   128  VAL128      0.0019
    112  N         -3.7790  -21.5510   -3.2470 N.3   130  SER130     -0.1217
    113  CA        -5.2300  -21.2230   -3.0420 C.3   130  SER130      0.1889
    114  C         -6.0100  -21.3880   -4.3070 C.2   130  SER130      0.2288
    115  O         -5.5680  -21.0030   -5.3910 O.2   130  SER130     -0.2866
    116  CB        -5.3580  -19.8070   -2.4810 C.3   130  SER130      0.2089
    117  OG        -6.6810  -19.5400   -2.0700 O.3   130  SER130     -0.2183
@<TRIPOS>BOND
     1     7     6    2
     2     1     2    1
     3     2     3    1
     4     2     5    1
     5     6     8   am
     6     6     5    1
     7    21    22    1
     8     3     4    2
     9    27    26   ar
    10    26    28   ar
    11    26    25    1
    12   115   114    2
    13    25    22    1
    14    22    23    1
    15    23    24    2
    16    97    96    1
    17   114   113    1
    18     9    10    1
    19    96    95    1
    20    20    19    1
    21    10    11    1
    22    10    13    1
    23    18    19   ar
    24    18    16   ar
    25    19    17   ar
    26   112   113    1
    27    16    14   ar
    28   113   116    1
    29    17    15   ar
    30    11    12    2
    31    95    94    1
    32    14    15   ar
    33    14    13    1
    34    29    30    1
    35   116   117    1
    36    94    93    1
    37    84    83    1
    38    84    85    1
    39   108   107    2
    40    88    86    1
    41    83    82    1
    42    31    30    1
    43    31    32    2
    44    85    86    2
    45    86    87    1
    46   107   106    1
    47    30    33    1
    48    93    90    1
    49    90    89    1
    50    90    91    1
    51    82    79    1
    52    91    92    2
    53    79    78    1
    54    79    80    1
    55   105   106    1
    56    33    34    1
    57   106   109    1
    58    43    45   ar
    59    43    41   ar
    60   109   110    1
    61   109   111    1
    62    80    81    2
    63    76    75   ar
    64    45    44   ar
    65   103   102    1
    66    41    40   ar
    67    98    99    1
    68    99   102    1
    69    99   100    1
    70    35    36    1
    71   102   104    1
    72   100   101    2
    73    75    77   ar
    74    75    74    1
    75    44    42   ar
    76    40    42   ar
    77    40    39    1
    78    36    39    1
    79    36    37    1
    80    74    73    1
    81    70    73    1
    82    70    71    1
    83    70    69    1
    84    37    38    2
    85    71    72    2
    86    55    53   ar
    87    55    56   ar
    88    53    51   ar
    89    57    56    1
    90    68    66   ar
    91    68    67   ar
    92    56    54   ar
    93    66    64   ar
    94    67    65   ar
    95    64    63   ar
    96    65    63   ar
    97    63    62    1
    98    51    50    1
    99    51    52   ar
   100    62    59    1
   101    50    47    1
   102    54    52   ar
   103    61    60    2
   104    59    60    1
   105    59    58    1
   106    47    48    1
   107    47    46    1
   108    48    49    2
