@<TRIPOS>MOLECULE
tmp/5n0mA00.pdb
 174 164 0 0 0
SMALL
GASTEIGER

@<TRIPOS>ATOM
      1  N        -30.0330   17.4420  -16.8430 N.3   319  GLN319     -0.1231
      2  CA       -30.8830   16.2320  -16.9340 C.3   319  GLN319      0.1698
      3  C        -30.1630   14.8890  -16.6760 C.2   319  GLN319      0.2592
      4  O        -30.8330   13.8300  -16.5520 O.2   319  GLN319     -0.2718
      5  CB       -31.5870   16.1890  -18.2890 C.3   319  GLN319      0.0381
      6  CG       -30.6810   15.8560  -19.4680 C.3   319  GLN319      0.0905
      7  CD       -31.1770   16.4280  -20.7870 C.2   319  GLN319      0.2608
      8  OE1      -30.7540   17.5020  -21.2020 O.2   319  GLN319     -0.2717
      9  NE2      -32.0650   15.7070  -21.4540 N.am  319  GLN319     -0.0878
     10  N        -28.8250   14.9300  -16.5950 N.am  320  TRP320     -0.1976
     11  CA       -28.0050   13.6940  -16.6010 C.3   320  TRP320      0.1640
     12  C        -27.7920   13.1740  -15.1690 C.2   320  TRP320      0.2290
     13  O        -26.7570   13.3910  -14.5660 O.2   320  TRP320     -0.2864
     14  CB       -26.6930   13.9250  -17.3340 C.3   320  TRP320      0.0576
     15  CG       -26.9080   14.6380  -18.6320 C.ar  320  TRP320      0.0006
     16  CD1      -26.6240   15.9600  -18.9130 C.ar  320  TRP320      0.0946
     17  CD2      -27.5120   14.1020  -19.8140 C.ar  320  TRP320      0.0152
     18  NE1      -27.0060   16.2650  -20.2020 N.ar  320  TRP320     -0.2442
     19  CE2      -27.5510   15.1430  -20.7760 C.ar  320  TRP320      0.0810
     20  CE3      -28.0140   12.8440  -20.1650 C.ar  320  TRP320      0.0012
     21  CZ2      -28.0520   14.9450  -22.0610 C.ar  320  TRP320      0.0191
     22  CZ3      -28.5330   12.6620  -21.4520 C.ar  320  TRP320      0.0001
     23  CH2      -28.5420   13.7080  -22.3750 C.ar  320  TRP320      0.0015
     24  N        -27.4360   10.2730  -14.0310 N.3   322  GLN322     -0.1231
     25  CA       -26.3740    9.2870  -14.0800 C.3   322  GLN322      0.1698
     26  C        -24.9950    9.8330  -13.7480 C.2   322  GLN322      0.2592
     27  O        -24.1790    9.1450  -13.1350 O.2   322  GLN322     -0.2718
     28  CB       -26.3260    8.6750  -15.5060 C.3   322  GLN322      0.0381
     29  CG       -25.2060    7.6580  -15.7920 C.3   322  GLN322      0.0905
     30  CD       -25.2940    6.3850  -14.9840 C.2   322  GLN322      0.2608
     31  OE1      -24.3110    5.6770  -14.8380 O.2   322  GLN322     -0.2717
     32  NE2      -26.4710    6.0670  -14.4940 N.am  322  GLN322     -0.0878
     33  N        -24.7150   11.0290  -14.2140 N.am  323  ASP323     -0.1974
     34  CA       -23.3480   11.4970  -14.2900 C.3   323  ASP323      0.1709
     35  C        -22.8150   12.1190  -13.0230 C.2   323  ASP323      0.2293
     36  O        -21.5930   12.1500  -12.8410 O.2   323  ASP323     -0.2864
     37  CB       -23.2000   12.4790  -15.4430 C.3   323  ASP323      0.1436
     38  CG       -23.2940   11.8050  -16.8080 C.2   323  ASP323      0.3671
     39  OD1      -23.1850   10.5420  -16.8680 O.co2 323  ASP323     -0.2456
     40  OD2      -23.4750   12.5560  -17.8020 O.co2 323  ASP323     -0.2456
     41  N        -17.7130   16.3620  -11.1600 N.3   345  ARG345     -0.1245
     42  CA       -18.3970   16.9800  -12.3080 C.3   345  ARG345      0.1563
     43  C        -18.9630   18.3650  -11.9930 C.2   345  ARG345      0.2260
     44  O        -18.6360   19.3260  -12.6590 O.2   345  ARG345     -0.2867
     45  CB       -19.5380   16.0610  -12.7560 C.3   345  ARG345      0.0307
     46  CG       -20.3100   16.5430  -13.9580 C.3   345  ARG345      0.0489
     47  CD       -21.3190   15.4900  -14.2860 C.3   345  ARG345      0.2205
     48  NE       -22.3050   15.9480  -15.2470 N.pl3 345  ARG345     -0.0865
     49  CZ       -23.5480   16.3280  -14.9520 C.cat 345  ARG345      0.5346
     50  NH1      -24.3390   16.7140  -15.9330 N.pl3 345  ARG345      0.1354
     51  NH2      -24.0210   16.3100  -13.7080 N.pl3 345  ARG345      0.1354
     52  N        -21.9950   20.1110  -12.0910 N.3   347  ARG347     -0.1245
     53  CA       -22.8560   20.8730  -12.9870 C.3   347  ARG347      0.1563
     54  C        -24.2060   21.0670  -12.2700 C.2   347  ARG347      0.2260
     55  O        -24.2790   20.9130  -11.0490 O.2   347  ARG347     -0.2867
     56  CB       -22.9530   20.1600  -14.3540 C.3   347  ARG347      0.0307
     57  CG       -21.7540   20.4620  -15.2220 C.3   347  ARG347      0.0489
     58  CD       -21.6190   19.4580  -16.3430 C.3   347  ARG347      0.2205
     59  NE       -20.4100   19.7440  -17.1280 N.pl3 347  ARG347     -0.0865
     60  CZ       -20.3550   20.0410  -18.4270 C.cat 347  ARG347      0.5346
     61  NH1      -21.4480   20.0690  -19.1850 N.pl3 347  ARG347      0.1354
     62  NH2      -19.1690   20.2770  -18.9970 N.pl3 347  ARG347      0.1354
     63  N        -14.7490   15.1190  -18.9590 N.3   376  GLY376     -0.1225
     64  CA       -15.9640   14.3380  -19.0640 C.3   376  GLY376      0.1811
     65  C        -15.8040   12.9370  -18.4850 C.2   376  GLY376      0.2280
     66  O        -16.7560   12.3470  -18.0040 O.2   376  GLY376     -0.2866
     67  N        -17.3420   11.9300  -15.1240 N.3   379  SER379     -0.1217
     68  CA       -18.7960   11.7370  -14.9650 C.3   379  SER379      0.1889
     69  C        -19.0870   10.2340  -14.7910 C.2   379  SER379      0.2288
     70  O        -18.4100    9.3860  -15.3950 O.2   379  SER379     -0.2866
     71  CB       -19.5160   12.3160  -16.1780 C.3   379  SER379      0.2089
     72  OG       -19.2300   13.7120  -16.3220 O.3   379  SER379     -0.2183
     73  N        -21.4300    8.1130  -15.5550 N.3   381  GLY381     -0.1225
     74  CA       -21.7430    7.2100  -16.6410 C.3   381  GLY381      0.1811
     75  C        -20.4820    6.5440  -17.1620 C.2   381  GLY381      0.2280
     76  O        -20.5790    5.5670  -17.9320 O.2   381  GLY381     -0.2866
     77  N         -7.9300   12.0810  -22.7750 N.3   414  ARG414     -0.1245
     78  CA        -8.5480   12.3190  -21.4710 C.3   414  ARG414      0.1563
     79  C         -8.4490   11.0330  -20.5890 C.2   414  ARG414      0.2260
     80  O         -8.3370    9.8780  -21.0740 O.2   414  ARG414     -0.2867
     81  CB       -10.0330   12.7000  -21.6370 C.3   414  ARG414      0.0307
     82  CG       -10.3220   13.8670  -22.5920 C.3   414  ARG414      0.0489
     83  CD       -11.8030   13.9400  -22.9440 C.3   414  ARG414      0.2205
     84  NE       -12.1810   12.9380  -23.9360 N.pl3 414  ARG414     -0.0865
     85  CZ       -13.4330   12.6300  -24.2780 C.cat 414  ARG414      0.5346
     86  NH1      -14.4430   13.2960  -23.7490 N.pl3 414  ARG414      0.1354
     87  NH2      -13.6790   11.6710  -25.1800 N.pl3 414  ARG414      0.1354
     88  N        -17.1670   10.6420  -28.1420 N.3   441  SER441     -0.1202
     89  CA       -17.1900   12.0550  -27.8640 C.3   441  SER441      0.2020
     90  C        -17.4130   12.3830  -26.3800 C.2   441  SER441      0.2618
     91  O        -16.6920   13.1410  -25.7970 O.2   441  SER441     -0.2717
     92  CB       -18.2620   12.7000  -28.7120 C.3   441  SER441      0.2103
     93  OG       -18.5010   13.9840  -28.1840 O.3   441  SER441     -0.2182
     94  N        -18.4020   11.7690  -25.7750 N.am  442  VAL442     -0.1979
     95  CA       -18.6670   11.9320  -24.3550 C.3   442  VAL442      0.1595
     96  C        -17.6680   11.1060  -23.5090 C.2   442  VAL442      0.2287
     97  O        -17.1710   11.5670  -22.5100 O.2   442  VAL442     -0.2864
     98  CB       -20.1460   11.5110  -24.0770 C.3   442  VAL442      0.0276
     99  CG1      -20.4540   11.3730  -22.5770 C.3   442  VAL442      0.0022
    100  CG2      -21.0660   12.5240  -24.7340 C.3   442  VAL442      0.0022
    101  N        -17.8610    7.6370  -22.2150 N.3   444  HIS444     -0.1241
    102  CA       -18.3040    6.8430  -21.0840 C.3   444  HIS444      0.1621
    103  C        -18.4730    5.3920  -21.4830 C.2   444  HIS444      0.2264
    104  O        -19.0330    5.0810  -22.5500 O.2   444  HIS444     -0.2867
    105  CB       -19.6210    7.3760  -20.5980 C.3   444  HIS444      0.0745
    106  CG       -19.5340    8.7680  -20.0650 C.ar  444  HIS444      0.0817
    107  ND1      -20.5940    9.3820  -19.4400 N.ar  444  HIS444     -0.2268
    108  CD2      -18.5030    9.6480  -20.0130 C.ar  444  HIS444      0.1154
    109  CE1      -20.2240   10.5930  -19.0600 C.ar  444  HIS444      0.1986
    110  NE2      -18.9570   10.7690  -19.3760 N.ar  444  HIS444     -0.2212
    111  N        -20.6230    3.4210  -20.3920 N.3   446  ASP446     -0.1225
    112  CA       -22.0810    3.1200  -20.5420 C.3   446  ASP446      0.1805
    113  C        -22.5770    3.3320  -21.9880 C.2   446  ASP446      0.2597
    114  O        -23.5610    2.7330  -22.4010 O.2   446  ASP446     -0.2718
    115  CB       -22.9600    3.8500  -19.4750 C.3   446  ASP446      0.1424
    116  CG       -23.2250    5.3280  -19.7990 C.2   446  ASP446      0.3668
    117  OD1      -22.6100    5.8740  -20.7590 O.co2 446  ASP446     -0.2456
    118  OD2      -24.0870    5.9600  -19.1040 O.co2 446  ASP446     -0.2456
    119  N        -21.8490    4.1050  -22.7930 N.am  447  GLU447     -0.1979
    120  CA       -22.1890    4.2160  -24.2100 C.3   447  GLU447      0.1602
    121  C        -21.9240    2.9760  -25.0690 C.2   447  GLU447      0.2287
    122  O        -22.3680    2.9340  -26.2200 O.2   447  GLU447     -0.2864
    123  CB       -21.4880    5.3870  -24.8450 C.3   447  GLU447      0.0415
    124  CG       -21.6940    6.7030  -24.1180 C.3   447  GLU447      0.1163
    125  CD       -20.8500    7.7980  -24.7360 C.2   447  GLU447      0.3649
    126  OE1      -21.3350    8.4530  -25.6960 O.co2 447  GLU447     -0.2457
    127  OE2      -19.7090    8.0070  -24.2480 O.co2 447  GLU447     -0.2457
    128  N        -27.5060    1.7790  -23.9420 N.3   561  ASN561     -0.1240
    129  CA       -27.5160    2.7140  -22.8390 C.3   561  ASN561      0.1653
    130  C        -28.9270    2.7010  -22.1920 C.2   561  ASN561      0.2266
    131  O        -29.6620    3.7010  -22.1930 O.2   561  ASN561     -0.2867
    132  CB       -27.1040    4.0740  -23.3980 C.3   561  ASN561      0.1155
    133  CG       -26.9360    5.1100  -22.3320 C.2   561  ASN561      0.2627
    134  OD1      -27.8890    5.8590  -22.0290 O.2   561  ASN561     -0.2716
    135  ND2      -25.7790    5.1150  -21.6910 N.am  561  ASN561     -0.0877
    136  N        -30.6000   13.8900  -28.8260 N.3   611  ILE611     -0.1231
    137  CA       -30.0150   15.0250  -29.5810 C.3   611  ILE611      0.1692
    138  C        -29.1230   15.8710  -28.6740 C.2   611  ILE611      0.2592
    139  O        -28.4010   16.7440  -29.1430 O.2   611  ILE611     -0.2718
    140  CB       -31.0950   15.9090  -30.2990 C.3   611  ILE611      0.0266
    141  CG1      -32.0310   16.6030  -29.2860 C.3   611  ILE611      0.0019
    142  CG2      -31.8610   15.0670  -31.3310 C.3   611  ILE611      0.0020
    143  CD1      -32.8380   17.7650  -29.8420 C.3   611  ILE611      0.0001
    144  N        -29.2160   15.6120  -27.3700 N.am  612  ARG612     -0.1966
    145  CA       -28.2630   16.1030  -26.3810 C.3   612  ARG612      0.1729
    146  C        -27.0780   15.1510  -26.0460 C.2   612  ARG612      0.2616
    147  O        -26.3140   15.4380  -25.1040 O.2   612  ARG612     -0.2715
    148  CB       -29.0000   16.4440  -25.0860 C.3   612  ARG612      0.0348
    149  CG       -30.1930   17.3730  -25.2390 C.3   612  ARG612      0.0492
    150  CD       -29.7740   18.8260  -25.4030 C.3   612  ARG612      0.2205
    151  NE       -30.9570   19.6860  -25.3870 N.pl3 612  ARG612     -0.0865
    152  CZ       -31.6740   20.0160  -24.3080 C.cat 612  ARG612      0.5346
    153  NH1      -31.3480   19.5940  -23.0950 N.pl3 612  ARG612      0.1354
    154  NH2      -32.7400   20.7960  -24.4510 N.pl3 612  ARG612      0.1354
    155  N        -26.9110   14.0660  -26.8130 N.am  613  HIS613     -0.1959
    156  CA       -25.7360   13.1850  -26.7650 C.3   613  HIS613      0.1787
    157  C        -25.7760   12.1870  -25.6150 C.2   613  HIS613      0.2620
    158  O        -24.7380   11.7840  -25.1300 O.2   613  HIS613     -0.2715
    159  CB       -24.3960   13.9660  -26.7020 C.3   613  HIS613      0.0785
    160  CG       -24.2420   15.0190  -27.7470 C.ar  613  HIS613      0.0821
    161  ND1      -24.6160   14.8290  -29.0600 N.ar  613  HIS613     -0.2267
    162  CD2      -23.7240   16.2680  -27.6810 C.ar  613  HIS613      0.1154
    163  CE1      -24.3390   15.9190  -29.7590 C.ar  613  HIS613      0.1986
    164  NE2      -23.7970   16.8070  -28.9450 N.ar  613  HIS613     -0.2212
    165  N        -26.9620   11.7870  -25.1820 N.am  614  GLY614     -0.1954
    166  CA       -27.0940   10.7800  -24.1340 C.3   614  GLY614      0.1869
    167  C        -28.4300   10.0930  -24.3000 C.2   614  GLY614      0.2309
    168  O        -29.2580   10.5740  -25.0680 O.2   614  GLY614     -0.2863
    169  N        -28.2290    7.4690  -19.2700 N.3   618  CYS618     -0.1235
    170  CA       -27.6280    8.7520  -18.8830 C.3   618  CYS618      0.1677
    171  C        -28.5930    9.7040  -18.1210 C.2   618  CYS618      0.2270
    172  O        -28.1360   10.5760  -17.3630 O.2   618  CYS618     -0.2867
    173  CB       -27.1040    9.4830  -20.1070 C.3   618  CYS618      0.0956
    174  SG       -26.1170    8.5250  -21.2820 S.3   618  CYS618     -0.0801
@<TRIPOS>BOND
     1   142   140    1
     2   140   137    1
     3   140   141    1
     4   143   141    1
     5   163   161   ar
     6   163   164   ar
     7   137   136    1
     8   137   138    1
     9   139   138    2
    10   161   160   ar
    11   164   162   ar
    12    92    93    1
    13    92    89    1
    14   138   144   am
    15    88    89    1
    16    89    90    1
    17   160   162   ar
    18   160   159    1
    19   144   145    1
    20   155   156    1
    21   155   146   am
    22   156   159    1
    23   156   157    1
    24   145   146    1
    25   145   148    1
    26    90    91    2
    27    90    94   am
    28   122   121    2
    29   146   147    2
    30    94    95    1
    31   126   125   ar
    32   157   165   am
    33   157   158    2
    34   150   151    1
    35   150   149    1
    36   151   152    2
    37   149   148    1
    38   165   166    1
    39    87    85    1
    40   121   120    1
    41   168   167    2
    42   123   120    1
    43   123   124    1
    44   125   127   ar
    45   125   124    1
    46   100    98    1
    47   154   152    1
    48    95    98    1
    49    95    96    1
    50   152   153    1
    51   167   166    1
    52    85    84    2
    53    85    86    1
    54   120   119    1
    55    98    99    1
    56   128   129    1
    57    84    83    1
    58    96    97    2
    59   132   129    1
    60   132   133    1
    61    83    82    1
    62   129   130    1
    63   119   113   am
    64    77    78    1
    65    82    81    1
    66   104   103    2
    67   114   113    2
    68    23    21   ar
    69    23    22   ar
    70   133   134    2
    71   133   135   am
    72   101   102    1
    73   131   130    2
    74    21    19   ar
    75   113   112    1
    76    81    78    1
    77   103   102    1
    78    78    79    1
    79     9     7   am
    80    22    20   ar
    81   174   173    1
    82     8     7    2
    83   102   105    1
    84    80    79    2
    85     7     6    1
    86    19    18   ar
    87    19    17   ar
    88   117   116   ar
    89   105   106    1
    90   112   111    1
    91   112   115    1
    92    18    16   ar
    93    20    17   ar
    94   173   170    1
    95   106   108   ar
    96   106   107   ar
    97   108   110   ar
    98    17    15   ar
    99   116   115    1
   100   116   118   ar
   101     6     5    1
   102   107   109   ar
   103   110   109   ar
   104   169   170    1
   105    61    60    1
   106    64    63    1
   107    64    65    1
   108    62    60    1
   109    16    15   ar
   110   170   171    1
   111    15    14    1
   112    65    66    2
   113    60    59    2
   114     5     2    1
   115   171   172    2
   116    76    75    2
   117    40    38   ar
   118    14    11    1
   119    75    74    1
   120    59    58    1
   121     2     1    1
   122     2     3    1
   123    39    38   ar
   124    38    37    1
   125     3    10   am
   126     3     4    2
   127    74    73    1
   128    11    10    1
   129    11    12    1
   130    58    57    1
   131    72    71    1
   132    71    68    1
   133    50    49    1
   134    29    28    1
   135    29    30    1
   136    28    25    1
   137    37    34    1
   138    70    69    2
   139    48    49    2
   140    48    47    1
   141    57    56    1
   142    12    13    2
   143    67    68    1
   144    30    31    2
   145    30    32   am
   146    68    69    1
   147    49    51    1
   148    56    53    1
   149    34    33    1
   150    34    35    1
   151    47    46    1
   152    33    26   am
   153    25    24    1
   154    25    26    1
   155    46    45    1
   156    26    27    2
   157    35    36    2
   158    53    54    1
   159    53    52    1
   160    45    42    1
   161    44    43    2
   162    42    43    1
   163    42    41    1
   164    54    55    2
