@<TRIPOS>MOLECULE
tmp/5n0oA01.pdb
 99 95 0 0 0
SMALL
GASTEIGER

@<TRIPOS>ATOM
      1  N         -2.0880   19.4240   91.8810 N.3    58  TYR58      -0.1241
      2  CA        -1.6650   20.5860   91.0660 C.3    58  TYR58       0.1605
      3  C         -2.7430   20.8710   90.0150 C.2    58  TYR58       0.2264
      4  O         -3.4980   19.9740   89.6420 O.2    58  TYR58      -0.2867
      5  CB        -0.3510   20.3190   90.3280 C.3    58  TYR58       0.0534
      6  CG         0.9250   20.2690   91.1550 C.ar   58  TYR58      -0.0201
      7  CD1        1.4930   21.4320   91.6770 C.ar   58  TYR58      -0.0009
      8  CD2        1.6110   19.0650   91.3480 C.ar   58  TYR58      -0.0009
      9  CE1        2.6810   21.3940   92.4040 C.ar   58  TYR58       0.0417
     10  CE2        2.8020   19.0180   92.0650 C.ar   58  TYR58       0.0417
     11  CZ         3.3320   20.1800   92.6000 C.ar   58  TYR58       0.1957
     12  OH         4.5170   20.1190   93.3140 O.3    58  TYR58      -0.2866
     13  N          0.6360   27.2020   93.8860 N.3    64  ARG64      -0.1245
     14  CA         1.3240   26.0400   94.4410 C.3    64  ARG64       0.1563
     15  C          1.1360   25.9540   95.9670 C.2    64  ARG64       0.2260
     16  O          1.0300   24.8550   96.5110 O.2    64  ARG64      -0.2867
     17  CB         2.8030   26.0230   94.0300 C.3    64  ARG64       0.0307
     18  CG         2.9940   25.9490   92.5170 C.3    64  ARG64       0.0489
     19  CD         4.3700   25.4430   92.1310 C.3    64  ARG64       0.2205
     20  NE         5.4620   26.2490   92.6900 N.pl3  64  ARG64      -0.0865
     21  CZ         5.9560   27.3770   92.1610 C.cat  64  ARG64       0.5346
     22  NH1        5.4410   27.9240   91.0590 N.pl3  64  ARG64       0.1354
     23  NH2        6.9800   27.9850   92.7690 N.pl3  64  ARG64       0.1354
     24  N          0.0640   22.7080   98.1510 N.3    68  TYR68      -0.1241
     25  CA         0.8610   22.2150   99.2890 C.3    68  TYR68       0.1605
     26  C          0.0380   22.0390  100.5830 C.2    68  TYR68       0.2264
     27  O          0.2050   21.0580  101.3180 O.2    68  TYR68      -0.2867
     28  CB         2.0620   23.1410   99.5540 C.3    68  TYR68       0.0534
     29  CG         3.0180   23.3700   98.3880 C.ar   68  TYR68      -0.0201
     30  CD1        3.2300   22.4060   97.3880 C.ar   68  TYR68      -0.0009
     31  CD2        3.7370   24.5670   98.3010 C.ar   68  TYR68      -0.0009
     32  CE1        4.1210   22.6410   96.3400 C.ar   68  TYR68       0.0417
     33  CE2        4.6300   24.8030   97.2690 C.ar   68  TYR68       0.0417
     34  CZ         4.8190   23.8500   96.2880 C.ar   68  TYR68       0.1957
     35  OH         5.7140   24.1140   95.2650 O.3    68  TYR68      -0.2866
     36  N         10.1960   12.8810   95.3490 N.3    88  TYR88      -0.1241
     37  CA        11.4130   12.5970   94.5820 C.3    88  TYR88       0.1605
     38  C         12.6230   13.3980   95.1100 C.2    88  TYR88       0.2264
     39  O         12.4830   14.4970   95.6780 O.2    88  TYR88      -0.2867
     40  CB        11.1970   12.7890   93.0730 C.3    88  TYR88       0.0534
     41  CG        11.2140   14.2100   92.5640 C.ar   88  TYR88      -0.0201
     42  CD1       10.0550   14.9930   92.4940 C.ar   88  TYR88      -0.0009
     43  CD2       12.4060   14.7670   92.0990 C.ar   88  TYR88      -0.0009
     44  CE1       10.1000   16.2980   92.0050 C.ar   88  TYR88       0.0417
     45  CE2       12.4600   16.0610   91.6200 C.ar   88  TYR88       0.0417
     46  CZ        11.3180   16.8250   91.5680 C.ar   88  TYR88       0.1957
     47  OH        11.3920   18.1150   91.0630 O.3    88  TYR88      -0.2866
     48  N         14.2270   21.9250   98.8230 N.3    94  PHE94      -0.1241
     49  CA        13.3040   22.6580   97.9510 C.3    94  PHE94       0.1605
     50  C         11.9190   21.9780   97.8680 C.2    94  PHE94       0.2264
     51  O         11.3530   21.8060   96.7810 O.2    94  PHE94      -0.2867
     52  CB        13.9400   22.9490   96.5680 C.3    94  PHE94       0.0534
     53  CG        15.1730   23.8230   96.6280 C.ar   94  PHE94      -0.0203
     54  CD1       16.3990   23.3010   97.0150 C.ar   94  PHE94      -0.0042
     55  CD2       15.1120   25.1770   96.3060 C.ar   94  PHE94      -0.0042
     56  CE1       17.5340   24.1000   97.0970 C.ar   94  PHE94      -0.0003
     57  CE2       16.2440   25.9730   96.3980 C.ar   94  PHE94      -0.0003
     58  CZ        17.4470   25.4410   96.7920 C.ar   94  PHE94      -0.0000
     59  N         15.4050   26.0040   90.4350 N.3   161  GLN161     -0.1245
     60  CA        14.1370   26.6570   90.0060 C.3   161  GLN161      0.1566
     61  C         14.3550   27.8670   89.0740 C.2   161  GLN161      0.2260
     62  O         13.5760   28.8290   89.0740 O.2   161  GLN161     -0.2867
     63  CB        13.2140   26.9270   91.2270 C.3   161  GLN161      0.0367
     64  CG        12.8610   25.6140   91.9360 C.3   161  GLN161      0.0905
     65  CD        11.7930   25.6630   93.0090 C.2   161  GLN161      0.2608
     66  OE1       11.3420   24.5970   93.4710 O.2   161  GLN161     -0.2717
     67  NE2       11.3710   26.8490   93.4050 N.am  161  GLN161     -0.0878
     68  N         11.3290   28.8100   86.5160 N.3   164  CYS164     -0.1235
     69  CA        10.0720   29.4410   86.9490 C.3   164  CYS164      0.1677
     70  C         10.2730   30.7380   87.7540 C.2   164  CYS164      0.2270
     71  O          9.6430   30.9500   88.8030 O.2   164  CYS164     -0.2867
     72  CB         9.2110   28.4250   87.7190 C.3   164  CYS164      0.0956
     73  SG         9.9500   27.6960   89.1990 S.3   164  CYS164     -0.0801
     74  N          1.1620   26.8910   88.4190 N.3   170  PHE170     -0.1241
     75  CA         1.5610   25.6450   87.7810 C.3   170  PHE170      0.1605
     76  C          0.8540   25.5430   86.4250 C.2   170  PHE170      0.2264
     77  O         -0.2110   26.1190   86.2470 O.2   170  PHE170     -0.2867
     78  CB         1.1470   24.4750   88.6970 C.3   170  PHE170      0.0534
     79  CG         1.4100   23.1050   88.1250 C.ar  170  PHE170     -0.0203
     80  CD1        0.4430   22.4660   87.3510 C.ar  170  PHE170     -0.0042
     81  CD2        2.6060   22.4440   88.3710 C.ar  170  PHE170     -0.0042
     82  CE1        0.6750   21.2080   86.8190 C.ar  170  PHE170     -0.0003
     83  CE2        2.8390   21.1760   87.8470 C.ar  170  PHE170     -0.0003
     84  CZ         1.8710   20.5620   87.0720 C.ar  170  PHE170     -0.0000
     85  N          6.0540   25.8400   82.2550 N.3   175  PHE175     -0.1241
     86  CA         6.0200   27.2610   82.6080 C.3   175  PHE175      0.1605
     87  C          6.2800   28.1430   81.3860 C.2   175  PHE175      0.2264
     88  O          7.0600   27.7710   80.4990 O.2   175  PHE175     -0.2867
     89  CB         7.0860   27.5790   83.6610 C.3   175  PHE175      0.0534
     90  CG         6.9260   26.8280   84.9540 C.ar  175  PHE175     -0.0203
     91  CD1        5.9340   27.1830   85.8590 C.ar  175  PHE175     -0.0042
     92  CD2        7.7860   25.7810   85.2830 C.ar  175  PHE175     -0.0042
     93  CE1        5.7880   26.5000   87.0600 C.ar  175  PHE175     -0.0003
     94  CE2        7.6480   25.0940   86.4840 C.ar  175  PHE175     -0.0003
     95  CZ         6.6450   25.4560   87.3750 C.ar  175  PHE175     -0.0000
     96  N         11.4550   22.8760   83.9080 N.3   229  GLY229     -0.1225
     97  CA        11.1220   22.5940   85.3010 C.3   229  GLY229      0.1811
     98  C         12.0710   21.6990   86.0810 C.2   229  GLY229      0.2280
     99  O         11.9790   21.6390   87.3160 O.2   229  GLY229     -0.2866
@<TRIPOS>BOND
     1    88    87    2
     2    87    86    1
     3    85    86    1
     4    86    89    1
     5    89    90    1
     6    96    97    1
     7    90    92   ar
     8    90    91   ar
     9    92    94   ar
    10    97    98    1
    11    91    93   ar
    12    98    99    2
    13    77    76    2
    14    76    75    1
    15    94    95   ar
    16    68    69    1
    17    82    84   ar
    18    82    80   ar
    19    69    72    1
    20    69    70    1
    21    93    95   ar
    22    84    83   ar
    23    80    79   ar
    24    72    73    1
    25    70    71    2
    26    75    74    1
    27    75    78    1
    28    83    81   ar
    29    79    81   ar
    30    79    78    1
    31    61    62    2
    32    61    60    1
    33     4     3    2
    34    60    59    1
    35    60    63    1
    36     3     2    1
    37     5     2    1
    38     5     6    1
    39    22    21    1
    40    47    46    1
    41     2     1    1
    42     6     8   ar
    43     6     7   ar
    44    63    64    1
    45     8    10   ar
    46    46    45   ar
    47    46    44   ar
    48    45    43   ar
    49     7     9   ar
    50    64    65    1
    51    44    42   ar
    52    10    11   ar
    53    43    41   ar
    54    19    18    1
    55    19    20    1
    56    21    20    2
    57    21    23    1
    58     9    11   ar
    59    42    41   ar
    60    18    17    1
    61    41    40    1
    62    11    12    1
    63    65    67   am
    64    65    66    2
    65    40    37    1
    66    13    14    1
    67    17    14    1
    68    14    15    1
    69    37    38    1
    70    37    36    1
    71    38    39    2
    72    35    34    1
    73    15    16    2
    74    34    32   ar
    75    34    33   ar
    76    55    57   ar
    77    55    53   ar
    78    32    30   ar
    79    57    58   ar
    80    52    53    1
    81    52    49    1
    82    53    54   ar
    83    51    50    2
    84    58    56   ar
    85    54    56   ar
    86    33    31   ar
    87    30    29   ar
    88    50    49    1
    89    49    48    1
    90    24    25    1
    91    31    29   ar
    92    29    28    1
    93    25    28    1
    94    25    26    1
    95    26    27    2
