@<TRIPOS>MOLECULE
tmp/5n0sB00.pdb
 140 136 0 0 0
SMALL
GASTEIGER

@<TRIPOS>ATOM
      1  N        197.2980   87.2480  100.8580 N.3    13  ILE13      -0.1245
      2  CA       196.7690   86.5270   99.6870 C.3    13  ILE13       0.1561
      3  C        197.7700   86.4870   98.5380 C.2    13  ILE13       0.2260
      4  O        197.9790   85.4280   97.9240 O.2    13  ILE13      -0.2867
      5  CB       195.4390   87.1500   99.2240 C.3    13  ILE13       0.0252
      6  CG1      194.3950   87.0720  100.3560 C.3    13  ILE13       0.0019
      7  CG2      194.9300   86.4740   97.9540 C.3    13  ILE13       0.0019
      8  CD1      193.9310   85.6750  100.7420 C.3    13  ILE13       0.0001
      9  N        196.8030   80.9890  104.9800 N.3    92  ALA92      -0.1231
     10  CA       196.6900   82.0360  103.9700 C.3    92  ALA92       0.1694
     11  C        195.7650   83.1600  104.4650 C.2    92  ALA92       0.2593
     12  O        194.8340   82.9330  105.2390 O.2    92  ALA92      -0.2718
     13  CB       196.1830   81.4760  102.6500 C.3    92  ALA92       0.0304
     14  N        196.0590   84.3710  104.0160 N.am   93  GLY93      -0.1942
     15  CA       195.2040   85.5230  104.2460 C.3    93  GLY93       0.2014
     16  C        195.3220   86.0290  105.6670 C.2    93  GLY93       0.2638
     17  O        196.4380   86.2340  106.1750 O.2    93  GLY93      -0.2714
     18  N        194.1590   86.2460  106.2800 N.am   94  HIS94      -0.1973
     19  CA       193.9750   86.4570  107.7070 C.3    94  HIS94       0.1656
     20  C        193.6240   85.0400  108.2160 C.2    94  HIS94       0.2291
     21  O        192.6930   84.4070  107.6980 O.2    94  HIS94      -0.2864
     22  CB       192.7920   87.4100  107.8870 C.3    94  HIS94       0.0771
     23  CG       192.4690   87.7840  109.2960 C.ar   94  HIS94       0.0820
     24  ND1      192.2570   86.8590  110.3000 N.ar   94  HIS94      -0.2267
     25  CD2      192.1950   88.9950  109.8350 C.ar   94  HIS94       0.1154
     26  CE1      191.9340   87.4960  111.4120 C.ar   94  HIS94       0.1986
     27  NE2      191.8620   88.7920  111.1480 N.ar   94  HIS94      -0.2212
     28  N        189.8780   84.2910  109.1870 N.3    97  VAL97      -0.1231
     29  CA       188.8240   84.6930  108.2600 C.3    97  VAL97       0.1692
     30  C        188.5610   83.5140  107.3270 C.2    97  VAL97       0.2592
     31  O        189.4100   83.1710  106.5110 O.2    97  VAL97      -0.2718
     32  CB       189.2380   85.9760  107.5110 C.3    97  VAL97       0.0266
     33  CG1      188.3150   86.3120  106.3590 C.3    97  VAL97       0.0020
     34  CG2      189.2680   87.1610  108.4820 C.3    97  VAL97       0.0020
     35  N        187.3880   82.8940  107.4740 N.am   98  PHE98      -0.1962
     36  CA       186.9990   81.6860  106.7270 C.3    98  PHE98       0.1771
     37  C        188.0180   80.5400  106.9090 C.2    98  PHE98       0.2619
     38  O        188.4940   79.9680  105.9390 O.2    98  PHE98      -0.2715
     39  CB       186.7680   82.0210  105.2370 C.3    98  PHE98       0.0574
     40  CG       185.5580   82.8880  104.9770 C.ar   98  PHE98      -0.0200
     41  CD1      185.5550   84.2320  105.3140 C.ar   98  PHE98      -0.0042
     42  CD2      184.4080   82.3530  104.3990 C.ar   98  PHE98      -0.0042
     43  CE1      184.4250   85.0390  105.0990 C.ar   98  PHE98      -0.0003
     44  CE2      183.2910   83.1480  104.1910 C.ar   98  PHE98      -0.0003
     45  CZ       183.2830   84.4800  104.5520 C.ar   98  PHE98      -0.0000
     46  N        188.3510   80.2290  108.1610 N.am   99  VAL99      -0.1977
     47  CA       189.3010   79.1530  108.4870 C.3    99  VAL99       0.1596
     48  C        188.7580   78.4210  109.6980 C.2    99  VAL99       0.2287
     49  O        188.4070   79.0610  110.6760 O.2    99  VAL99      -0.2864
     50  CB       190.7100   79.7000  108.8370 C.3    99  VAL99       0.0276
     51  CG1      191.6890   78.5690  109.1290 C.3    99  VAL99       0.0022
     52  CG2      191.2530   80.5790  107.7220 C.3    99  VAL99       0.0022
     53  N        193.1010   89.7830  104.3630 N.3   123  SER123     -0.1202
     54  CA       192.1850   88.7820  103.8390 C.3   123  SER123      0.2020
     55  C        191.8860   89.0290  102.3790 C.2   123  SER123      0.2618
     56  O        192.2190   90.0980  101.8130 O.2   123  SER123     -0.2717
     57  CB       190.8650   88.8360  104.6170 C.3   123  SER123      0.2103
     58  OG       190.1560   90.0190  104.2800 O.3   123  SER123     -0.2182
     59  N        191.2040   88.0610  101.7720 N.am  124  ALA124     -0.1979
     60  CA       190.7430   88.2100  100.3880 C.3   124  ALA124      0.1597
     61  C        189.7170   89.3350  100.2450 C.2   124  ALA124      0.2287
     62  O        189.6080   89.9590   99.1690 O.2   124  ALA124     -0.2864
     63  CB       190.1770   86.9020   99.8680 C.3   124  ALA124      0.0319
     64  N        182.0690   84.6180   99.6800 N.3   165  PHE165     -0.1227
     65  CA       183.2090   83.7190   99.5910 C.3   165  PHE165      0.1736
     66  C        182.7240   82.3160   99.2220 C.2   165  PHE165      0.2595
     67  O        181.5780   81.9660   99.4840 O.2   165  PHE165     -0.2718
     68  CB       183.9010   83.5850  100.9370 C.3   165  PHE165      0.0547
     69  CG       184.8030   84.7230  101.3240 C.ar  165  PHE165     -0.0202
     70  CD1      184.3160   86.0160  101.4980 C.ar  165  PHE165     -0.0042
     71  CD2      186.1490   84.4670  101.6470 C.ar  165  PHE165     -0.0042
     72  CE1      185.1710   87.0530  101.9140 C.ar  165  PHE165     -0.0003
     73  CE2      186.9950   85.4860  102.0710 C.ar  165  PHE165     -0.0003
     74  CZ       186.5070   86.7850  102.1990 C.ar  165  PHE165     -0.0000
     75  N        183.6290   81.5210   98.6450 N.am  166  GLN166     -0.1979
     76  CA       183.4000   80.0920   98.3580 C.3   166  GLN166      0.1601
     77  C        182.2510   79.8350   97.4000 C.2   166  GLN166      0.2287
     78  O        181.5280   78.8230   97.4920 O.2   166  GLN166     -0.2864
     79  CB       183.2650   79.2860   99.6550 C.3   166  GLN166      0.0394
     80  CG       184.4290   79.5670  100.5760 C.3   166  GLN166      0.0908
     81  CD       184.6640   78.5620  101.6720 C.2   166  GLN166      0.2608
     82  OE1      185.7700   78.5230  102.2070 O.2   166  GLN166     -0.2717
     83  NE2      183.6420   77.7940  102.0560 N.am  166  GLN166     -0.0878
     84  N        185.6700   88.1610   91.2950 N.3   205  TYR205     -0.1227
     85  CA       186.9390   88.6680   91.7840 C.3   205  TYR205      0.1736
     86  C        187.8970   87.5520   92.1590 C.2   205  TYR205      0.2595
     87  O        187.5540   86.6720   92.9540 O.2   205  TYR205     -0.2718
     88  CB       186.7350   89.5600   93.0030 C.3   205  TYR205      0.0548
     89  CG       188.0360   90.0410   93.5910 C.ar  205  TYR205     -0.0200
     90  CD1      188.8590   90.8960   92.8700 C.ar  205  TYR205     -0.0009
     91  CD2      188.4710   89.6100   94.8420 C.ar  205  TYR205     -0.0009
     92  CE1      190.0830   91.3140   93.3770 C.ar  205  TYR205      0.0417
     93  CE2      189.6820   90.0480   95.3680 C.ar  205  TYR205      0.0417
     94  CZ       190.4800   90.9030   94.6280 C.ar  205  TYR205      0.1957
     95  OH       191.6730   91.3470   95.1290 O.3   205  TYR205     -0.2866
     96  N        189.1020   87.6150   91.5950 N.am  206  ILE206     -0.1966
     97  CA       190.2200   86.7810   92.0140 C.3   206  ILE206      0.1727
     98  C        191.4600   87.6620   92.1590 C.2   206  ILE206      0.2616
     99  O        191.9780   88.1860   91.1530 O.2   206  ILE206     -0.2715
    100  CB       190.5470   85.6470   91.0150 C.3   206  ILE206      0.0290
    101  CG1      189.3020   84.8060   90.6960 C.3   206  ILE206      0.0022
    102  CG2      191.6760   84.7730   91.5730 C.3   206  ILE206      0.0023
    103  CD1      189.5420   83.7860   89.6070 C.3   206  ILE206      0.0001
    104  N        191.9200   87.8350   93.3950 N.am  207  ALA207     -0.1977
    105  CA       193.1540   88.5540   93.6530 C.3   207  ALA207      0.1597
    106  C        194.3120   87.8060   92.9840 C.2   207  ALA207      0.2287
    107  O        194.3530   86.5670   92.9920 O.2   207  ALA207     -0.2864
    108  CB       193.4160   88.6800   95.1540 C.3   207  ALA207      0.0319
    109  N        197.7330   86.1590   92.7340 N.3   209  MET209     -0.1245
    110  CA       198.5060   85.4330   93.7430 C.3   209  MET209      0.1570
    111  C        200.0150   85.4530   93.5090 C.2   209  MET209      0.2261
    112  O        200.7800   85.3950   94.4860 O.2   209  MET209     -0.2867
    113  CB       197.9060   84.0370   93.9460 C.3   209  MET209      0.0387
    114  CG       196.6610   84.1760   94.8290 C.3   209  MET209      0.0595
    115  SD       195.6190   82.7550   95.1190 S.3   209  MET209     -0.1393
    116  CE       195.3700   82.0980   93.4790 C.3   209  MET209      0.0692
    117  N        187.9520   77.6880   93.0740 N.3   236  GLY236     -0.1210
    118  CA       188.1890   77.6320   94.5010 C.3   236  GLY236      0.1956
    119  C        188.7200   78.9050   95.1320 C.2   236  GLY236      0.2612
    120  O        188.6010   79.0700   96.3520 O.2   236  GLY236     -0.2717
    121  N        189.3110   79.7970   94.3320 N.am  237  VAL237     -0.1965
    122  CA       189.7790   81.0980   94.8450 C.3   237  VAL237      0.1727
    123  C        188.9130   82.2690   94.3680 C.2   237  VAL237      0.2617
    124  O        189.3380   83.4130   94.4410 O.2   237  VAL237     -0.2715
    125  CB       191.2880   81.3780   94.5550 C.3   237  VAL237      0.0290
    126  CG1      192.1590   80.5470   95.4930 C.3   237  VAL237      0.0023
    127  CG2      191.6530   81.1640   93.0950 C.3   237  VAL237      0.0023
    128  N        187.7060   81.9760   93.8930 N.am  238  SER238     -0.1936
    129  CA       186.7870   83.0020   93.4190 C.3   238  SER238      0.2055
    130  C        185.9430   83.5560   94.5720 C.2   238  SER238      0.2643
    131  O        185.4570   82.8040   95.4240 O.2   238  SER238     -0.2714
    132  CB       185.8420   82.4350   92.3590 C.3   238  SER238      0.2130
    133  OG       186.5380   82.0310   91.1890 O.3   238  SER238     -0.2179
    134  N        185.7540   84.8680   94.5490 N.am  239  THR239     -0.1950
    135  CA       184.8380   85.5770   95.4120 C.3   239  THR239      0.1897
    136  C        183.9260   86.4290   94.5160 C.2   239  THR239      0.2313
    137  O        184.3540   86.9010   93.4650 O.2   239  THR239     -0.2863
    138  CB       185.6370   86.4430   96.4090 C.3   239  THR239      0.1794
    139  OG1      186.3970   85.5890   97.2920 O.3   239  THR239     -0.2208
    140  CG2      184.7210   87.3130   97.2490 C.3   239  THR239      0.0378
@<TRIPOS>BOND
     1   103   101    1
     2   101   100    1
     3   100   102    1
     4   100    97    1
     5    99    98    2
     6   133   132    1
     7    84    85    1
     8    96    97    1
     9    96    86   am
    10    85    86    1
    11    85    88    1
    12    97    98    1
    13    98   104   am
    14    86    87    2
    15   132   129    1
    16   109   110    1
    17    90    92   ar
    18    90    89   ar
    19   106   107    2
    20   106   105    1
    21    88    89    1
    22   117   118    1
    23   127   125    1
    24    92    94   ar
    25   104   105    1
    26   129   128    1
    27   129   130    1
    28   137   136    2
    29   116   115    1
    30   111   110    1
    31   111   112    2
    32    89    91   ar
    33   105   108    1
    34   110   113    1
    35   128   123   am
    36   113   114    1
    37   121   122    1
    38   121   119   am
    39   123   124    2
    40   123   122    1
    41   118   119    1
    42   136   135    1
    43   134   130   am
    44   134   135    1
    45   125   122    1
    46   125   126    1
    47   130   131    2
    48    94    95    1
    49    94    93   ar
    50   114   115    1
    51    91    93   ar
    52   119   120    2
    53   135   138    1
    54   138   140    1
    55   138   139    1
    56    77    78    2
    57    77    76    1
    58     4     3    2
    59     7     5    1
    60    76    75    1
    61    76    79    1
    62     3     2    1
    63    75    66   am
    64    62    61    2
    65    66    67    2
    66    66    65    1
    67     5     2    1
    68     5     6    1
    69    65    64    1
    70    65    68    1
    71    79    80    1
    72     2     1    1
    73    63    60    1
    74    61    60    1
    75     6     8    1
    76    60    59    1
    77    80    81    1
    78    68    69    1
    79    69    70   ar
    80    69    71   ar
    81    70    72   ar
    82    71    73   ar
    83    81    83   am
    84    81    82    2
    85    59    55   am
    86    56    55    2
    87    72    74   ar
    88    73    74   ar
    89    55    54    1
    90    13    10    1
    91    54    53    1
    92    54    57    1
    93    10    11    1
    94    10     9    1
    95    14    15    1
    96    14    11   am
    97    44    42   ar
    98    44    45   ar
    99    15    16    1
   100    58    57    1
   101    42    40   ar
   102    11    12    2
   103    45    43   ar
   104    40    39    1
   105    40    41   ar
   106    43    41   ar
   107    39    36    1
   108    16    17    2
   109    16    18   am
   110    38    37    2
   111    18    19    1
   112    33    32    1
   113    31    30    2
   114    36    37    1
   115    36    35    1
   116    37    46   am
   117    30    35   am
   118    30    29    1
   119    32    29    1
   120    32    34    1
   121    21    20    2
   122    19    22    1
   123    19    20    1
   124    52    50    1
   125    22    23    1
   126    46    47    1
   127    29    28    1
   128    47    50    1
   129    47    48    1
   130    50    51    1
   131    23    25   ar
   132    23    24   ar
   133    48    49    2
   134    25    27   ar
   135    24    26   ar
   136    27    26   ar
