@<TRIPOS>MOLECULE
tmp/5n0zA00.pdb
 204 193 0 0 0
SMALL
GASTEIGER

@<TRIPOS>ATOM
      1  N        -37.5920   18.2610  -16.6000 N.3   288  ILE288     -0.1245
      2  CA       -37.2650   19.5190  -17.2770 C.3   288  ILE288      0.1561
      3  C        -38.3460   19.8210  -18.3110 C.2   288  ILE288      0.2260
      4  O        -39.3600   19.1250  -18.3560 O.2   288  ILE288     -0.2867
      5  CB       -35.8520   19.4820  -17.9130 C.3   288  ILE288      0.0252
      6  CG1      -35.7150   18.3640  -18.9730 C.3   288  ILE288      0.0019
      7  CG2      -34.8020   19.3410  -16.8240 C.3   288  ILE288      0.0019
      8  CD1      -34.5830   18.5970  -19.9610 C.3   288  ILE288      0.0001
      9  N        -31.2180   22.8880  -15.0470 N.3   319  ASP319     -0.1225
     10  CA       -31.0870   22.4500  -16.4570 C.3   319  ASP319      0.1805
     11  C        -30.3160   21.1390  -16.6350 C.2   319  ASP319      0.2598
     12  O        -30.2230   20.6350  -17.7600 O.2   319  ASP319     -0.2718
     13  CB       -30.4370   23.5350  -17.3870 C.3   319  ASP319      0.1424
     14  CG       -31.4530   24.3830  -18.1380 C.2   319  ASP319      0.3668
     15  OD1      -32.6450   24.3900  -17.7700 O.co2 319  ASP319     -0.2456
     16  OD2      -31.0380   25.0480  -19.1220 O.co2 319  ASP319     -0.2456
     17  N        -29.7640   20.5870  -15.5540 N.am  320  ASP320     -0.1960
     18  CA       -28.9210   19.3950  -15.6240 C.3   320  ASP320      0.1840
     19  C        -29.7990   18.1400  -15.5640 C.2   320  ASP320      0.2622
     20  O        -30.3140   17.7770  -14.4950 O.2   320  ASP320     -0.2715
     21  CB       -27.9050   19.4310  -14.4750 C.3   320  ASP320      0.1450
     22  CG       -26.8190   18.3530  -14.5820 C.2   320  ASP320      0.3671
     23  OD1      -26.9430   17.4030  -15.4020 O.co2 320  ASP320     -0.2456
     24  OD2      -25.8350   18.4690  -13.8200 O.co2 320  ASP320     -0.2456
     25  N        -29.9560   17.4790  -16.7130 N.am  321  GLN321     -0.1963
     26  CA       -30.8730   16.3360  -16.8360 C.3   321  GLN321      0.1733
     27  C        -30.1830   14.9960  -16.6170 C.2   321  GLN321      0.2616
     28  O        -30.8770   13.9390  -16.5230 O.2   321  GLN321     -0.2715
     29  CB       -31.5690   16.3500  -18.2010 C.3   321  GLN321      0.0408
     30  CG       -30.7230   15.8580  -19.3670 C.3   321  GLN321      0.0908
     31  CD       -31.1440   16.4460  -20.7040 C.2   321  GLN321      0.2608
     32  OE1      -30.9550   17.6350  -20.9730 O.2   321  GLN321     -0.2717
     33  NE2      -31.7070   15.6070  -21.5540 N.am  321  GLN321     -0.0878
     34  N        -28.8410   15.0520  -16.5300 N.am  322  TRP322     -0.1974
     35  CA       -27.9800   13.8530  -16.5400 C.3   322  TRP322      0.1640
     36  C        -27.7380   13.3170  -15.1320 C.2   322  TRP322      0.2290
     37  O        -26.6600   13.4790  -14.5870 O.2   322  TRP322     -0.2864
     38  CB       -26.6520   14.1370  -17.2550 C.3   322  TRP322      0.0576
     39  CG       -26.8700   14.7710  -18.5820 C.ar  322  TRP322      0.0006
     40  CD1      -26.6090   16.0640  -18.9230 C.ar  322  TRP322      0.0946
     41  CD2      -27.4570   14.1590  -19.7400 C.ar  322  TRP322      0.0152
     42  NE1      -26.9810   16.2980  -20.2330 N.ar  322  TRP322     -0.2442
     43  CE2      -27.4970   15.1420  -20.7590 C.ar  322  TRP322      0.0810
     44  CE3      -27.9280   12.8710  -20.0270 C.ar  322  TRP322      0.0012
     45  CZ2      -27.9940   14.8730  -22.0450 C.ar  322  TRP322      0.0191
     46  CZ3      -28.4290   12.6070  -21.3030 C.ar  322  TRP322      0.0001
     47  CH2      -28.4590   13.6070  -22.2970 C.ar  322  TRP322      0.0015
     48  N        -27.3010   10.3430  -14.1650 N.3   324  GLN324     -0.1231
     49  CA       -26.2610    9.3210  -14.1800 C.3   324  GLN324      0.1698
     50  C        -24.9010    9.8700  -13.7950 C.2   324  GLN324      0.2592
     51  O        -24.1150    9.2030  -13.1540 O.2   324  GLN324     -0.2718
     52  CB       -26.1410    8.7040  -15.5840 C.3   324  GLN324      0.0381
     53  CG       -25.0010    7.6910  -15.7980 C.3   324  GLN324      0.0905
     54  CD       -25.1180    6.4170  -14.9710 C.2   324  GLN324      0.2608
     55  OE1      -24.1420    5.7200  -14.7810 O.2   324  GLN324     -0.2717
     56  NE2      -26.3070    6.0950  -14.5070 N.am  324  GLN324     -0.0878
     57  N        -24.6230   11.0800  -14.2190 N.am  325  ASP325     -0.1974
     58  CA       -23.2680   11.5350  -14.2740 C.3   325  ASP325      0.1709
     59  C        -22.7560   12.1660  -13.0080 C.2   325  ASP325      0.2293
     60  O        -21.5560   12.1460  -12.7990 O.2   325  ASP325     -0.2864
     61  CB       -23.1020   12.4980  -15.4430 C.3   325  ASP325      0.1436
     62  CG       -23.2810   11.8210  -16.7830 C.2   325  ASP325      0.3671
     63  OD1      -23.1980   10.5570  -16.8530 O.co2 325  ASP325     -0.2456
     64  OD2      -23.4960   12.5730  -17.7670 O.co2 325  ASP325     -0.2456
     65  N        -17.7270   16.3670  -11.0120 N.3   347  ARG347     -0.1245
     66  CA       -18.3260   16.9480  -12.2110 C.3   347  ARG347      0.1563
     67  C        -18.8520   18.3490  -11.9200 C.2   347  ARG347      0.2260
     68  O        -18.4630   19.2970  -12.5990 O.2   347  ARG347     -0.2867
     69  CB       -19.4420   16.0230  -12.7280 C.3   347  ARG347      0.0307
     70  CG       -20.1250   16.4030  -14.0360 C.3   347  ARG347      0.0489
     71  CD       -21.2010   15.3690  -14.3250 C.3   347  ARG347      0.2205
     72  NE       -22.2350   15.7590  -15.3070 N.pl3 347  ARG347     -0.0865
     73  CZ       -23.4920   16.1420  -15.0250 C.cat 347  ARG347      0.5346
     74  NH1      -24.3190   16.4350  -16.0130 N.pl3 347  ARG347      0.1354
     75  NH2      -23.9380   16.2480  -13.7760 N.pl3 347  ARG347      0.1354
     76  N        -21.7480   20.1610  -12.1700 N.3   349  ARG349     -0.1245
     77  CA       -22.6480   20.9400  -13.0180 C.3   349  ARG349      0.1563
     78  C        -23.9280   21.2370  -12.2410 C.2   349  ARG349      0.2260
     79  O        -23.9320   21.1870  -10.9960 O.2   349  ARG349     -0.2867
     80  CB       -22.9150   20.1900  -14.3250 C.3   349  ARG349      0.0307
     81  CG       -21.6610   20.0440  -15.1410 C.3   349  ARG349      0.0489
     82  CD       -21.9450   19.8910  -16.6160 C.3   349  ARG349      0.2205
     83  NE       -20.7210   20.1640  -17.3640 N.pl3 349  ARG349     -0.0865
     84  CZ       -20.6550   20.3820  -18.6760 C.cat 349  ARG349      0.5346
     85  NH1      -19.4700   20.6270  -19.2360 N.pl3 349  ARG349      0.1354
     86  NH2      -21.7500   20.3450  -19.4380 N.pl3 349  ARG349      0.1354
     87  N        -12.6270   16.4360  -16.2000 N.3   377  SER377     -0.1202
     88  CA       -12.9310   16.1210  -17.5890 C.3   377  SER377      0.2020
     89  C        -14.1860   15.2730  -17.6610 C.2   377  SER377      0.2619
     90  O        -14.6700   14.7600  -16.6460 O.2   377  SER377     -0.2717
     91  CB       -11.7440   15.4130  -18.2710 C.3   377  SER377      0.2103
     92  OG       -11.7030   14.0240  -17.9850 O.3   377  SER377     -0.2182
     93  N        -14.7070   15.1160  -18.8690 N.am  378  GLY378     -0.1956
     94  CA       -15.9370   14.3640  -19.0600 C.3   378  GLY378      0.1869
     95  C        -15.8260   12.9540  -18.5240 C.2   378  GLY378      0.2309
     96  O        -16.7740   12.3980  -17.9510 O.2   378  GLY378     -0.2863
     97  N        -17.2880   11.9010  -15.1480 N.3   381  SER381     -0.1217
     98  CA       -18.7240   11.7180  -14.9680 C.3   381  SER381      0.1889
     99  C        -19.0340   10.2570  -14.7460 C.2   381  SER381      0.2288
    100  O        -18.4310    9.3870  -15.3370 O.2   381  SER381     -0.2866
    101  CB       -19.4760   12.2040  -16.2040 C.3   381  SER381      0.2089
    102  OG       -19.3420   13.5990  -16.3500 O.3   381  SER381     -0.2183
    103  N        -21.3080    8.2780  -15.5710 N.3   383  GLY383     -0.1225
    104  CA       -21.6680    7.4170  -16.6580 C.3   383  GLY383      0.1811
    105  C        -20.4570    6.6350  -17.1070 C.2   383  GLY383      0.2280
    106  O        -20.5900    5.6500  -17.8550 O.2   383  GLY383     -0.2866
    107  N         -7.9720   12.1630  -22.7460 N.3   416  ARG416     -0.1245
    108  CA        -8.5950   12.3570  -21.4300 C.3   416  ARG416      0.1563
    109  C         -8.4850   11.0820  -20.5680 C.2   416  ARG416      0.2260
    110  O         -8.3710    9.9600  -21.0950 O.2   416  ARG416     -0.2867
    111  CB       -10.0650   12.6910  -21.6130 C.3   416  ARG416      0.0307
    112  CG       -10.3180   13.9200  -22.4700 C.3   416  ARG416      0.0489
    113  CD       -11.7780   13.9780  -22.8280 C.3   416  ARG416      0.2205
    114  NE       -12.1250   12.9210  -23.7600 N.pl3 416  ARG416     -0.0865
    115  CZ       -13.3540   12.6710  -24.1690 C.cat 416  ARG416      0.5346
    116  NH1      -14.3510   13.4150  -23.7440 N.pl3 416  ARG416      0.1354
    117  NH2      -13.5890   11.6990  -25.0320 N.pl3 416  ARG416      0.1354
    118  N        -17.1200   10.5480  -28.2070 N.3   443  SER443     -0.1202
    119  CA       -17.1930   11.9580  -27.9600 C.3   443  SER443      0.2020
    120  C        -17.3480   12.2580  -26.4680 C.2   443  SER443      0.2618
    121  O        -16.5250   12.9310  -25.8900 O.2   443  SER443     -0.2717
    122  CB       -18.3540   12.4980  -28.7270 C.3   443  SER443      0.2103
    123  OG       -18.5220   13.8290  -28.3550 O.3   443  SER443     -0.2182
    124  N        -18.3800   11.6980  -25.8590 N.am  444  VAL444     -0.1979
    125  CA       -18.6820   11.9300  -24.4350 C.3   444  VAL444      0.1595
    126  C        -17.6680   11.1890  -23.5450 C.2   444  VAL444      0.2287
    127  O        -17.3080   11.6820  -22.4780 O.2   444  VAL444     -0.2864
    128  CB       -20.1640   11.5030  -24.0980 C.3   444  VAL444      0.0276
    129  CG1      -20.4130   11.2240  -22.6030 C.3   444  VAL444      0.0022
    130  CG2      -21.1280   12.5610  -24.5800 C.3   444  VAL444      0.0022
    131  N        -17.8620    7.7200  -22.2930 N.3   446  HIS446     -0.1241
    132  CA       -18.2950    6.8950  -21.1620 C.3   446  HIS446      0.1621
    133  C        -18.5260    5.4620  -21.5030 C.2   446  HIS446      0.2264
    134  O        -19.1950    5.1690  -22.4860 O.2   446  HIS446     -0.2867
    135  CB       -19.5980    7.3990  -20.6100 C.3   446  HIS446      0.0745
    136  CG       -19.5090    8.7530  -20.0080 C.ar  446  HIS446      0.0817
    137  ND1      -20.5710    9.3250  -19.3510 N.ar  446  HIS446     -0.2268
    138  CD2      -18.5030    9.6550  -19.9700 C.ar  446  HIS446      0.1154
    139  CE1      -20.2160   10.5250  -18.9300 C.ar  446  HIS446      0.1986
    140  NE2      -18.9600   10.7420  -19.2770 N.ar  446  HIS446     -0.2212
    141  N        -20.6270    3.4390  -20.3330 N.3   448  ASP448     -0.1225
    142  CA       -22.0540    3.1250  -20.4700 C.3   448  ASP448      0.1805
    143  C        -22.5160    3.3290  -21.9160 C.2   448  ASP448      0.2597
    144  O        -23.5020    2.7670  -22.3230 O.2   448  ASP448     -0.2718
    145  CB       -22.9440    3.8400  -19.4210 C.3   448  ASP448      0.1424
    146  CG       -23.1560    5.3550  -19.6970 C.2   448  ASP448      0.3668
    147  OD1      -22.4800    5.9310  -20.5990 O.co2 448  ASP448     -0.2456
    148  OD2      -24.0280    5.9730  -18.9830 O.co2 448  ASP448     -0.2456
    149  N        -21.7700    4.0940  -22.7000 N.am  449  GLU449     -0.1979
    150  CA       -22.0880    4.2490  -24.0990 C.3   449  GLU449      0.1602
    151  C        -21.8020    3.0070  -24.9650 C.2   449  GLU449      0.2287
    152  O        -22.2820    2.9480  -26.0920 O.2   449  GLU449     -0.2864
    153  CB       -21.3430    5.4200  -24.6960 C.3   449  GLU449      0.0415
    154  CG       -21.5680    6.7420  -24.0190 C.3   449  GLU449      0.1163
    155  CD       -20.8370    7.8610  -24.7250 C.2   449  GLU449      0.3649
    156  OE1      -21.3900    8.3920  -25.7150 O.co2 449  GLU449     -0.2457
    157  OE2      -19.7090    8.2030  -24.2800 O.co2 449  GLU449     -0.2457
    158  N        -27.3490    1.9080  -23.8520 N.3   563  ASN563     -0.1240
    159  CA       -27.4290    2.8980  -22.7620 C.3   563  ASN563      0.1653
    160  C        -28.8550    2.8610  -22.1830 C.2   563  ASN563      0.2266
    161  O        -29.6040    3.8600  -22.2130 O.2   563  ASN563     -0.2867
    162  CB       -27.0580    4.2820  -23.3200 C.3   563  ASN563      0.1155
    163  CG       -26.8140    5.3040  -22.2560 C.2   563  ASN563      0.2627
    164  OD1      -27.6750    6.1370  -21.9560 O.2   563  ASN563     -0.2716
    165  ND2      -25.6490    5.2430  -21.6610 N.am  563  ASN563     -0.0877
    166  N        -30.5610   13.9180  -28.8700 N.3   613  ILE613     -0.1231
    167  CA       -29.9840   15.0620  -29.6110 C.3   613  ILE613      0.1692
    168  C        -29.0610   15.8920  -28.7240 C.2   613  ILE613      0.2592
    169  O        -28.3650   16.7680  -29.2200 O.2   613  ILE613     -0.2718
    170  CB       -31.0610   15.9930  -30.2680 C.3   613  ILE613      0.0266
    171  CG1      -31.9670   16.6840  -29.2130 C.3   613  ILE613      0.0019
    172  CG2      -31.8710   15.2170  -31.3100 C.3   613  ILE613      0.0020
    173  CD1      -32.6080   17.9790  -29.6760 C.3   613  ILE613      0.0001
    174  N        -29.1130   15.6330  -27.4110 N.am  614  ARG614     -0.1966
    175  CA       -28.1720   16.1850  -26.4330 C.3   614  ARG614      0.1729
    176  C        -27.0160   15.2200  -26.0790 C.2   614  ARG614      0.2616
    177  O        -26.2420   15.4600  -25.1380 O.2   614  ARG614     -0.2715
    178  CB       -28.9370   16.6060  -25.1810 C.3   614  ARG614      0.0348
    179  CG       -29.6890   17.9080  -25.3630 C.3   614  ARG614      0.0492
    180  CD       -30.9010   18.0030  -24.4650 C.3   614  ARG614      0.2205
    181  NE       -31.2090   19.3930  -24.2070 N.pl3 614  ARG614     -0.0865
    182  CZ       -32.3080   19.8280  -23.6060 C.cat 614  ARG614      0.5346
    183  NH1      -33.2780   19.0000  -23.2010 N.pl3 614  ARG614      0.1354
    184  NH2      -32.4400   21.1370  -23.4350 N.pl3 614  ARG614      0.1354
    185  N        -26.8970   14.1460  -26.8600 N.am  615  HIS615     -0.1959
    186  CA       -25.7270   13.2660  -26.8950 C.3   615  HIS615      0.1787
    187  C        -25.7440   12.2060  -25.7650 C.2   615  HIS615      0.2620
    188  O        -24.6940   11.6410  -25.3850 O.2   615  HIS615     -0.2715
    189  CB       -24.4100   14.0790  -26.9710 C.3   615  HIS615      0.0785
    190  CG       -24.3380   15.0080  -28.1480 C.ar  615  HIS615      0.0821
    191  ND1      -23.8810   16.3070  -28.0510 N.ar  615  HIS615     -0.2267
    192  CD2      -24.6560   14.8210  -29.4530 C.ar  615  HIS615      0.1154
    193  CE1      -23.9240   16.8810  -29.2430 C.ar  615  HIS615      0.1986
    194  NE2      -24.3840   15.9980  -30.1130 N.ar  615  HIS615     -0.2212
    195  N        -26.9480   11.8970  -25.2800 N.am  616  GLY616     -0.1954
    196  CA       -27.1170   10.8980  -24.2250 C.3   616  GLY616      0.1869
    197  C        -28.4590   10.2120  -24.3250 C.2   616  GLY616      0.2309
    198  O        -29.3070   10.6580  -25.0650 O.2   616  GLY616     -0.2863
    199  N        -28.1060    7.4650  -19.3480 N.3   620  CYS620     -0.1235
    200  CA       -27.4680    8.7500  -19.0660 C.3   620  CYS620      0.1677
    201  C        -28.3290    9.7520  -18.2650 C.2   620  CYS620      0.2270
    202  O        -27.7760   10.6390  -17.6000 O.2   620  CYS620     -0.2867
    203  CB       -27.0290    9.4200  -20.3810 C.3   620  CYS620      0.0956
    204  SG       -25.8090    8.5560  -21.4250 S.3   620  CYS620     -0.0801
@<TRIPOS>BOND
     1   172   170    1
     2   170   167    1
     3   170   171    1
     4   194   192   ar
     5   194   193   ar
     6   173   171    1
     7   167   166    1
     8   167   168    1
     9   192   190   ar
    10   193   191   ar
    11   169   168    2
    12   122   123    1
    13   122   119    1
    14   168   174   am
    15   118   119    1
    16   190   191   ar
    17   190   189    1
    18   119   120    1
    19   174   175    1
    20   189   186    1
    21   186   185    1
    22   186   187    1
    23   185   176   am
    24   120   121    2
    25   120   124   am
    26   175   176    1
    27   175   178    1
    28   152   151    2
    29   176   177    2
    30   124   125    1
    31   187   188    2
    32   187   195   am
    33   156   155   ar
    34   179   178    1
    35   179   180    1
    36   195   196    1
    37   198   197    2
    38   117   115    1
    39   151   150    1
    40   155   157   ar
    41   155   154    1
    42   153   150    1
    43   153   154    1
    44   130   128    1
    45   180   181    1
    46   125   128    1
    47   125   126    1
    48   197   196    1
    49   181   182    2
    50   115   114    2
    51   115   116    1
    52   150   149    1
    53   128   129    1
    54   158   159    1
    55   114   113    1
    56   182   184    1
    57   182   183    1
    58   126   127    2
    59   162   159    1
    60   162   163    1
    61   113   112    1
    62   159   160    1
    63   107   108    1
    64   149   143   am
    65   134   133    2
    66   112   111    1
    67   144   143    2
    68    47    45   ar
    69    47    46   ar
    70   131   132    1
    71   163   164    2
    72   163   165   am
    73   161   160    2
    74    45    43   ar
    75   143   142    1
    76   111   108    1
    77    33    31   am
    78   133   132    1
    79   108   109    1
    80   204   203    1
    81    46    44   ar
    82   132   135    1
    83   110   109    2
    84    32    31    2
    85    43    42   ar
    86    43    41   ar
    87    31    30    1
    88   135   136    1
    89   147   146   ar
    90   142   141    1
    91   142   145    1
    92   203   200    1
    93    42    40   ar
    94    44    41   ar
    95   136   138   ar
    96   136   137   ar
    97   138   140   ar
    98     8     6    1
    99    41    39   ar
   100   146   145    1
   101   146   148   ar
   102    86    84    1
   103    30    29    1
   104   137   139   ar
   105   199   200    1
   106   140   139   ar
   107    85    84    1
   108    16    14   ar
   109   200   201    1
   110    94    93    1
   111    94    95    1
   112     6     5    1
   113    40    39   ar
   114    93    89   am
   115    84    83    2
   116    39    38    1
   117    95    96    2
   118     4     3    2
   119     3     2    1
   120    91    92    1
   121    91    88    1
   122   201   202    2
   123    29    26    1
   124    14    15   ar
   125    14    13    1
   126     5     2    1
   127     5     7    1
   128   106   105    2
   129    64    62   ar
   130    12    11    2
   131    89    88    1
   132    89    90    2
   133    88    87    1
   134    13    10    1
   135    83    82    1
   136     2     1    1
   137    38    35    1
   138   105   104    1
   139    63    62   ar
   140    26    25    1
   141    26    27    1
   142    62    61    1
   143    25    19   am
   144   104   103    1
   145    11    10    1
   146    11    17   am
   147    27    34   am
   148    27    28    2
   149    82    81    1
   150    35    34    1
   151    35    36    1
   152    10     9    1
   153   102   101    1
   154   101    98    1
   155    74    73    1
   156    53    52    1
   157    53    54    1
   158    18    19    1
   159    18    17    1
   160    18    21    1
   161    52    49    1
   162    19    20    2
   163    61    58    1
   164    23    22   ar
   165   100    99    2
   166    72    73    2
   167    72    71    1
   168    97    98    1
   169    81    80    1
   170    36    37    2
   171    73    75    1
   172    54    55    2
   173    54    56   am
   174    98    99    1
   175    22    21    1
   176    22    24   ar
   177    71    70    1
   178    80    77    1
   179    58    57    1
   180    58    59    1
   181    57    50   am
   182    49    48    1
   183    49    50    1
   184    70    69    1
   185    50    51    2
   186    77    78    1
   187    77    76    1
   188    59    60    2
   189    69    66    1
   190    68    67    2
   191    78    79    2
   192    66    67    1
   193    66    65    1
