@<TRIPOS>MOLECULE
tmp/5n11B04.pdb
 92 88 0 0 0
SMALL
GASTEIGER

@<TRIPOS>ATOM
      1  N         95.8650   28.2720   45.3300 N.3    72  THR72      -0.1203
      2  CA        96.1770   26.9850   45.9480 C.3    72  THR72       0.1997
      3  C         94.9470   26.0880   46.0460 C.2    72  THR72       0.2657
      4  O         93.9490   26.4660   46.6560 O.2    72  THR72      -0.2713
      5  CB        96.7340   27.1810   47.3710 C.3    72  THR72       0.1784
      6  OG1       97.9870   27.8890   47.3080 O.3    72  THR72      -0.2211
      7  CG2       96.9330   25.8290   48.0620 C.3    72  THR72       0.0376
      8  N         95.0240   24.8930   45.4670 N.am   73  GLY73      -0.1718
      9  CA        93.8740   24.0000   45.4580 C.2    73  GLY73       0.1480
     10  C         94.1260   22.5970   44.9520 C.2    73  GLY73       0.2820
     11  O         95.0850   22.3490   44.2240 O.2    73  GLY73      -0.2669
     12  N         93.2310   21.6890   45.3350 N.am   74  GLU74      -0.1943
     13  CA        93.3370   20.2760   45.0080 C.3    74  GLU74       0.1605
     14  C         91.9630   19.6740   44.6920 C.2    74  GLU74       0.2287
     15  O         90.9900   19.9120   45.4060 O.2    74  GLU74      -0.2864
     16  CB        93.9750   19.5330   46.1760 C.3    74  GLU74       0.0415
     17  CG        94.2270   18.0610   45.9220 C.3    74  GLU74       0.1163
     18  CD        94.8630   17.3720   47.1080 C.2    74  GLU74       0.3649
     19  OE1       95.3720   18.0850   47.9990 O.co2  74  GLU74      -0.2457
     20  OE2       94.8560   16.1200   47.1470 O.co2  74  GLU74      -0.2457
     21  N         96.6550   18.6970   42.4030 N.3   123  SER123     -0.1202
     22  CA        97.0060   19.8150   43.2670 C.3   123  SER123      0.2020
     23  C         97.7920   20.8820   42.5180 C.2   123  SER123      0.2619
     24  O         98.7890   20.5730   41.8590 O.2   123  SER123     -0.2717
     25  CB        97.8130   19.2940   44.4650 C.3   123  SER123      0.2103
     26  OG        98.6410   20.3010   45.0200 O.3   123  SER123     -0.2182
     27  N         97.3380   22.1300   42.6360 N.am  124  LEU124     -0.1965
     28  CA        98.0030   23.2840   42.0350 C.3   124  LEU124      0.1728
     29  C         98.2950   24.3390   43.0970 C.2   124  LEU124      0.2617
     30  O         97.4470   24.6380   43.9350 O.2   124  LEU124     -0.2715
     31  CB        97.1380   23.9020   40.9320 C.3   124  LEU124      0.0311
     32  CG        97.6480   25.1970   40.2630 C.3   124  LEU124      0.0022
     33  CD1       97.1560   25.3140   38.8240 C.3   124  LEU124      0.0001
     34  CD2       97.2820   26.4520   41.0470 C.3   124  LEU124      0.0001
     35  N         99.5010   24.8940   43.0510 N.am  125  THR125     -0.1937
     36  CA        99.8520   26.0450   43.8680 C.3   125  THR125      0.2028
     37  C        101.0570   26.7660   43.2530 C.2   125  THR125      0.2642
     38  O        101.4780   26.4390   42.1460 O.2   125  THR125     -0.2714
     39  CB       100.1010   25.6480   45.3480 C.3   125  THR125      0.1808
     40  OG1      100.1670   26.8250   46.1590 O.3   125  THR125     -0.2208
     41  CG2      101.3820   24.8480   45.5110 C.3   125  THR125      0.0379
     42  N        101.5700   27.7680   43.9630 N.am  126  PHE126     -0.1959
     43  CA       102.7650   28.5070   43.5600 C.3   126  PHE126      0.1771
     44  C        103.9360   28.1630   44.4760 C.2   126  PHE126      0.2619
     45  O        103.7640   28.0020   45.6880 O.2   126  PHE126     -0.2715
     46  CB       102.5280   30.0200   43.6540 C.3   126  PHE126      0.0574
     47  CG       101.7620   30.5980   42.5030 C.ar  126  PHE126     -0.0200
     48  CD1      102.4140   30.9730   41.3450 C.ar  126  PHE126     -0.0042
     49  CD2      100.3980   30.7970   42.5880 C.ar  126  PHE126     -0.0042
     50  CE1      101.7160   31.5160   40.2840 C.ar  126  PHE126     -0.0003
     51  CE2       99.6940   31.3390   41.5240 C.ar  126  PHE126     -0.0003
     52  CZ       100.3540   31.7020   40.3720 C.ar  126  PHE126     -0.0000
     53  N        105.1250   28.0650   43.8900 N.am  127  VAL127     -0.1977
     54  CA       106.3670   28.0490   44.6590 C.3   127  VAL127      0.1596
     55  C        107.2190   29.2210   44.2120 C.2   127  VAL127      0.2287
     56  O        107.2440   29.5650   43.0270 O.2   127  VAL127     -0.2864
     57  CB       107.1770   26.7390   44.4930 C.3   127  VAL127      0.0276
     58  CG1      106.4390   25.5800   45.1400 C.3   127  VAL127      0.0022
     59  CG2      107.4850   26.4320   43.0270 C.3   127  VAL127      0.0022
     60  N        112.1640   22.8520   43.5680 N.3   167  SER167     -0.1202
     61  CA       111.8500   21.9070   44.6420 C.3   167  SER167      0.2020
     62  C        110.4040   22.0870   45.0570 C.2   167  SER167      0.2619
     63  O        109.8640   23.1950   44.9770 O.2   167  SER167     -0.2717
     64  CB       112.7270   22.1480   45.8750 C.3   167  SER167      0.2103
     65  OG       114.0540   21.7030   45.6690 O.3   167  SER167     -0.2182
     66  N        109.7920   20.9880   45.5000 N.am  168  GLY168     -0.1956
     67  CA       108.4750   21.0140   46.1410 C.3   168  GLY168      0.1869
     68  C        107.3250   20.5250   45.2830 C.2   168  GLY168      0.2309
     69  O        106.1790   20.5490   45.7190 O.2   168  GLY168     -0.2863
     70  N        103.1420   25.0710   40.5760 N.3   247  CYS247     -0.1235
     71  CA       103.5610   23.8540   41.2670 C.3   247  CYS247      0.1677
     72  C        102.4840   22.7890   41.1170 C.2   247  CYS247      0.2270
     73  O        101.3700   22.9570   41.6040 O.2   247  CYS247     -0.2867
     74  CB       103.7640   24.1750   42.7470 C.3   247  CYS247      0.0956
     75  SG       104.3500   22.8160   43.7700 S.3   247  CYS247     -0.0801
     76  N        101.1760   18.8390   41.7620 N.3   249  ASN249     -0.1225
     77  CA       101.3760   17.6760   42.6200 C.3   249  ASN249      0.1785
     78  C        100.2450   16.6600   42.5300 C.2   249  ASN249      0.2597
     79  O         99.1140   17.0050   42.1850 O.2   249  ASN249     -0.2718
     80  CB       101.5750   18.1150   44.0760 C.3   249  ASN249      0.1169
     81  CG       103.0200   18.4600   44.3900 C.2   249  ASN249      0.2627
     82  OD1      103.9230   17.6600   44.1480 O.2   249  ASN249     -0.2716
     83  ND2      103.2460   19.6450   44.9350 N.am  249  ASN249     -0.0877
     84  N        100.5860   15.4070   42.8380 N.am  250  LYS250     -0.1980
     85  CA        99.6330   14.3020   42.9480 C.3   250  LYS250      0.1596
     86  C         99.0460   13.9520   41.5880 C.2   250  LYS250      0.2287
     87  O         98.0030   14.4640   41.1830 O.2   250  LYS250     -0.2864
     88  CB        98.5340   14.6130   43.9740 C.3   250  LYS250      0.0298
     89  CG        99.0700   14.9770   45.3470 C.3   250  LYS250      0.0038
     90  CD        97.9680   15.2760   46.3470 C.3   250  LYS250      0.0206
     91  CE        98.5710   15.6030   47.7020 C.3   250  LYS250      0.1093
     92  NZ        97.5510   15.8440   48.7550 N.3   250  LYS250     -0.1314
@<TRIPOS>BOND
     1    33    32    1
     2    32    31    1
     3    32    34    1
     4    50    52   ar
     5    50    48   ar
     6    52    51   ar
     7    70    71    1
     8    31    28    1
     9    72    71    1
    10    72    73    2
    11    87    86    2
    12    71    74    1
    13    48    47   ar
    14    51    49   ar
    15    86    85    1
    16    76    77    1
    17    24    23    2
    18    28    27    1
    19    28    29    1
    20    38    37    2
    21    79    78    2
    22    21    22    1
    23    47    49   ar
    24    47    46    1
    25    23    27   am
    26    23    22    1
    27    78    77    1
    28    78    84   am
    29    77    80    1
    30    74    75    1
    31    84    85    1
    32    85    88    1
    33    56    55    2
    34    59    57    1
    35    35    29   am
    36    35    36    1
    37    29    30    2
    38    37    36    1
    39    37    42   am
    40    22    25    1
    41    43    46    1
    42    43    42    1
    43    43    44    1
    44    60    61    1
    45    36    39    1
    46    53    44   am
    47    53    54    1
    48    88    89    1
    49    80    81    1
    50    82    81    2
    51    55    54    1
    52    11    10    2
    53    81    83   am
    54    25    26    1
    55    44    45    2
    56    57    54    1
    57    57    58    1
    58    61    62    1
    59    61    64    1
    60    14    13    1
    61    14    15    2
    62    10    12   am
    63    10     9    1
    64    63    62    2
    65    13    12    1
    66    13    16    1
    67    62    66   am
    68    68    69    2
    69    68    67    1
    70     1     2    1
    71    89    90    1
    72    39    41    1
    73    39    40    1
    74     9     8    2
    75     8     3    1
    76    66    67    1
    77    65    64    1
    78    17    16    1
    79    17    18    1
    80     2     3    1
    81     2     5    1
    82     3     4    2
    83    90    91    1
    84    18    20   ar
    85    18    19   ar
    86     6     5    1
    87     5     7    1
    88    91    92    1
