@<TRIPOS>MOLECULE
tmp/5n12A00.pdb
 135 134 0 0 0
SMALL
GASTEIGER

@<TRIPOS>ATOM
      1  N         39.1790  235.8420 -198.7300 N.3    77  PRO77      -0.2102
      2  CA        40.3180  235.0310 -198.2900 C.3    77  PRO77       0.1504
      3  C         41.5930  235.3730 -199.0430 C.2    77  PRO77       0.2575
      4  O         41.5750  235.7730 -200.2110 O.2    77  PRO77      -0.2718
      5  CB        39.8820  233.5940 -198.6120 C.3    77  PRO77       0.0282
      6  CG        38.3960  233.6540 -198.6710 C.3    77  PRO77       0.0208
      7  CD        38.0680  235.0080 -199.2120 C.3    77  PRO77       0.0893
      8  N         42.7070  235.1770 -198.3500 N.am   78  LYS78      -0.1980
      9  CA        44.0200  235.2300 -198.9670 C.3    78  LYS78       0.1596
     10  C         44.0260  234.4270 -200.2630 C.2    78  LYS78       0.2287
     11  O         43.6030  233.2660 -200.2940 O.2    78  LYS78      -0.2864
     12  CB        45.0130  234.6380 -197.9630 C.3    78  LYS78       0.0298
     13  CG        46.3930  234.3180 -198.4900 C.3    78  LYS78       0.0038
     14  CD        47.1530  233.4370 -197.4860 C.3    78  LYS78       0.0206
     15  CE        46.6700  231.9810 -197.5390 C.3    78  LYS78       0.1093
     16  NZ        47.0820  231.1700 -196.3700 N.3    78  LYS78      -0.1314
     17  N         42.2050  234.8800 -202.9230 N.3    80  TRP80      -0.1241
     18  CA        40.9120  234.8390 -203.6040 C.3    80  TRP80       0.1605
     19  C         40.5140  236.1900 -204.2050 C.2    80  TRP80       0.2264
     20  O         39.3520  236.3910 -204.5910 O.2    80  TRP80      -0.2867
     21  CB        39.8240  234.2980 -202.6710 C.3    80  TRP80       0.0550
     22  CG        39.8780  232.8220 -202.4730 C.ar   80  TRP80       0.0003
     23  CD1       40.9960  232.0200 -202.4070 C.ar   80  TRP80       0.0946
     24  CD2       38.7540  231.9560 -202.3320 C.ar   80  TRP80       0.0152
     25  NE1       40.6170  230.7080 -202.2230 N.ar   80  TRP80      -0.2442
     26  CE2       39.2470  230.6420 -202.1900 C.ar   80  TRP80       0.0810
     27  CE3       37.3730  232.1660 -202.3230 C.ar   80  TRP80       0.0012
     28  CZ2       38.4020  229.5460 -202.0290 C.ar   80  TRP80       0.0191
     29  CZ3       36.5410  231.0840 -202.1650 C.ar   80  TRP80       0.0001
     30  CH2       37.0550  229.7870 -202.0230 C.ar   80  TRP80       0.0015
     31  N         34.6200  234.9750 -197.3090 N.3    87  TRP87      -0.1241
     32  CA        34.5750  233.9070 -196.3140 C.3    87  TRP87       0.1605
     33  C         33.1530  233.4280 -196.0470 C.2    87  TRP87       0.2264
     34  O         32.9810  232.3030 -195.5540 O.2    87  TRP87      -0.2867
     35  CB        35.2130  234.3620 -194.9960 C.3    87  TRP87       0.0550
     36  CG        36.7150  234.2410 -194.9500 C.ar   87  TRP87       0.0003
     37  CD1       37.6190  235.2480 -195.0990 C.ar   87  TRP87       0.0946
     38  CD2       37.4770  233.0490 -194.7260 C.ar   87  TRP87       0.0152
     39  NE1       38.8940  234.7540 -194.9840 N.ar   87  TRP87      -0.2442
     40  CE2       38.8420  233.4100 -194.7620 C.ar   87  TRP87       0.0810
     41  CE3       37.1430  231.7090 -194.5160 C.ar   87  TRP87       0.0012
     42  CZ2       39.8710  232.4830 -194.5840 C.ar   87  TRP87       0.0191
     43  CZ3       38.1750  230.7880 -194.3410 C.ar   87  TRP87       0.0001
     44  CH2       39.5150  231.1830 -194.3780 C.ar   87  TRP87       0.0015
     45  N         32.8740  230.1870 -197.7670 N.3    90  VAL90      -0.1245
     46  CA        33.9320  229.2080 -197.5230 C.3    90  VAL90       0.1561
     47  C         33.5050  228.3030 -196.3740 C.2    90  VAL90       0.2260
     48  O         33.1030  228.8130 -195.3250 O.2    90  VAL90      -0.2867
     49  CB        35.2700  229.9080 -197.2110 C.3    90  VAL90       0.0252
     50  CG1       36.3480  228.9190 -196.7940 C.3    90  VAL90       0.0019
     51  CG2       35.7490  230.6990 -198.4200 C.3    90  VAL90       0.0019
     52  N         35.1570  226.0280 -194.3400 N.3    92  GLY92      -0.1210
     53  CA        35.9930  225.5910 -193.2400 C.3    92  GLY92       0.1956
     54  C         37.1900  226.4870 -193.0800 C.2    92  GLY92       0.2612
     55  O         37.6190  227.1720 -194.0140 O.2    92  GLY92      -0.2717
     56  N         37.7470  226.4210 -191.8760 N.am   93  LEU93      -0.1965
     57  CA        38.9160  227.1850 -191.5020 C.3    93  LEU93       0.1728
     58  C         39.7040  226.3810 -190.4800 C.2    93  LEU93       0.2616
     59  O         39.1330  225.6300 -189.6820 O.2    93  LEU93      -0.2715
     60  CB        38.4090  228.5170 -190.9120 C.3    93  LEU93       0.0311
     61  CG        39.3000  229.5240 -190.2180 C.3    93  LEU93       0.0022
     62  CD1       38.5660  230.8620 -190.2820 C.3    93  LEU93       0.0001
     63  CD2       39.5440  229.1240 -188.7760 C.3    93  LEU93       0.0001
     64  N         41.0210  226.5790 -190.4890 N.am   94  GLY94      -0.1955
     65  CA        41.9140  225.9460 -189.5320 C.3    94  GLY94       0.1869
     66  C         43.1030  226.8270 -189.2340 C.2    94  GLY94       0.2309
     67  O         43.5750  227.5810 -190.0940 O.2    94  GLY94      -0.2863
     68  N         35.3780  224.8300 -201.6650 N.3   111  HIS111     -0.1226
     69  CA        36.7990  224.8770 -201.3360 C.3   111  HIS111      0.1752
     70  C         37.5070  223.9110 -202.2700 C.2   111  HIS111      0.2596
     71  O         36.8880  223.0590 -202.9190 O.2   111  HIS111     -0.2718
     72  CB        37.0510  224.4590 -199.8860 C.3   111  HIS111      0.0759
     73  CG        36.7700  223.0140 -199.6540 C.ar  111  HIS111      0.0818
     74  ND1       37.7590  222.0520 -199.7050 N.ar  111  HIS111     -0.2268
     75  CD2       35.5970  222.3480 -199.4850 C.ar  111  HIS111      0.1154
     76  CE1       37.2070  220.8590 -199.5490 C.ar  111  HIS111      0.1986
     77  NE2       35.9000  221.0120 -199.3950 N.ar  111  HIS111     -0.2212
     78  N         38.8390  224.0340 -202.3050 N.am  112  ASP112     -0.1974
     79  CA        39.6660  223.3310 -203.2750 C.3   112  ASP112      0.1709
     80  C         40.4110  222.1260 -202.7130 C.2   112  ASP112      0.2293
     81  O         41.1670  221.4810 -203.4610 O.2   112  ASP112     -0.2864
     82  CB        40.6650  224.3290 -203.8820 C.3   112  ASP112      0.1436
     83  CG        40.0520  225.1940 -204.9380 C.2   112  ASP112      0.3671
     84  OD1       38.9790  224.8360 -205.4630 O.co2 112  ASP112     -0.2456
     85  OD2       40.6820  226.2430 -205.2550 O.co2 112  ASP112     -0.2456
     86  N         42.3270  218.8910 -194.4040 N.3   119  HIS119     -0.1226
     87  CA        43.0880  220.0990 -194.7220 C.3   119  HIS119      0.1752
     88  C         43.0420  221.0900 -193.5560 C.2   119  HIS119      0.2595
     89  O         44.0780  221.6340 -193.1390 O.2   119  HIS119     -0.2718
     90  CB        42.5650  220.7200 -196.0270 C.3   119  HIS119      0.0759
     91  CG        43.1830  222.0330 -196.3920 C.ar  119  HIS119      0.0818
     92  ND1       44.0330  222.1830 -197.4670 N.ar  119  HIS119     -0.2268
     93  CD2       43.0470  223.2590 -195.8450 C.ar  119  HIS119      0.1154
     94  CE1       44.3890  223.4580 -197.5570 C.ar  119  HIS119      0.1986
     95  NE2       43.8200  224.1280 -196.5770 N.ar  119  HIS119     -0.2212
     96  N         41.8480  221.3730 -193.0240 N.am  120  GLU120     -0.1979
     97  CA        41.7660  222.3890 -191.9700 C.3   120  GLU120      0.1602
     98  C         42.4400  221.9270 -190.6940 C.2   120  GLU120      0.2287
     99  O         43.1050  222.7190 -190.0080 O.2   120  GLU120     -0.2864
    100  CB        40.3140  222.7790 -191.6580 C.3   120  GLU120      0.0415
    101  CG        39.4540  223.1460 -192.8430 C.3   120  GLU120      0.1163
    102  CD        40.0960  224.1290 -193.7480 C.2   120  GLU120      0.3649
    103  OE1       41.0060  224.8980 -193.3270 O.co2 120  GLU120     -0.2457
    104  OE2       39.6840  224.1290 -194.9300 O.co2 120  GLU120     -0.2457
    105  N         46.1060  222.5030 -190.8120 N.3   123  HIS123     -0.1241
    106  CA        46.5210  223.8470 -190.4280 C.3   123  HIS123      0.1621
    107  C         46.6890  223.9660 -188.9190 C.2   123  HIS123      0.2264
    108  O         47.6360  224.6040 -188.4400 O.2   123  HIS123     -0.2867
    109  CB        45.4840  224.8880 -190.8550 C.3   123  HIS123      0.0745
    110  CG        45.5080  225.2580 -192.3120 C.ar  123  HIS123      0.0817
    111  ND1       46.6680  225.5290 -193.0080 N.ar  123  HIS123     -0.2268
    112  CD2       44.4950  225.4340 -193.1940 C.ar  123  HIS123      0.1154
    113  CE1       46.3660  225.8740 -194.2440 C.ar  123  HIS123      0.1986
    114  NE2       45.0580  225.8290 -194.3860 N.ar  123  HIS123     -0.2212
    115  N         48.0800  228.9480 -205.7820 N.3   155  TYR155     -0.1241
    116  CA        47.6070  228.9310 -204.4070 C.3   155  TYR155      0.1605
    117  C         48.5030  227.9940 -203.5890 C.2   155  TYR155      0.2264
    118  O         49.3470  228.4560 -202.8140 O.2   155  TYR155     -0.2867
    119  CB        46.1340  228.5050 -204.3690 C.3   155  TYR155      0.0534
    120  CG        45.5300  228.6480 -202.9900 C.ar  155  TYR155     -0.0201
    121  CD1       45.2230  229.9030 -202.4790 C.ar  155  TYR155     -0.0009
    122  CD2       45.3130  227.5420 -202.1880 C.ar  155  TYR155     -0.0009
    123  CE1       44.7020  230.0460 -201.2190 C.ar  155  TYR155      0.0417
    124  CE2       44.7880  227.6760 -200.9170 C.ar  155  TYR155      0.0417
    125  CZ        44.4920  228.9260 -200.4400 C.ar  155  TYR155      0.1957
    126  OH        43.9790  229.0510 -199.1650 O.3   155  TYR155     -0.2866
    127  N         49.6190  226.3220 -197.1230 N.3   162  GLU162     -0.1245
    128  CA        48.5520  225.6290 -197.8360 C.3   162  GLU162      0.1567
    129  C         49.0660  224.3340 -198.4570 C.2   162  GLU162      0.2260
    130  O         48.3900  223.3030 -198.4110 O.2   162  GLU162     -0.2867
    131  CB        47.9010  226.5460 -198.8860 C.3   162  GLU162      0.0388
    132  CG        47.3370  227.8360 -198.3230 C.3   162  GLU162      0.1160
    133  CD        46.2230  227.6420 -197.3260 C.2   162  GLU162      0.3649
    134  OE1       45.5810  226.5530 -197.3340 O.co2 162  GLU162     -0.2457
    135  OE2       45.9820  228.5910 -196.5490 O.co2 162  GLU162     -0.2457
@<TRIPOS>BOND
     1   115   116    1
     2    84    83   ar
     3    85    83   ar
     4    83    82    1
     5    20    19    2
     6   116   119    1
     7   116   117    1
     8   119   120    1
     9    19    18    1
    10    82    79    1
    11    18    17    1
    12    18    21    1
    13   117   118    2
    14    81    80    2
    15    79    80    1
    16    79    78    1
    17   120   121   ar
    18   120   122   ar
    19    71    70    2
    20    21    22    1
    21   121   123   ar
    22    22    23   ar
    23    22    24   ar
    24    23    25   ar
    25    24    27   ar
    26    24    26   ar
    27    27    29   ar
    28    78    70   am
    29    70    69    1
    30    25    26   ar
    31    26    28   ar
    32   122   124   ar
    33    29    30   ar
    34    28    30   ar
    35    68    69    1
    36    69    72    1
    37   123   125   ar
    38   124   125   ar
    39   125   126    1
    40    11    10    2
    41    10     9    1
    42     4     3    2
    43    72    73    1
    44    74    73   ar
    45    74    76   ar
    46    73    75   ar
    47    76    77   ar
    48    75    77   ar
    49     7     1    1
    50     7     6    1
    51     3     8   am
    52     3     2    1
    53     9     8    1
    54     9    12    1
    55   131   132    1
    56   131   128    1
    57     1     2    1
    58     6     5    1
    59     5     2    1
    60    13    12    1
    61    13    14    1
    62   129   130    2
    63   129   128    1
    64    51    49    1
    65   132   133    1
    66   128   127    1
    67    45    46    1
    68    94    92   ar
    69    94    95   ar
    70    15    14    1
    71    15    16    1
    72    46    49    1
    73    46    47    1
    74    92    91   ar
    75   134   133   ar
    76   133   135   ar
    77    31    32    1
    78    49    50    1
    79    95    93   ar
    80    91    90    1
    81    91    93   ar
    82    47    48    2
    83    32    33    1
    84    32    35    1
    85    33    34    2
    86    90    87    1
    87    37    39   ar
    88    37    36   ar
    89    35    36    1
    90    39    40   ar
    91    36    38   ar
    92   104   102   ar
    93    40    38   ar
    94    40    42   ar
    95    38    41   ar
    96    87    86    1
    97    87    88    1
    98    42    44   ar
    99    41    43   ar
   100   114   113   ar
   101   114   112   ar
   102    44    43   ar
   103    52    53    1
   104   113   111   ar
   105    55    54    2
   106   102   103   ar
   107   102   101    1
   108    88    89    2
   109    88    96   am
   110    53    54    1
   111   112   110   ar
   112    54    56   am
   113    96    97    1
   114   111   110   ar
   115   101   100    1
   116   110   109    1
   117    97   100    1
   118    97    98    1
   119    56    57    1
   120    57    60    1
   121    57    58    1
   122    60    61    1
   123   109   106    1
   124   105   106    1
   125    98    99    2
   126    64    58   am
   127    64    65    1
   128    58    59    2
   129   106   107    1
   130    62    61    1
   131    61    63    1
   132    67    66    2
   133    65    66    1
   134   107   108    2
