@<TRIPOS>MOLECULE
tmp/5n16A00.pdb
 110 105 0 0 0
SMALL
GASTEIGER

@<TRIPOS>ATOM
      1  N        -23.5900   25.1910    9.3820 N.3    41  VAL41      -0.1231
      2  CA       -22.9950   25.9620    8.2870 C.3    41  VAL41       0.1678
      3  C        -21.4760   25.8320    8.2270 C.2    41  VAL41       0.2434
      4  O        -20.9470   25.5370    7.1460 O.2    41  VAL41      -0.2733
      5  CB       -23.4660   27.4270    8.3560 C.3    41  VAL41       0.0265
      6  CG1      -22.6580   28.2800    7.3970 C.3    41  VAL41       0.0020
      7  CG2      -24.9540   27.5110    8.0330 C.3    41  VAL41       0.0020
      8  N        -20.7250   26.0060    9.3170 N.am   42  PRO42      -0.2718
      9  CA       -19.2670   25.9100    9.1990 C.3    42  PRO42       0.1535
     10  C        -18.7650   24.5060    8.9420 C.2    42  PRO42       0.2598
     11  O        -17.5830   24.3570    8.6260 O.2    42  PRO42      -0.2715
     12  CB       -18.7530   26.4340   10.5410 C.3    42  PRO42       0.0310
     13  CG       -19.9180   26.4440   11.4470 C.3    42  PRO42       0.0237
     14  CD       -21.1550   26.4630   10.6510 C.3    42  PRO42       0.0939
     15  N        -19.6180   23.4890    9.0610 N.am   43  PHE43      -0.1974
     16  CA       -19.2540   22.0970    8.8310 C.3    43  PHE43       0.1639
     17  C        -19.6430   21.6130    7.4460 C.2    43  PHE43       0.2290
     18  O        -19.4480   20.4350    7.1330 O.2    43  PHE43      -0.2864
     19  CB       -19.9190   21.2120    9.8990 C.3    43  PHE43       0.0560
     20  CG       -19.5640   21.6150   11.2890 C.ar   43  PHE43      -0.0200
     21  CD1      -18.4700   21.0490   11.9310 C.ar   43  PHE43      -0.0042
     22  CD2      -20.3030   22.5870   11.9570 C.ar   43  PHE43      -0.0042
     23  CE1      -18.1370   21.4350   13.2140 C.ar   43  PHE43      -0.0003
     24  CE2      -19.9590   22.9740   13.2280 C.ar   43  PHE43      -0.0003
     25  CZ       -18.8770   22.3980   13.8610 C.ar   43  PHE43      -0.0000
     26  N        -18.3750   22.3330    4.5370 N.3    45  HIS45      -0.1241
     27  CA       -17.2530   22.2000    3.6240 C.3    45  HIS45       0.1621
     28  C        -15.9880   21.9230    4.4160 C.2    45  HIS45       0.2264
     29  O        -15.9210   22.2150    5.6140 O.2    45  HIS45      -0.2867
     30  CB       -17.0720   23.4760    2.7870 C.3    45  HIS45       0.0745
     31  CG       -18.2570   23.8020    1.9340 C.ar   45  HIS45       0.0817
     32  ND1      -18.6880   22.9790    0.9150 N.ar   45  HIS45      -0.2268
     33  CD2      -19.1160   24.8480    1.9640 C.ar   45  HIS45       0.1154
     34  CE1      -19.7610   23.5060    0.3520 C.ar   45  HIS45       0.1986
     35  NE2      -20.0380   24.6420    0.9670 N.ar   45  HIS45      -0.2212
     36  N        -12.4440   22.2720    6.1690 N.3    47  VAL47      -0.1245
     37  CA       -11.6470   23.3840    6.6740 C.3    47  VAL47       0.1561
     38  C        -10.6670   23.8050    5.5970 C.2    47  VAL47       0.2260
     39  O         -9.9500   22.9740    5.0310 O.2    47  VAL47      -0.2867
     40  CB       -10.9190   22.9840    7.9700 C.3    47  VAL47       0.0252
     41  CG1       -9.7740   23.9810    8.3010 C.3    47  VAL47       0.0019
     42  CG2      -11.9230   22.9150    9.1250 C.3    47  VAL47       0.0019
     43  N         -8.5440   30.2950    6.7670 N.3    52  LEU52      -0.1245
     44  CA        -8.5950   30.4330    8.2170 C.3    52  LEU52       0.1561
     45  C         -7.2360   30.6920    8.8400 C.2    52  LEU52       0.2260
     46  O         -7.1610   30.9150   10.0560 O.2    52  LEU52      -0.2867
     47  CB        -9.2240   29.1770    8.8450 C.3    52  LEU52       0.0270
     48  CG       -10.7160   29.0580    8.5630 C.3    52  LEU52       0.0019
     49  CD1      -11.1880   27.6300    8.7630 C.3    52  LEU52       0.0001
     50  CD2      -11.4960   30.0070    9.4600 C.3    52  LEU52       0.0001
     51  N         -4.4510   28.8370    9.3670 N.3    54  VAL54      -0.1245
     52  CA        -4.0000   27.8450   10.3440 C.3    54  VAL54       0.1561
     53  C         -3.0490   26.8650    9.6660 C.2    54  VAL54       0.2260
     54  O         -3.4350   25.7420    9.3000 O.2    54  VAL54      -0.2867
     55  CB        -5.1900   27.1430   11.0150 C.3    54  VAL54       0.0252
     56  CG1       -5.7720   28.0620   12.0720 C.3    54  VAL54       0.0019
     57  CG2       -6.2660   26.7920    9.9880 C.3    54  VAL54       0.0019
     58  N         -2.9700   23.2330   11.0750 N.3    57  TYR57      -0.1241
     59  CA        -4.2220   22.5180   11.3030 C.3    57  TYR57       0.1605
     60  C         -4.0530   21.0170   11.0770 C.2    57  TYR57       0.2264
     61  O         -4.5120   20.2070   11.8860 O.2    57  TYR57      -0.2867
     62  CB        -5.3230   23.0860   10.4050 C.3    57  TYR57       0.0534
     63  CG        -6.6500   22.3840   10.5880 C.ar   57  TYR57      -0.0201
     64  CD1       -7.4980   22.7170   11.6390 C.ar   57  TYR57      -0.0009
     65  CD2       -7.0390   21.3730    9.7180 C.ar   57  TYR57      -0.0009
     66  CE1       -8.7150   22.0670   11.8100 C.ar   57  TYR57       0.0417
     67  CE2       -8.2580   20.7160    9.8820 C.ar   57  TYR57       0.0417
     68  CZ        -9.0750   21.0630   10.9240 C.ar   57  TYR57       0.1957
     69  OH       -10.2710   20.3910   11.0790 O.3    57  TYR57      -0.2866
     70  N        -15.4680   14.3490   12.6590 N.3    92  MET92      -0.1245
     71  CA       -15.6330   15.7770   12.3730 C.3    92  MET92       0.1570
     72  C        -15.8030   16.5790   13.6520 C.2    92  MET92       0.2261
     73  O        -15.2160   17.6610   13.8110 O.2    92  MET92      -0.2867
     74  CB       -16.8450   15.9700   11.4470 C.3    92  MET92       0.0387
     75  CG       -17.3130   17.4290   11.2740 C.3    92  MET92       0.0595
     76  SD       -18.7970   17.4770   10.2300 S.3    92  MET92      -0.1393
     77  CE       -20.0470   17.0060   11.4180 C.3    92  MET92       0.0692
     78  N        -13.0030   19.1710   15.5600 N.3    96  CYS96      -0.1235
     79  CA       -13.3590   20.5290   15.9370 C.3    96  CYS96       0.1677
     80  C        -12.9790   20.8090   17.3860 C.2    96  CYS96       0.2270
     81  O        -12.3750   21.8430   17.6880 O.2    96  CYS96      -0.2867
     82  CB       -14.8580   20.7370   15.7020 C.3    96  CYS96       0.0956
     83  SG       -15.5030   22.3470   16.2690 S.3    96  CYS96      -0.0801
     84  N         -9.0610   20.8970   17.8610 N.3    99  PHE99      -0.1227
     85  CA        -8.3080   22.0490   17.3730 C.3    99  PHE99       0.1736
     86  C         -8.7650   23.3490   18.0240 C.2    99  PHE99       0.2595
     87  O         -7.9320   24.2020   18.3640 O.2    99  PHE99      -0.2718
     88  CB        -8.4070   22.1540   15.8540 C.3    99  PHE99       0.0547
     89  CG        -7.5640   23.2600   15.2950 C.ar   99  PHE99      -0.0202
     90  CD1       -6.2020   23.0840   15.1220 C.ar   99  PHE99      -0.0042
     91  CD2       -8.1270   24.4840   14.9860 C.ar   99  PHE99      -0.0042
     92  CE1       -5.4080   24.1130   14.6280 C.ar   99  PHE99      -0.0003
     93  CE2       -7.3410   25.5230   14.4950 C.ar   99  PHE99      -0.0003
     94  CZ        -5.9870   25.3310   14.3050 C.ar   99  PHE99      -0.0000
     95  N        -10.0730   23.5230   18.2180 N.am  100  ASN100     -0.1974
     96  CA       -10.5960   24.7790   18.7250 C.3   100  ASN100      0.1688
     97  C        -10.8250   24.7880   20.2290 C.2   100  ASN100      0.2292
     98  O        -10.9820   25.8700   20.8070 O.2   100  ASN100     -0.2864
     99  CB       -11.9110   25.1140   18.0120 C.3   100  ASN100      0.1181
    100  CG       -11.7310   25.2130   16.5060 C.2   100  ASN100      0.2629
    101  OD1      -11.1540   26.1790   16.0050 O.2   100  ASN100     -0.2716
    102  ND2      -12.1780   24.1930   15.7850 N.am  100  ASN100     -0.0877
    103  N        -17.6290   27.2940   18.3750 N.3   106  ILE106     -0.1245
    104  CA       -17.7430   26.3860   17.2360 C.3   106  ILE106      0.1561
    105  C        -17.9180   24.9480   17.7120 C.2   106  ILE106      0.2260
    106  O        -18.6130   24.1470   17.0700 O.2   106  ILE106     -0.2867
    107  CB       -16.5230   26.5400   16.3030 C.3   106  ILE106      0.0252
    108  CG1      -16.7190   25.7340   15.0210 C.3   106  ILE106      0.0019
    109  CG2      -15.2120   26.1450   17.0000 C.3   106  ILE106      0.0019
    110  CD1      -17.7660   26.3250   14.1060 C.3   106  ILE106      0.0001
@<TRIPOS>BOND
     1    34    32   ar
     2    34    35   ar
     3    32    31   ar
     4    35    33   ar
     5    31    33   ar
     6    31    30    1
     7    30    27    1
     8    27    28    1
     9    27    26    1
    10    28    29    2
    11    39    38    2
    12    38    37    1
    13    36    37    1
    14    37    40    1
    15    43    44    1
    16    18    17    2
    17     4     3    2
    18     6     5    1
    19    17    16    1
    20    40    41    1
    21    40    42    1
    22     7     5    1
    23    44    45    1
    24    44    47    1
    25     3     2    1
    26     3     8   am
    27     2     5    1
    28     2     1    1
    29    48    49    1
    30    48    47    1
    31    48    50    1
    32    11    10    2
    33    16    15    1
    34    16    19    1
    35    45    46    2
    36    10    15   am
    37    10     9    1
    38     9     8    1
    39     9    12    1
    40    54    53    2
    41     8    14    1
    42    51    52    1
    43    53    52    1
    44    65    67   ar
    45    65    63   ar
    46    67    68   ar
    47    19    20    1
    48    57    55    1
    49    76    75    1
    50    76    77    1
    51    52    55    1
    52    62    63    1
    53    62    59    1
    54    12    13    1
    55    63    64   ar
    56    14    13    1
    57    68    69    1
    58    68    66   ar
    59    55    56    1
    60    58    59    1
    61    60    59    1
    62    60    61    2
    63    75    74    1
    64    20    21   ar
    65    20    22   ar
    66    74    71    1
    67    64    66   ar
    68    21    23   ar
    69    22    24   ar
    70    71    70    1
    71    71    72    1
    72    23    25   ar
    73    24    25   ar
    74    72    73    2
    75   110   108    1
    76    94    93   ar
    77    94    92   ar
    78    93    91   ar
    79    92    90   ar
    80    91    89   ar
    81   108   107    1
    82    90    89   ar
    83    89    88    1
    84    78    79    1
    85    82    79    1
    86    82    83    1
    87   102   100   am
    88    88    85    1
    89    79    80    1
    90   101   100    2
    91   107   109    1
    92   107   104    1
    93   100    99    1
    94   106   105    2
    95   104   105    1
    96   104   103    1
    97    85    84    1
    98    85    86    1
    99    80    81    2
   100    99    96    1
   101    86    95   am
   102    86    87    2
   103    95    96    1
   104    96    97    1
   105    97    98    2
