@<TRIPOS>MOLECULE
tmp/5n17B00.pdb
 117 115 0 0 0
SMALL
GASTEIGER

@<TRIPOS>ATOM
      1  N        -13.2090   -5.2860   -5.2150 N.3    43  VAL43      -0.1231
      2  CA       -11.9400   -4.6200   -4.9100 C.3    43  VAL43       0.1678
      3  C        -10.7270   -5.3790   -5.4400 C.2    43  VAL43       0.2434
      4  O         -9.8680   -4.7550   -6.0770 O.2    43  VAL43      -0.2733
      5  CB       -11.8470   -4.3390   -3.3910 C.3    43  VAL43       0.0265
      6  CG1      -10.4670   -3.8020   -3.0340 C.3    43  VAL43       0.0020
      7  CG2      -12.9270   -3.3490   -2.9580 C.3    43  VAL43       0.0020
      8  N        -10.5720   -6.6840   -5.1930 N.am   44  PRO44      -0.2718
      9  CA        -9.3710   -7.3900   -5.6750 C.3    44  PRO44       0.1535
     10  C         -9.2870   -7.4980   -7.1870 C.2    44  PRO44       0.2598
     11  O         -8.2170   -7.8320   -7.7070 O.2    44  PRO44      -0.2715
     12  CB        -9.5020   -8.7860   -5.0420 C.3    44  PRO44       0.0310
     13  CG       -10.5430   -8.6370   -3.9580 C.3    44  PRO44       0.0237
     14  CD       -11.4670   -7.5670   -4.4300 C.3    44  PRO44       0.0939
     15  N        -10.3760   -7.2370   -7.9020 N.am   45  PHE45      -0.1974
     16  CA       -10.4380   -7.3750   -9.3470 C.3    45  PHE45       0.1639
     17  C        -10.2490   -6.0470  -10.0650 C.2    45  PHE45       0.2290
     18  O        -10.3910   -5.9880  -11.2920 O.2    45  PHE45      -0.2864
     19  CB       -11.7700   -8.0270   -9.7220 C.3    45  PHE45       0.0560
     20  CG       -11.9820   -9.3390   -9.0310 C.ar   45  PHE45      -0.0200
     21  CD1      -11.3810  -10.4870   -9.5240 C.ar   45  PHE45      -0.0042
     22  CD2      -12.7220   -9.4210   -7.8680 C.ar   45  PHE45      -0.0042
     23  CE1      -11.5360  -11.6940   -8.8820 C.ar   45  PHE45      -0.0003
     24  CE2      -12.8780  -10.6310   -7.2120 C.ar   45  PHE45      -0.0003
     25  CZ       -12.2900  -11.7680   -7.7230 C.ar   45  PHE45      -0.0000
     26  N         -7.4990   -4.2720  -10.4760 N.3    47  HIS47      -0.1227
     27  CA        -6.2160   -4.1540  -11.1480 C.3    47  HIS47       0.1737
     28  C         -5.6700   -5.5450  -11.4180 C.2    47  HIS47       0.2438
     29  O         -6.1250   -6.5240  -10.8180 O.2    47  HIS47      -0.2733
     30  CB        -5.2220   -3.3420  -10.3060 C.3    47  HIS47       0.0758
     31  CG        -5.7590   -2.0160   -9.8720 C.ar   47  HIS47       0.0818
     32  ND1       -5.8430   -0.9340  -10.7210 N.ar   47  HIS47      -0.2268
     33  CD2       -6.2640   -1.6030   -8.6850 C.ar   47  HIS47       0.1154
     34  CE1       -6.3650    0.0920  -10.0730 C.ar   47  HIS47       0.1986
     35  NE2       -6.6290   -0.2870   -8.8360 N.ar   47  HIS47      -0.2212
     36  N         -4.7120   -5.6680  -12.3330 N.am   48  PRO48      -0.2718
     37  CA        -4.1600   -6.9900  -12.6400 C.3    48  PRO48       0.1535
     38  C         -3.5170   -7.6340  -11.4210 C.2    48  PRO48       0.2598
     39  O         -2.9390   -6.9640  -10.5610 O.2    48  PRO48      -0.2715
     40  CB        -3.1170   -6.6960  -13.7250 C.3    48  PRO48       0.0310
     41  CG        -3.5660   -5.4130  -14.3440 C.3    48  PRO48       0.0237
     42  CD        -4.1820   -4.6210  -13.2250 C.3    48  PRO48       0.0939
     43  N         -3.6190   -8.9630  -11.3650 N.am   49  VAL49      -0.1964
     44  CA        -2.9140   -9.7320  -10.3490 C.3    49  VAL49       0.1727
     45  C         -1.4340   -9.3920  -10.4010 C.2    49  VAL49       0.2616
     46  O         -0.8110   -9.4210  -11.4680 O.2    49  VAL49      -0.2715
     47  CB        -3.1500  -11.2380  -10.5650 C.3    49  VAL49       0.0290
     48  CG1       -2.2230  -12.0430   -9.6740 C.3    49  VAL49       0.0023
     49  CG2       -4.6120  -11.6010  -10.3050 C.3    49  VAL49       0.0023
     50  N         -0.8670   -9.0560   -9.2460 N.am   50  ASP50      -0.1971
     51  CA         0.5590   -8.7610   -9.1170 C.3    50  ASP50       0.1709
     52  C          1.2250  -10.0100   -8.5510 C.2    50  ASP50       0.2293
     53  O          1.1620  -10.2670   -7.3450 O.2    50  ASP50      -0.2864
     54  CB         0.7790   -7.5420   -8.2260 C.3    50  ASP50       0.1436
     55  CG         2.2380   -7.1060   -8.1680 C.2    50  ASP50       0.3671
     56  OD1        3.1420   -7.9670   -8.2400 O.co2  50  ASP50      -0.2456
     57  OD2        2.4810   -5.8870   -8.0510 O.co2  50  ASP50      -0.2456
     58  N          1.9680  -10.7200   -4.5400 N.3    54  LEU54      -0.1245
     59  CA         1.1900  -11.8290   -4.0020 C.3    54  LEU54       0.1561
     60  C          2.0040  -13.1070   -3.8280 C.2    54  LEU54       0.2260
     61  O          1.4740  -14.0950   -3.3110 O.2    54  LEU54      -0.2867
     62  CB        -0.0200  -12.1070   -4.9060 C.3    54  LEU54       0.0270
     63  CG        -1.0740  -10.9970   -4.9360 C.3    54  LEU54       0.0019
     64  CD1       -2.1770  -11.2970   -5.9420 C.3    54  LEU54       0.0001
     65  CD2       -1.6640  -10.7870   -3.5470 C.3    54  LEU54       0.0001
     66  N          3.1080  -15.4230   -5.9850 N.3    56  VAL56      -0.1245
     67  CA         2.6130  -16.5760   -6.7340 C.3    56  VAL56       0.1561
     68  C          3.4310  -16.7080   -8.0140 C.2    56  VAL56       0.2260
     69  O          2.9400  -16.3850   -9.1050 O.2    56  VAL56      -0.2867
     70  CB         1.1080  -16.4530   -7.0200 C.3    56  VAL56       0.0252
     71  CG1        0.3190  -16.7120   -5.7440 C.3    56  VAL56       0.0019
     72  CG2        0.7730  -15.0750   -7.5860 C.3    56  VAL56       0.0019
     73  N          1.8630  -18.3410  -11.1410 N.3    59  TYR59      -0.1241
     74  CA         0.5100  -17.9310  -11.5080 C.3    59  TYR59       0.1605
     75  C          0.2900  -18.0160  -13.0170 C.2    59  TYR59       0.2264
     76  O         -0.7260  -18.5450  -13.4810 O.2    59  TYR59      -0.2867
     77  CB         0.2360  -16.5100  -10.9970 C.3    59  TYR59       0.0534
     78  CG        -1.1590  -15.9920  -11.3220 C.ar   59  TYR59      -0.0201
     79  CD1       -2.2370  -16.2790  -10.4890 C.ar   59  TYR59      -0.0009
     80  CD2       -1.3870  -15.2120  -12.4540 C.ar   59  TYR59      -0.0009
     81  CE1       -3.5220  -15.8070  -10.7800 C.ar   59  TYR59       0.0417
     82  CE2       -2.6640  -14.7360  -12.7580 C.ar   59  TYR59       0.0417
     83  CZ        -3.7220  -15.0370  -11.9100 C.ar   59  TYR59       0.1957
     84  OH        -4.9870  -14.5710  -12.2040 O.3    59  TYR59      -0.2866
     85  N         -9.7090  -16.6750  -11.5270 N.3    98  CYS98      -0.1235
     86  CA        -9.6940  -16.6080  -10.0720 C.3    98  CYS98       0.1677
     87  C        -10.0940  -17.9410   -9.4550 C.2    98  CYS98       0.2270
     88  O         -9.4250  -18.4520   -8.5480 O.2    98  CYS98      -0.2867
     89  CB       -10.6420  -15.5030   -9.6180 C.3    98  CYS98       0.0956
     90  SG       -10.7650  -15.3240   -7.8350 S.3    98  CYS98      -0.0801
     91  N         -7.3040  -20.7210  -10.1030 N.3   101  PHE101     -0.1227
     92  CA        -6.0790  -20.6360   -9.3210 C.3   101  PHE101      0.1736
     93  C         -6.3470  -20.8450   -7.8330 C.2   101  PHE101      0.2595
     94  O         -5.6350  -21.6100   -7.1660 O.2   101  PHE101     -0.2718
     95  CB        -5.3780  -19.3010   -9.5550 C.3   101  PHE101      0.0547
     96  CG        -4.0510  -19.2170   -8.8650 C.ar  101  PHE101     -0.0202
     97  CD1       -2.9420  -19.8330   -9.4190 C.ar  101  PHE101     -0.0042
     98  CD2       -3.9220  -18.5770   -7.6440 C.ar  101  PHE101     -0.0042
     99  CE1       -1.7180  -19.7900   -8.7810 C.ar  101  PHE101     -0.0003
    100  CE2       -2.6930  -18.5320   -6.9990 C.ar  101  PHE101     -0.0003
    101  CZ        -1.5890  -19.1410   -7.5750 C.ar  101  PHE101     -0.0000
    102  N         -7.3760  -20.1760   -7.2960 N.am  102  ASN102     -0.1974
    103  CA        -7.6070  -20.1460   -5.8530 C.3   102  ASN102      0.1688
    104  C         -8.5300  -21.2470   -5.3620 C.2   102  ASN102      0.2292
    105  O         -8.4540  -21.6160   -4.1800 O.2   102  ASN102     -0.2864
    106  CB        -8.1830  -18.7920   -5.4390 C.3   102  ASN102      0.1181
    107  CG        -7.2380  -17.6610   -5.7500 C.2   102  ASN102      0.2629
    108  OD1       -6.2230  -17.5040   -5.0800 O.2   102  ASN102     -0.2716
    109  ND2       -7.5500  -16.8820   -6.7840 N.am  102  ASN102     -0.0877
    110  N        -11.9890  -15.4270   -2.0270 N.3   108  ILE108     -0.1245
    111  CA       -11.8340  -14.6000   -3.2230 C.3   108  ILE108      0.1561
    112  C        -12.7010  -15.1380   -4.3570 C.2   108  ILE108      0.2260
    113  O        -13.2650  -14.3700   -5.1450 O.2   108  ILE108     -0.2867
    114  CB       -10.3500  -14.4990   -3.6280 C.3   108  ILE108      0.0252
    115  CG1      -10.1670  -13.5060   -4.7810 C.3   108  ILE108      0.0019
    116  CG2       -9.7830  -15.8640   -4.0160 C.3   108  ILE108      0.0019
    117  CD1      -10.3430  -12.0570   -4.3640 C.3   108  ILE108      0.0001
@<TRIPOS>BOND
     1    41    40    1
     2    41    42    1
     3    40    37    1
     4    76    75    2
     5    42    36    1
     6    75    74    1
     7    82    80   ar
     8    82    83   ar
     9    37    36    1
    10    37    38    1
    11    80    78   ar
    12    36    28   am
    13    84    83    1
    14    83    81   ar
    15    85    86    1
    16    74    73    1
    17    74    77    1
    18    46    45    2
    19    38    43   am
    20    38    39    2
    21    28    27    1
    22    28    29    2
    23    43    44    1
    24    78    77    1
    25    78    79   ar
    26    18    17    2
    27    27    26    1
    28    27    30    1
    29    81    79   ar
    30    32    34   ar
    31    32    31   ar
    32    47    44    1
    33    47    49    1
    34    47    48    1
    35    45    44    1
    36    45    50   am
    37    30    31    1
    38    91    92    1
    39    34    35   ar
    40    86    89    1
    41    86    87    1
    42    17    16    1
    43    31    33   ar
    44    19    16    1
    45    19    20    1
    46    89    90    1
    47    95    92    1
    48    95    96    1
    49    21    20   ar
    50    21    23   ar
    51    87    88    2
    52    97    96   ar
    53    97    99   ar
    54    16    15    1
    55    92    93    1
    56    50    51    1
    57    51    52    1
    58    51    54    1
    59    69    68    2
    60    20    22   ar
    61    23    25   ar
    62    96    98   ar
    63    35    33   ar
    64    99   101   ar
    65    52    53    2
    66    56    55   ar
    67    54    55    1
    68    55    57   ar
    69    68    67    1
    70    15    10   am
    71    22    24   ar
    72    93   102   am
    73    93    94    2
    74    25    24   ar
    75    11    10    2
    76    98   100   ar
    77    72    70    1
    78   101   100   ar
    79   102   103    1
    80    10     9    1
    81    70    67    1
    82    70    71    1
    83   109   107   am
    84    67    66    1
    85     4     3    2
    86    64    63    1
    87   103   106    1
    88   103   104    1
    89   107   106    1
    90   107   108    2
    91     9     8    1
    92     9    12    1
    93     3     8   am
    94     3     2    1
    95   104   105    2
    96     1     2    1
    97     8    14    1
    98   113   112    2
    99    12    13    1
   100    63    62    1
   101    63    65    1
   102     2     5    1
   103    62    59    1
   104   115   117    1
   105   115   114    1
   106    58    59    1
   107    14    13    1
   108   112   111    1
   109   116   114    1
   110    59    60    1
   111    60    61    2
   112   114   111    1
   113     5     6    1
   114     5     7    1
   115   111   110    1
