@<TRIPOS>MOLECULE
tmp/5n18A00.pdb
 126 124 0 0 0
SMALL
GASTEIGER

@<TRIPOS>ATOM
      1  N         50.6790    5.6130   32.3190 N.3    26  PHE26      -0.1228
      2  CA        51.4200    4.8980   33.3580 C.3    26  PHE26       0.1721
      3  C         52.5500    5.6980   34.0090 C.2    26  PHE26       0.2437
      4  O         52.7520    5.5310   35.2250 O.2    26  PHE26      -0.2733
      5  CB        51.8290    3.4840   32.9070 C.3    26  PHE26       0.0547
      6  CG        52.9980    3.4470   31.9620 C.ar   26  PHE26      -0.0202
      7  CD1       54.3010    3.4700   32.4420 C.ar   26  PHE26      -0.0042
      8  CD2       52.7950    3.3590   30.5950 C.ar   26  PHE26      -0.0042
      9  CE1       55.3760    3.4320   31.5710 C.ar   26  PHE26      -0.0003
     10  CE2       53.8640    3.3150   29.7200 C.ar   26  PHE26      -0.0003
     11  CZ        55.1560    3.3520   30.2070 C.ar   26  PHE26      -0.0000
     12  N         53.3030    6.5610   33.3100 N.am   27  PRO27      -0.2718
     13  CA        54.3350    7.3470   34.0100 C.3    27  PRO27       0.1535
     14  C         53.7830    8.3830   34.9740 C.2    27  PRO27       0.2598
     15  O         54.5570    8.9180   35.7790 O.2    27  PRO27      -0.2715
     16  CB        55.1040    8.0260   32.8660 C.3    27  PRO27       0.0310
     17  CG        54.8090    7.2100   31.6640 C.3    27  PRO27       0.0237
     18  CD        53.3940    6.7620   31.8510 C.3    27  PRO27       0.0939
     19  N         52.4850    8.6810   34.9300 N.am   28  PHE28      -0.1974
     20  CA        51.9170    9.7990   35.6740 C.3    28  PHE28       0.1639
     21  C         50.9410    9.3650   36.7640 C.2    28  PHE28       0.2290
     22  O         50.2940   10.2210   37.3780 O.2    28  PHE28      -0.2864
     23  CB        51.2440   10.7820   34.7110 C.3    28  PHE28       0.0560
     24  CG        52.0560   11.0680   33.4780 C.ar   28  PHE28      -0.0200
     25  CD1       53.2200   11.8160   33.5600 C.ar   28  PHE28      -0.0042
     26  CD2       51.6600   10.5840   32.2400 C.ar   28  PHE28      -0.0042
     27  CE1       53.9740   12.0780   32.4280 C.ar   28  PHE28      -0.0003
     28  CE2       52.4080   10.8440   31.1040 C.ar   28  PHE28      -0.0003
     29  CZ        53.5690   11.5920   31.2000 C.ar   28  PHE28      -0.0000
     30  N         56.8340   10.5520   40.6570 N.3    32  VAL32      -0.1245
     31  CA        58.0120   10.0620   39.9500 C.3    32  VAL32       0.1561
     32  C         58.9710    9.4180   40.9410 C.2    32  VAL32       0.2260
     33  O         59.3130   10.0050   41.9750 O.2    32  VAL32      -0.2867
     34  CB        58.6770   11.2100   39.1750 C.3    32  VAL32       0.0252
     35  CG1       59.9550   10.7320   38.5090 C.3    32  VAL32       0.0019
     36  CG2       57.7100   11.7820   38.1400 C.3    32  VAL32       0.0019
     37  N         64.3250    5.4560   38.7850 N.3    37  LEU37      -0.1231
     38  CA        64.5940    5.9640   37.4480 C.3    37  LEU37       0.1693
     39  C         65.9650    6.6150   37.3190 C.2    37  LEU37       0.2592
     40  O         66.3230    7.0540   36.2200 O.2    37  LEU37      -0.2718
     41  CB        63.4950    6.9400   37.0220 C.3    37  LEU37       0.0284
     42  CG        62.1220    6.2890   36.8310 C.3    37  LEU37       0.0019
     43  CD1       61.0500    7.3400   36.5810 C.3    37  LEU37       0.0001
     44  CD2       62.1710    5.2820   35.6880 C.3    37  LEU37       0.0001
     45  N         66.7340    6.6880   38.4080 N.am   38  ASN38      -0.1960
     46  CA        68.1030    7.2070   38.3730 C.3    38  ASN38       0.1819
     47  C         68.1420    8.6590   37.8980 C.2    38  ASN38       0.2621
     48  O         68.9760    9.0430   37.0740 O.2    38  ASN38      -0.2715
     49  CB        69.0220    6.3070   37.5390 C.3    38  ASN38       0.1195
     50  CG        70.4930    6.5690   37.7950 C.2    38  ASN38       0.2630
     51  OD1       70.8580    7.2880   38.7240 O.2    38  ASN38      -0.2716
     52  ND2       71.3480    5.9760   36.9700 N.am   38  ASN38      -0.0877
     53  N         67.2300    9.4760   38.4200 N.am   39  ILE39      -0.1977
     54  CA        67.1490   10.8820   38.0290 C.3    39  ILE39       0.1596
     55  C         67.2230   11.7950   39.2480 C.2    39  ILE39       0.2287
     56  O         66.2160   12.4130   39.6250 O.2    39  ILE39      -0.2864
     57  CB        65.9110   11.1650   37.1610 C.3    39  ILE39       0.0276
     58  CG1       64.6590   10.5060   37.7490 C.3    39  ILE39       0.0022
     59  CG2       66.1500   10.6860   35.7450 C.3    39  ILE39       0.0022
     60  CD1       63.3870   10.8200   36.9740 C.3    39  ILE39       0.0001
     61  N         65.7470   15.3920   38.7720 N.3    42  TYR42      -0.1241
     62  CA        64.3190   15.6970   38.7100 C.3    42  TYR42       0.1605
     63  C         63.9220   16.6780   39.8060 C.2    42  TYR42       0.2264
     64  O         63.2240   17.6660   39.5510 O.2    42  TYR42      -0.2867
     65  CB        63.5040   14.4040   38.8100 C.3    42  TYR42       0.0534
     66  CG        62.0010   14.5980   38.9220 C.ar   42  TYR42      -0.0201
     67  CD1       61.2150   14.7890   37.7920 C.ar   42  TYR42      -0.0009
     68  CD2       61.3680   14.5700   40.1600 C.ar   42  TYR42      -0.0009
     69  CE1       59.8380   14.9580   37.8960 C.ar   42  TYR42       0.0417
     70  CE2       59.9970   14.7360   40.2720 C.ar   42  TYR42       0.0417
     71  CZ        59.2390   14.9300   39.1390 C.ar   42  TYR42       0.1957
     72  OH        57.8730   15.0950   39.2510 O.3    42  TYR42      -0.2866
     73  N         51.0420   18.5630   36.0310 N.3    77  VAL77      -0.1245
     74  CA        51.5820   17.2530   35.6660 C.3    77  VAL77       0.1561
     75  C         52.2260   17.3190   34.2900 C.2    77  VAL77       0.2260
     76  O         53.3580   16.8660   34.0840 O.2    77  VAL77      -0.2867
     77  CB        50.4770   16.1810   35.7180 C.3    77  VAL77       0.0252
     78  CG1       50.9880   14.8470   35.1700 C.3    77  VAL77       0.0019
     79  CG2       49.9540   16.0150   37.1350 C.3    77  VAL77       0.0019
     80  N         55.3920   19.7780   33.9960 N.3    80  ASN80      -0.1225
     81  CA        56.5960   19.1270   34.5030 C.3    80  ASN80       0.1785
     82  C         57.0850   18.0580   33.5370 C.2    80  ASN80       0.2597
     83  O         58.2960   17.8890   33.3440 O.2    80  ASN80      -0.2718
     84  CB        56.3240   18.5180   35.8780 C.3    80  ASN80       0.1169
     85  CG        56.0270   19.5620   36.9370 C.2    80  ASN80       0.2627
     86  OD1       56.4070   20.7270   36.8090 O.2    80  ASN80      -0.2716
     87  ND2       55.3570   19.1400   38.0030 N.am   80  ASN80      -0.0877
     88  N         56.1530   17.3250   32.9220 N.am   81  CYS81      -0.1970
     89  CA        56.5220   16.3160   31.9350 C.3    81  CYS81       0.1712
     90  C         57.3000   16.9370   30.7820 C.2    81  CYS81       0.2296
     91  O         58.3730   16.4490   30.4070 O.2    81  CYS81      -0.2864
     92  CB        55.2650   15.6140   31.4220 C.3    81  CYS81       0.0983
     93  SG        55.5540   14.4640   30.0570 S.3    81  CYS81      -0.0798
     94  N         60.8900   18.1000   31.9000 N.3    84  PHE84      -0.1227
     95  CA        61.8990   17.0810   32.1530 C.3    84  PHE84       0.1736
     96  C         62.1510   16.1720   30.9600 C.2    84  PHE84       0.2595
     97  O         63.2840   15.7120   30.7730 O.2    84  PHE84      -0.2718
     98  CB        61.5240   16.2330   33.3710 C.3    84  PHE84       0.0547
     99  CG        62.6450   15.3650   33.8550 C.ar   84  PHE84      -0.0202
    100  CD1       63.6570   15.9030   34.6340 C.ar   84  PHE84      -0.0042
    101  CD2       62.7030   14.0230   33.5150 C.ar   84  PHE84      -0.0042
    102  CE1       64.7050   15.1150   35.0780 C.ar   84  PHE84      -0.0003
    103  CE2       63.7510   13.2260   33.9570 C.ar   84  PHE84      -0.0003
    104  CZ        64.7510   13.7760   34.7390 C.ar   84  PHE84      -0.0000
    105  N         61.1290   15.9000   30.1530 N.am   85  ASN85      -0.1961
    106  CA        61.2520   14.9820   29.0270 C.3    85  ASN85       0.1804
    107  C         61.2760   15.7730   27.7280 C.2    85  ASN85       0.2463
    108  O         60.2550   16.3770   27.3600 O.2    85  ASN85      -0.2730
    109  CB        60.0790   14.0020   29.0300 C.3    85  ASN85       0.1195
    110  CG        60.0180   13.1770   30.3010 C.2    85  ASN85       0.2630
    111  OD1       60.7380   12.1910   30.4450 O.2    85  ASN85      -0.2716
    112  ND2       59.1580   13.5800   31.2310 N.am   85  ASN85      -0.0877
    113  N         62.3960   15.7990   27.0060 N.am   86  PRO86      -0.2727
    114  CA        62.4750   16.6160   25.7890 C.3    86  PRO86       0.1402
    115  C         61.4880   16.1670   24.7220 C.2    86  PRO86       0.2269
    116  O         61.0850   15.0030   24.6580 O.2    86  PRO86      -0.2865
    117  CB        63.9200   16.4100   25.3180 C.3    86  PRO86       0.0296
    118  CG        64.6690   16.0090   26.5490 C.3    86  PRO86       0.0237
    119  CD        63.6950   15.2020   27.3620 C.3    86  PRO86       0.0939
    120  N         58.2290    9.4580   26.7880 N.3    91  VAL91      -0.1245
    121  CA        57.3840    9.9650   27.8660 C.3    91  VAL91       0.1561
    122  C         56.8010   11.3300   27.5090 C.2    91  VAL91       0.2260
    123  O         55.6620   11.6430   27.8750 O.2    91  VAL91      -0.2867
    124  CB        58.1550    9.9690   29.2020 C.3    91  VAL91       0.0252
    125  CG1       57.3300   10.6190   30.3000 C.3    91  VAL91       0.0019
    126  CG2       58.5450    8.5460   29.6020 C.3    91  VAL91       0.0019
@<TRIPOS>BOND
     1   116   115    2
     2   115   114    1
     3   117   114    1
     4   117   118    1
     5   114   113    1
     6   118   119    1
     7   120   121    1
     8   113   119    1
     9   113   107   am
    10   108   107    2
    11   122   121    1
    12   122   123    2
    13   107   106    1
    14   121   124    1
    15   106   109    1
    16   106   105    1
    17   109   110    1
    18   124   126    1
    19   124   125    1
    20    10    11   ar
    21    10     8   ar
    22    93    92    1
    23   105    96   am
    24    11     9   ar
    25   110   111    2
    26   110   112   am
    27    91    90    2
    28     8     6   ar
    29    97    96    2
    30    90    89    1
    31    96    95    1
    32    28    29   ar
    33    28    26   ar
    34    29    27   ar
    35    92    89    1
    36     9     7   ar
    37    17    18    1
    38    17    16    1
    39    18    12    1
    40    94    95    1
    41    89    88    1
    42     6     7   ar
    43     6     5    1
    44    95    98    1
    45    26    24   ar
    46     1     2    1
    47    27    25   ar
    48    16    13    1
    49     5     2    1
    50    88    82   am
    51    12     3   am
    52    12    13    1
    53    83    82    2
    54     2     3    1
    55    98    99    1
    56    24    25   ar
    57    24    23    1
    58   101    99   ar
    59   101   103   ar
    60    82    81    1
    61    99   100   ar
    62   103   104   ar
    63    80    81    1
    64     3     4    2
    65    13    14    1
    66    76    75    2
    67    75    74    1
    68    81    84    1
    69   100   102   ar
    70    23    20    1
    71   104   102   ar
    72    19    14   am
    73    19    20    1
    74    14    15    2
    75    78    77    1
    76    74    77    1
    77    74    73    1
    78    20    21    1
    79    44    42    1
    80    77    79    1
    81    59    57    1
    82    84    85    1
    83    40    39    2
    84    43    42    1
    85    21    22    2
    86    86    85    2
    87    42    41    1
    88    85    87   am
    89    52    50   am
    90    60    58    1
    91    41    38    1
    92    48    47    2
    93    57    58    1
    94    57    54    1
    95    39    38    1
    96    39    45   am
    97    38    37    1
    98    49    50    1
    99    49    46    1
   100    67    69   ar
   101    67    66   ar
   102    50    51    2
   103    69    71   ar
   104    47    46    1
   105    47    53   am
   106    54    53    1
   107    54    55    1
   108    36    34    1
   109    46    45    1
   110    35    34    1
   111    62    61    1
   112    62    65    1
   113    62    63    1
   114    65    66    1
   115    66    68   ar
   116    71    72    1
   117    71    70   ar
   118    34    31    1
   119    55    56    2
   120    64    63    2
   121    31    30    1
   122    31    32    1
   123    68    70   ar
   124    32    33    2
