@<TRIPOS>MOLECULE
tmp/5n19A00.pdb
 200 197 0 0 0
SMALL
GASTEIGER

@<TRIPOS>ATOM
      1  N        -21.6760  -11.3370  -26.5580 N.3    25  THR25      -0.1203
      2  CA       -20.5290  -10.4710  -26.0080 C.3    25  THR25       0.1994
      3  C        -19.2620  -11.3020  -26.0280 C.2    25  THR25       0.2619
      4  O        -19.2270  -12.3790  -25.4640 O.2    25  THR25      -0.2717
      5  CB       -20.8380  -10.0530  -24.5610 C.3    25  THR25       0.1784
      6  OG1      -22.0360   -9.2460  -24.5390 O.3    25  THR25      -0.2211
      7  CG2      -19.6470   -9.1910  -23.9870 C.3    25  THR25       0.0376
      8  N        -18.2090  -10.7450  -26.6120 N.am   26  THR26      -0.1938
      9  CA       -16.9520  -11.3930  -26.6760 C.3    26  THR26       0.2028
     10  C        -15.8610  -10.4110  -26.1620 C.2    26  THR26       0.2642
     11  O        -15.9100   -9.2730  -26.5560 O.2    26  THR26      -0.2714
     12  CB       -16.6000  -11.6910  -28.1280 C.3    26  THR26       0.1808
     13  OG1      -17.4420  -12.8310  -28.5450 O.3    26  THR26      -0.2208
     14  CG2      -15.2440  -12.2610  -28.3030 C.3    26  THR26       0.0379
     15  N        -15.0040  -10.9310  -25.3300 N.am   27  LEU27      -0.1977
     16  CA       -13.8610  -10.1580  -24.8900 C.3    27  LEU27       0.1596
     17  C        -12.7130  -11.0700  -24.4900 C.2    27  LEU27       0.2287
     18  O        -12.7080  -12.2350  -24.8120 O.2    27  LEU27      -0.2864
     19  CB       -14.3220   -9.2170  -23.7850 C.3    27  LEU27       0.0297
     20  CG       -15.1610   -9.7170  -22.6260 C.3    27  LEU27       0.0022
     21  CD1      -14.5450  -10.8620  -21.9200 C.3    27  LEU27       0.0001
     22  CD2      -15.5730   -8.7180  -21.6280 C.3    27  LEU27       0.0001
     23  N        -18.7540   -8.1820  -16.8510 N.3    41  HIS41      -0.1241
     24  CA       -19.6330   -7.6900  -17.8600 C.3    41  HIS41       0.1621
     25  C        -19.7480   -8.4690  -19.2200 C.2    41  HIS41       0.2264
     26  O        -20.5870   -8.1170  -20.0410 O.2    41  HIS41      -0.2867
     27  CB       -19.5840   -6.1800  -18.0240 C.3    41  HIS41       0.0745
     28  CG       -18.4170   -5.6750  -18.8300 C.ar   41  HIS41       0.0817
     29  ND1      -17.3770   -4.9600  -18.2730 N.ar   41  HIS41      -0.2268
     30  CD2      -18.1500   -5.7480  -20.1560 C.ar   41  HIS41       0.1154
     31  CE1      -16.5190   -4.6160  -19.2260 C.ar   41  HIS41       0.1986
     32  NE2      -16.9260   -5.1170  -20.3740 N.ar   41  HIS41      -0.2212
     33  N        -23.3390   -9.3830  -19.7230 N.3    44  CYS44      -0.1221
     34  CA       -24.2530   -8.3510  -20.0860 C.3    44  CYS44       0.1808
     35  C        -24.3940   -8.0310  -21.5880 C.2    44  CYS44       0.2602
     36  O        -23.4130   -7.9280  -22.3650 O.2    44  CYS44      -0.2717
     37  CB       -23.7520   -7.1030  -19.4030 C.3    44  CYS44       0.0970
     38  SG       -23.7200   -7.2220  -17.6250 S.3    44  CYS44      -0.0800
     39  N        -25.6210   -7.6570  -21.9490 N.am   45  THR45      -0.1939
     40  CA       -25.8210   -6.8900  -23.2090 C.3    45  THR45       0.2028
     41  C        -25.6450   -5.3670  -22.9620 C.2    45  THR45       0.2642
     42  O        -25.5460   -4.9260  -21.8000 O.2    45  THR45      -0.2714
     43  CB       -27.2500   -7.0380  -23.6980 C.3    45  THR45       0.1808
     44  OG1      -28.1210   -6.4350  -22.7360 O.3    45  THR45      -0.2208
     45  CG2      -27.5690   -8.5150  -23.8440 C.3    45  THR45       0.0379
     46  N        -25.6410   -4.5780  -24.0430 N.am   46  ALA46      -0.1977
     47  CA       -25.6580   -3.0960  -23.9120 C.3    46  ALA46       0.1597
     48  C        -26.8110   -2.5700  -23.0330 C.2    46  ALA46       0.2287
     49  O        -26.6020   -1.6470  -22.2070 O.2    46  ALA46      -0.2864
     50  CB       -25.6680   -2.4270  -25.2930 C.3    46  ALA46       0.0319
     51  N        -26.2720   -2.9850  -19.2380 N.3    49  MET49      -0.1245
     52  CA       -25.2780   -2.0800  -18.5610 C.3    49  MET49       0.1570
     53  C        -25.8640   -0.8240  -17.9250 C.2    49  MET49       0.2261
     54  O        -25.2810   -0.1740  -17.0090 O.2    49  MET49      -0.2867
     55  CB       -24.1870   -1.6900  -19.5620 C.3    49  MET49       0.0387
     56  CG       -23.4120   -2.8760  -20.0030 C.3    49  MET49       0.0595
     57  SD       -22.6190   -3.8680  -18.7080 S.3    49  MET49      -0.1393
     58  CE       -21.4620   -2.7240  -17.9490 C.3    49  MET49       0.0692
     59  N         -7.1120    1.9930  -26.4680 N.3   140  PHE140     -0.1227
     60  CA        -8.0060    0.8120  -26.4940 C.3   140  PHE140      0.1736
     61  C         -9.2160    1.0760  -27.3400 C.2   140  PHE140      0.2595
     62  O         -9.8320    2.1660  -27.2810 O.2   140  PHE140     -0.2718
     63  CB        -8.4790    0.5630  -25.0780 C.3   140  PHE140      0.0547
     64  CG        -7.4970    0.0310  -24.1030 C.ar  140  PHE140     -0.0202
     65  CD1       -6.9020   -1.1900  -24.2560 C.ar  140  PHE140     -0.0042
     66  CD2       -7.2390    0.7420  -22.9210 C.ar  140  PHE140     -0.0042
     67  CE1       -6.0810   -1.7100  -23.2610 C.ar  140  PHE140     -0.0003
     68  CE2       -6.3320    0.2540  -21.9750 C.ar  140  PHE140     -0.0003
     69  CZ        -5.8830   -1.0180  -22.0650 C.ar  140  PHE140     -0.0000
     70  N         -9.5700    0.0360  -28.0900 N.am  141  LEU141     -0.1966
     71  CA       -10.7850    0.0690  -28.9040 C.3   141  LEU141      0.1728
     72  C        -11.8240   -0.9150  -28.4460 C.2   141  LEU141      0.2616
     73  O        -11.6230   -1.7180  -27.5180 O.2   141  LEU141     -0.2715
     74  CB       -10.4120   -0.1900  -30.3490 C.3   141  LEU141      0.0311
     75  CG        -9.3710    0.6820  -31.0270 C.3   141  LEU141      0.0022
     76  CD1       -9.0850    0.2160  -32.4350 C.3   141  LEU141      0.0001
     77  CD2       -9.9080    2.1030  -31.0710 C.3   141  LEU141      0.0001
     78  N        -13.0430   -0.8990  -29.0700 N.am  142  ASN142     -0.1958
     79  CA       -14.0020   -1.9850  -28.7520 C.3   142  ASN142      0.1819
     80  C        -13.3210   -3.3160  -28.9270 C.2   142  ASN142      0.2622
     81  O        -12.5680   -3.5050  -29.9070 O.2   142  ASN142     -0.2715
     82  CB       -15.2210   -1.9840  -29.6840 C.3   142  ASN142      0.1195
     83  CG       -16.0820   -0.7780  -29.5410 C.2   142  ASN142      0.2630
     84  OD1      -16.1430   -0.1640  -28.4980 O.2   142  ASN142     -0.2716
     85  ND2      -16.7780   -0.4300  -30.6310 N.am  142  ASN142     -0.0877
     86  N        -13.6480   -4.2170  -28.0390 N.am  143  GLY143     -0.1940
     87  CA       -13.0410   -5.5230  -27.9070 C.3   143  GLY143      0.2014
     88  C        -11.8400   -5.7560  -27.0320 C.2   143  GLY143      0.2640
     89  O        -11.3240   -6.8660  -26.9280 O.2   143  GLY143     -0.2714
     90  N        -11.2830   -4.6610  -26.5490 N.am  144  SER144     -0.1935
     91  CA       -10.0570   -4.7380  -25.7370 C.3   144  SER144      0.2055
     92  C        -10.2970   -5.1010  -24.2990 C.2   144  SER144      0.2643
     93  O         -9.3500   -5.4490  -23.5700 O.2   144  SER144     -0.2714
     94  CB        -9.3950   -3.3390  -25.6970 C.3   144  SER144      0.2130
     95  OG       -10.2130   -2.3310  -25.2420 O.3   144  SER144     -0.2179
     96  N        -11.5600   -5.1240  -23.8640 N.am  145  CYS145     -0.1967
     97  CA       -11.8070   -5.4840  -22.4930 C.3   145  CYS145      0.1712
     98  C        -11.1310   -6.8460  -22.1190 C.2   145  CYS145      0.2296
     99  O        -11.1760   -7.8280  -22.9060 O.2   145  CYS145     -0.2864
    100  CB       -13.2640   -5.5260  -22.1650 C.3   145  CYS145      0.0983
    101  SG       -14.0460   -3.9170  -22.1680 S.3   145  CYS145     -0.0798
    102  N         -8.5300   -4.5760  -18.1040 N.3   163  HIS163     -0.1226
    103  CA        -9.2460   -3.4660  -18.6780 C.3   163  HIS163      0.1752
    104  C        -10.7740   -3.6880  -18.7150 C.2   163  HIS163      0.2596
    105  O        -11.2010   -4.7440  -19.1650 O.2   163  HIS163     -0.2718
    106  CB        -8.7830   -3.2350  -20.1080 C.3   163  HIS163      0.0759
    107  CG        -9.3780   -2.0160  -20.6880 C.ar  163  HIS163      0.0818
    108  ND1       -9.3450   -0.7880  -20.0400 N.ar  163  HIS163     -0.2268
    109  CD2      -10.0020   -1.8280  -21.8720 C.ar  163  HIS163      0.1154
    110  CE1      -10.0680    0.0540  -20.7440 C.ar  163  HIS163      0.1986
    111  NE2      -10.4360   -0.5230  -21.8980 N.ar  163  HIS163     -0.2212
    112  N        -11.5330   -2.6980  -18.3470 N.am  164  HIS164     -0.1961
    113  CA       -13.0190   -2.7070  -18.3750 C.3   164  HIS164      0.1787
    114  C        -13.6790   -1.6040  -19.1740 C.2   164  HIS164      0.2620
    115  O        -14.7210   -1.8550  -19.7930 O.2   164  HIS164     -0.2715
    116  CB       -13.6440   -2.6630  -16.9420 C.3   164  HIS164      0.0785
    117  CG       -13.3280   -3.8470  -16.1150 C.ar  164  HIS164      0.0821
    118  ND1      -14.3600   -4.6650  -15.6060 N.ar  164  HIS164     -0.2267
    119  CD2      -12.1610   -4.3810  -15.6810 C.ar  164  HIS164      0.1154
    120  CE1      -13.8090   -5.6380  -14.9020 C.ar  164  HIS164      0.1986
    121  NE2      -12.4780   -5.4930  -14.8980 N.ar  164  HIS164     -0.2212
    122  N        -13.2360   -0.3470  -19.1530 N.am  165  MET165     -0.1963
    123  CA       -14.0320    0.6970  -19.7650 C.3   165  MET165      0.1736
    124  C        -13.2550    1.9630  -20.1180 C.2   165  MET165      0.2616
    125  O        -12.1190    2.1760  -19.6040 O.2   165  MET165     -0.2715
    126  CB       -15.1660    1.1230  -18.8610 C.3   165  MET165      0.0427
    127  CG       -14.6950    1.7180  -17.6330 C.3   165  MET165      0.0599
    128  SD       -16.1010    1.6620  -16.4330 S.3   165  MET165     -0.1393
    129  CE       -15.9230    3.3190  -15.9750 C.3   165  MET165      0.0692
    130  N        -13.8350    2.7490  -21.0000 N.am  166  GLU166     -0.1963
    131  CA       -13.3670    4.0680  -21.3570 C.3   166  GLU166      0.1733
    132  C        -14.2900    5.1140  -20.8160 C.2   166  GLU166      0.2616
    133  O        -15.5080    4.9760  -20.8950 O.2   166  GLU166     -0.2715
    134  CB       -13.3050    4.2120  -22.8970 C.3   166  GLU166      0.0429
    135  CG       -12.6140    5.4740  -23.3600 C.3   166  GLU166      0.1163
    136  CD       -12.3400    5.3960  -24.8610 C.2   166  GLU166      0.3649
    137  OE1      -13.0780    6.1290  -25.5950 O.co2 166  GLU166     -0.2457
    138  OE2      -11.4580    4.6470  -25.3380 O.co2 166  GLU166     -0.2457
    139  N        -13.7100    6.1480  -20.2360 N.am  167  LEU167     -0.1964
    140  CA       -14.4590    7.2870  -19.7090 C.3   167  LEU167      0.1713
    141  C        -14.6270    8.3770  -20.6930 C.2   167  LEU167      0.2458
    142  O        -14.0990    8.3670  -21.7820 O.2   167  LEU167     -0.2730
    143  CB       -13.7590    7.8080  -18.4260 C.3   167  LEU167      0.0310
    144  CG       -13.6630    6.8320  -17.3040 C.3   167  LEU167      0.0022
    145  CD1      -12.6330    7.2560  -16.2920 C.3   167  LEU167      0.0001
    146  CD2      -14.9820    6.7360  -16.5690 C.3   167  LEU167      0.0001
    147  N        -15.4850    9.3550  -20.3890 N.am  168  PRO168     -0.2727
    148  CA       -15.7920   10.3310  -21.4610 C.3   168  PRO168      0.1402
    149  C        -14.7070   11.1590  -22.0450 C.2   168  PRO168      0.2269
    150  O        -14.7840   11.5570  -23.2550 O.2   168  PRO168     -0.2865
    151  CB       -16.8520   11.2190  -20.8130 C.3   168  PRO168      0.0296
    152  CG       -17.5750   10.2760  -19.9010 C.3   168  PRO168      0.0237
    153  CD       -16.5160    9.3220  -19.3420 C.3   168  PRO168      0.0939
    154  N         -8.9360    5.5480  -19.4760 N.3   172  HIS172     -0.1241
    155  CA        -9.3580    4.1060  -19.2980 C.3   172  HIS172      0.1621
    156  C         -9.3620    3.7380  -17.8240 C.2   172  HIS172      0.2264
    157  O         -8.5840    4.2570  -17.0610 O.2   172  HIS172     -0.2867
    158  CB        -8.4160    3.2340  -20.0600 C.3   172  HIS172      0.0745
    159  CG        -8.5030    3.5690  -21.5290 C.ar  172  HIS172      0.0817
    160  ND1       -7.5540    4.3350  -22.2110 N.ar  172  HIS172     -0.2268
    161  CD2       -9.5390    3.4150  -22.4020 C.ar  172  HIS172      0.1154
    162  CE1       -7.9860    4.5780  -23.4490 C.ar  172  HIS172      0.1986
    163  NE2       -9.1560    3.9700  -23.6100 N.ar  172  HIS172     -0.2212
    164  N        -18.7700   -0.7340  -12.8390 N.3   187  ASP187     -0.1225
    165  CA       -19.1240   -1.3930  -14.1170 C.3   187  ASP187      0.1805
    166  C        -20.5990   -1.3360  -14.4130 C.2   187  ASP187      0.2598
    167  O        -21.2680   -2.4620  -14.5810 O.2   187  ASP187     -0.2718
    168  CB       -18.5060   -2.7910  -14.2790 C.3   187  ASP187      0.1424
    169  CG       -18.8740   -3.8250  -13.1780 C.2   187  ASP187      0.3668
    170  OD1      -19.4200   -3.4940  -12.0980 O.co2 187  ASP187     -0.2456
    171  OD2      -18.4590   -5.0070  -13.2900 O.co2 187  ASP187     -0.2456
    172  N        -21.1090   -0.1200  -14.5300 N.am  188  ARG188     -0.1966
    173  CA       -22.4450    0.1350  -15.0150 C.3   188  ARG188      0.1729
    174  C        -22.5040    1.5490  -15.5690 C.2   188  ARG188      0.2616
    175  O        -21.6440    2.4010  -15.2480 O.2   188  ARG188     -0.2715
    176  CB       -23.4860   -0.0750  -13.9040 C.3   188  ARG188      0.0348
    177  CG       -23.3900    0.8610  -12.7240 C.3   188  ARG188      0.0492
    178  CD       -24.3040    0.4560  -11.5730 C.3   188  ARG188      0.2205
    179  NE       -23.9850   -0.8890  -11.1450 N.pl3 188  ARG188     -0.0865
    180  CZ       -24.8690   -1.8640  -10.9770 C.cat 188  ARG188      0.5346
    181  NH1      -26.1650   -1.6190  -11.1490 N.pl3 188  ARG188      0.1354
    182  NH2      -24.4240   -3.0600  -10.6190 N.pl3 188  ARG188      0.1354
    183  N        -23.4600    1.8030  -16.4560 N.am  189  GLN189     -0.1977
    184  CA       -23.6670    3.1920  -17.0130 C.3   189  GLN189      0.1601
    185  C        -24.0020    4.2230  -15.9860 C.2   189  GLN189      0.2287
    186  O        -25.0580    4.1290  -15.3130 O.2   189  GLN189     -0.2864
    187  CB       -24.8490    3.2300  -17.9740 C.3   189  GLN189      0.0394
    188  CG       -24.5880    4.1800  -19.1130 C.3   189  GLN189      0.0908
    189  CD       -23.4740    3.6550  -19.9720 C.2   189  GLN189      0.2608
    190  OE1      -22.4750    4.3340  -20.1620 O.2   189  GLN189     -0.2717
    191  NE2      -23.5980    2.3960  -20.4260 N.am  189  GLN189     -0.0878
    192  N        -20.3730    8.8020  -14.4070 N.3   192  GLN192     -0.1245
    193  CA       -18.9890    8.8200  -13.8950 C.3   192  GLN192      0.1566
    194  C        -17.9610    9.4480  -14.8580 C.2   192  GLN192      0.2260
    195  O        -18.0480    9.3920  -16.1000 O.2   192  GLN192     -0.2867
    196  CB       -18.5670    7.4590  -13.3270 C.3   192  GLN192      0.0367
    197  CG       -18.5790    6.4130  -14.4020 C.3   192  GLN192      0.0905
    198  CD       -18.4800    4.9790  -13.8440 C.2   192  GLN192      0.2608
    199  OE1      -17.8960    4.7400  -12.7850 O.2   192  GLN192     -0.2717
    200  NE2      -19.1060    4.0140  -14.5580 N.am  192  GLN192     -0.0878
@<TRIPOS>BOND
     1    76    75    1
     2    77    75    1
     3    75    74    1
     4    85    83   am
     5    74    71    1
     6    81    80    2
     7    82    83    1
     8    82    79    1
     9    83    84    2
    10    78    79    1
    11    78    72   am
    12    80    79    1
    13    80    86   am
    14    71    72    1
    15    71    70    1
    16    13    12    1
    17    72    73    2
    18    14    12    1
    19    12     9    1
    20    70    61   am
    21    86    87    1
    22    87    88    1
    23    61    62    2
    24    61    60    1
    25    88    89    2
    26    88    90   am
    27     9     8    1
    28     9    10    1
    29     8     3   am
    30     1     2    1
    31    11    10    2
    32    90    91    1
    33    60    59    1
    34    60    63    1
    35    10    15   am
    36     3     2    1
    37     3     4    2
    38     2     5    1
    39    91    94    1
    40    91    92    1
    41    94    95    1
    42   137   136   ar
    43   138   136   ar
    44    15    16    1
    45    50    47    1
    46    63    64    1
    47    16    17    1
    48    16    19    1
    49   136   135    1
    50    18    17    2
    51     5     6    1
    52     5     7    1
    53    92    96   am
    54    92    93    2
    55    65    64   ar
    56    65    67   ar
    57    64    66   ar
    58    46    47    1
    59    46    41   am
    60    47    48    1
    61    96    97    1
    62    45    43    1
    63    19    20    1
    64    43    40    1
    65    43    44    1
    66   163   162   ar
    67   163   161   ar
    68   162   160   ar
    69   135   134    1
    70    67    69   ar
    71   150   149    2
    72    40    41    1
    73    40    39    1
    74    48    49    2
    75    41    42    2
    76    66    68   ar
    77    99    98    2
    78   134   131    1
    79    20    21    1
    80    20    22    1
    81    97   100    1
    82    97    98    1
    83   161   159   ar
    84    36    35    2
    85   160   159   ar
    86   101   100    1
    87    69    68   ar
    88   149   148    1
    89    39    35   am
    90   111   109   ar
    91   111   110   ar
    92   109   107   ar
    93   142   141    2
    94    35    34    1
    95   159   158    1
    96   148   151    1
    97   148   147    1
    98   131   130    1
    99   131   132    1
   100   130   124   am
   101   133   132    2
   102   132   139   am
   103   151   152    1
   104   110   108   ar
   105   141   147   am
   106   141   140    1
   107   107   106    1
   108   107   108   ar
   109   191   189   am
   110   147   153    1
   111    32    30   ar
   112    32    31   ar
   113   139   140    1
   114   190   189    2
   115    30    28   ar
   116   124   123    1
   117   124   125    2
   118   106   103    1
   119    34    33    1
   120    34    37    1
   121   158   155    1
   122    26    25    2
   123    56    55    1
   124    56    57    1
   125   189   188    1
   126   152   153    1
   127   115   114    2
   128   123   122    1
   129   123   126    1
   130   140   143    1
   131    55    52    1
   132   154   155    1
   133    37    38    1
   134   155   156    1
   135    51    52    1
   136    31    29   ar
   137    25    24    1
   138   114   122   am
   139   114   113    1
   140   105   104    2
   141   188   187    1
   142   126   127    1
   143    28    29   ar
   144    28    27    1
   145   104   103    1
   146   104   112   am
   147    57    58    1
   148   103   102    1
   149    52    53    1
   150   143   144    1
   151   113   112    1
   152   113   116    1
   153    27    24    1
   154   187   184    1
   155    53    54    2
   156    24    23    1
   157   156   157    2
   158   127   128    1
   159   144   146    1
   160   144   145    1
   161   184   183    1
   162   184   185    1
   163   116   117    1
   164   183   174   am
   165   128   129    1
   166   117   119   ar
   167   117   118   ar
   168   195   194    2
   169   185   186    2
   170   119   121   ar
   171   118   120   ar
   172   174   175    2
   173   174   173    1
   174   173   172    1
   175   173   176    1
   176   120   121   ar
   177   194   193    1
   178   167   166    2
   179   200   198   am
   180   172   166   am
   181   166   165    1
   182   192   193    1
   183   197   198    1
   184   197   196    1
   185   168   165    1
   186   168   169    1
   187   165   164    1
   188   176   177    1
   189   193   196    1
   190   198   199    2
   191   171   169   ar
   192   169   170   ar
   193   177   178    1
   194   178   179    1
   195   181   180    1
   196   179   180    2
   197   180   182    1
