@<TRIPOS>MOLECULE
tmp/5n1bA00.pdb
 196 186 0 0 0
SMALL
GASTEIGER

@<TRIPOS>ATOM
      1  N        -31.2440   23.0500  -15.3790 N.3   308  ASP308     -0.1225
      2  CA       -31.1050   22.6080  -16.7930 C.3   308  ASP308      0.1805
      3  C        -30.4970   21.2130  -16.9420 C.2   308  ASP308      0.2598
      4  O        -30.5130   20.6320  -18.0410 O.2   308  ASP308     -0.2718
      5  CB       -30.3270   23.6120  -17.7230 C.3   308  ASP308      0.1424
      6  CG       -31.1430   24.8810  -18.0790 C.2   308  ASP308      0.3668
      7  OD1      -32.3880   24.8120  -18.1170 O.co2 308  ASP308     -0.2456
      8  OD2      -30.5460   25.9560  -18.3420 O.co2 308  ASP308     -0.2456
      9  N        -29.9910   20.6670  -15.8430 N.am  309  ASP309     -0.1960
     10  CA       -29.1580   19.4810  -15.8790 C.3   309  ASP309      0.1840
     11  C        -30.0100   18.2050  -15.8370 C.2   309  ASP309      0.2622
     12  O        -30.5910   17.8470  -14.7850 O.2   309  ASP309     -0.2715
     13  CB       -28.1990   19.5320  -14.6870 C.3   309  ASP309      0.1450
     14  CG       -27.0730   18.5430  -14.7950 C.2   309  ASP309      0.3671
     15  OD1      -26.9610   17.8380  -15.8280 O.co2 309  ASP309     -0.2456
     16  OD2      -26.2920   18.4770  -13.8320 O.co2 309  ASP309     -0.2456
     17  N        -30.0790   17.5190  -16.9740 N.am  310  GLN310     -0.1963
     18  CA       -30.9750   16.3650  -17.1050 C.3   310  GLN310      0.1733
     19  C        -30.2830   15.0150  -16.9490 C.2   310  GLN310      0.2616
     20  O        -30.9610   13.9660  -17.0130 O.2   310  GLN310     -0.2715
     21  CB       -31.6940   16.3970  -18.4380 C.3   310  GLN310      0.0408
     22  CG       -30.8220   16.0560  -19.6210 C.3   310  GLN310      0.0908
     23  CD       -31.4460   16.5170  -20.8920 C.2   310  GLN310      0.2608
     24  OE1      -31.3570   17.6850  -21.2260 O.2   310  GLN310     -0.2717
     25  NE2      -32.1010   15.6120  -21.6010 N.am  310  GLN310     -0.0878
     26  N        -28.9650   15.0370  -16.7230 N.am  311  TRP311     -0.1974
     27  CA       -28.1560   13.8150  -16.7470 C.3   311  TRP311      0.1640
     28  C        -27.9210   13.2840  -15.3430 C.2   311  TRP311      0.2290
     29  O        -26.8870   13.5630  -14.7440 O.2   311  TRP311     -0.2864
     30  CB       -26.8410   14.0860  -17.4580 C.3   311  TRP311      0.0576
     31  CG       -27.0870   14.7000  -18.7910 C.ar  311  TRP311      0.0006
     32  CD1      -26.8860   16.0120  -19.1560 C.ar  311  TRP311      0.0946
     33  CD2      -27.6290   14.0480  -19.9280 C.ar  311  TRP311      0.0152
     34  NE1      -27.2560   16.2000  -20.4570 N.ar  311  TRP311     -0.2442
     35  CE2      -27.7140   15.0100  -20.9610 C.ar  311  TRP311      0.0810
     36  CE3      -28.0360   12.7370  -20.1870 C.ar  311  TRP311      0.0012
     37  CZ2      -28.1890   14.6930  -22.2390 C.ar  311  TRP311      0.0191
     38  CZ3      -28.5080   12.4200  -21.4680 C.ar  311  TRP311      0.0001
     39  CH2      -28.5880   13.3980  -22.4690 C.ar  311  TRP311      0.0015
     40  N        -27.6750   10.0580  -14.1330 N.3   313  GLN313     -0.1231
     41  CA       -26.5460    9.1150  -14.1070 C.3   313  GLN313      0.1698
     42  C        -25.1640    9.7310  -13.8080 C.2   313  GLN313      0.2592
     43  O        -24.2950    9.0470  -13.2620 O.2   313  GLN313     -0.2718
     44  CB       -26.4650    8.4310  -15.4990 C.3   313  GLN313      0.0381
     45  CG       -25.2620    7.5230  -15.8100 C.3   313  GLN313      0.0905
     46  CD       -25.2190    6.2350  -15.0140 C.2   313  GLN313      0.2608
     47  OE1      -24.1490    5.6400  -14.8990 O.2   313  GLN313     -0.2717
     48  NE2      -26.3670    5.7840  -14.4840 N.am  313  GLN313     -0.0878
     49  N        -24.9420   10.9900  -14.1870 N.am  314  ASP314     -0.1974
     50  CA       -23.5790   11.5280  -14.2830 C.3   314  ASP314      0.1709
     51  C        -22.9800   12.2320  -13.0720 C.2   314  ASP314      0.2293
     52  O        -21.7630   12.2610  -12.9490 O.2   314  ASP314     -0.2864
     53  CB       -23.4400   12.3610  -15.5610 C.3   314  ASP314      0.1436
     54  CG       -23.5400   11.4890  -16.7990 C.2   314  ASP314      0.3671
     55  OD1      -23.4040   10.2530  -16.6720 O.co2 314  ASP314     -0.2456
     56  OD2      -23.7620   12.0080  -17.9030 O.co2 314  ASP314     -0.2456
     57  N        -17.8390   16.3520  -11.0800 N.3   336  ARG336     -0.1245
     58  CA       -18.2600   17.0000  -12.3280 C.3   336  ARG336      0.1563
     59  C        -18.9390   18.3630  -12.0510 C.2   336  ARG336      0.2260
     60  O        -18.8290   19.2520  -12.8670 O.2   336  ARG336     -0.2867
     61  CB       -19.1540   16.0420  -13.1570 C.3   336  ARG336      0.0307
     62  CG       -20.3650   16.6670  -13.8240 C.3   336  ARG336      0.0489
     63  CD       -21.2670   15.6400  -14.4930 C.3   336  ARG336      0.2205
     64  NE       -22.6960   15.9580  -14.3370 N.pl3 336  ARG336     -0.0865
     65  CZ       -23.5800   16.1030  -15.3210 C.cat 336  ARG336      0.5346
     66  NH1      -23.2500   16.0050  -16.5920 N.pl3 336  ARG336      0.1354
     67  NH2      -24.8270   16.3560  -15.0340 N.pl3 336  ARG336      0.1354
     68  N        -21.9290   20.1030  -12.0630 N.3   338  ARG338     -0.1245
     69  CA       -22.7850   20.8500  -12.9710 C.3   338  ARG338      0.1563
     70  C        -24.0430   21.3040  -12.2700 C.2   338  ARG338      0.2260
     71  O        -24.0930   21.3240  -11.0460 O.2   338  ARG338     -0.2867
     72  CB       -23.1260   19.9420  -14.1270 C.3   338  ARG338      0.0307
     73  CG       -21.9090   19.6430  -14.9140 C.3   338  ARG338      0.0489
     74  CD       -22.2750   19.5500  -16.3460 C.3   338  ARG338      0.2205
     75  NE       -21.1200   19.8210  -17.1450 N.pl3 338  ARG338     -0.0865
     76  CZ       -21.1250   19.8320  -18.4670 C.cat 338  ARG338      0.5346
     77  NH1      -22.2450   19.5740  -19.1620 N.pl3 338  ARG338      0.1354
     78  NH2      -19.9830   20.0910  -19.1020 N.pl3 338  ARG338      0.1354
     79  N        -12.8980   16.4300  -16.3880 N.3   366  SER366     -0.1202
     80  CA       -13.2680   16.1690  -17.7860 C.3   366  SER366      0.2020
     81  C        -14.4240   15.2120  -17.8370 C.2   366  SER366      0.2619
     82  O        -14.9080   14.7730  -16.8040 O.2   366  SER366     -0.2717
     83  CB       -12.1010   15.5500  -18.5470 C.3   366  SER366      0.2103
     84  OG       -12.0820   14.1540  -18.3410 O.3   366  SER366     -0.2182
     85  N        -14.8490   14.8810  -19.0430 N.am  367  GLY367     -0.1956
     86  CA       -16.0030   14.0390  -19.2470 C.3   367  GLY367      0.1869
     87  C        -15.8340   12.6760  -18.6230 C.2   367  GLY367      0.2309
     88  O        -16.7930   12.0670  -18.1530 O.2   367  GLY367     -0.2863
     89  N        -17.3260   12.0300  -15.1190 N.3   370  SER370     -0.1217
     90  CA       -18.7370   11.7230  -14.9250 C.3   370  SER370      0.1889
     91  C        -18.9560   10.2220  -14.7440 C.2   370  SER370      0.2288
     92  O        -18.1880    9.4210  -15.2340 O.2   370  SER370     -0.2866
     93  CB       -19.5180   12.2220  -16.1110 C.3   370  SER370      0.2089
     94  OG       -19.2820   13.6130  -16.3080 O.3   370  SER370     -0.2183
     95  N        -21.3850    8.2090  -15.6570 N.3   372  GLY372     -0.1225
     96  CA       -21.6960    7.4060  -16.8100 C.3   372  GLY372      0.1811
     97  C        -20.4640    6.5960  -17.2200 C.2   372  GLY372      0.2280
     98  O        -20.5920    5.5610  -17.8970 O.2   372  GLY372     -0.2866
     99  N         -7.9360   12.0360  -22.8130 N.3   405  ARG405     -0.1245
    100  CA        -8.5650   12.3280  -21.5360 C.3   405  ARG405      0.1563
    101  C         -8.3990   11.0990  -20.6690 C.2   405  ARG405      0.2260
    102  O         -8.0620   10.0090  -21.1560 O.2   405  ARG405     -0.2867
    103  CB       -10.0450   12.6650  -21.7120 C.3   405  ARG405      0.0307
    104  CG       -10.2800   13.9720  -22.4460 C.3   405  ARG405      0.0489
    105  CD       -11.7150   14.1320  -22.8550 C.3   405  ARG405      0.2205
    106  NE       -12.1830   13.0470  -23.7200 N.pl3 405  ARG405     -0.0865
    107  CZ       -13.4520   12.9010  -24.1530 C.cat 405  ARG405      0.5346
    108  NH1      -14.4170   13.7880  -23.8520 N.pl3 405  ARG405      0.1354
    109  NH2      -13.7630   11.8660  -24.9320 N.pl3 405  ARG405      0.1354
    110  N        -17.2950   10.7270  -28.2960 N.3   432  SER432     -0.1202
    111  CA       -17.4090   12.1360  -27.9740 C.3   432  SER432      0.2020
    112  C        -17.4750   12.3800  -26.4770 C.2   432  SER432      0.2618
    113  O        -16.6980   13.1330  -25.9360 O.2   432  SER432     -0.2717
    114  CB       -18.6470   12.7460  -28.6210 C.3   432  SER432      0.2103
    115  OG       -19.0450   13.9380  -27.9320 O.3   432  SER432     -0.2182
    116  N        -18.4270   11.7470  -25.8230 N.am  433  VAL433     -0.1979
    117  CA       -18.6220   11.9420  -24.3790 C.3   433  VAL433      0.1595
    118  C        -17.6740   11.0420  -23.5870 C.2   433  VAL433      0.2287
    119  O        -17.2490   11.3850  -22.4840 O.2   433  VAL433     -0.2864
    120  CB       -20.0820   11.6680  -23.9780 C.3   433  VAL433      0.0276
    121  CG1      -20.2430   11.4790  -22.4750 C.3   433  VAL433      0.0022
    122  CG2      -20.9790   12.7930  -24.4800 C.3   433  VAL433      0.0022
    123  N        -17.9500    7.7090  -22.3370 N.3   435  HIS435     -0.1241
    124  CA       -18.3590    6.9430  -21.1670 C.3   435  HIS435      0.1621
    125  C        -18.5880    5.4860  -21.5300 C.2   435  HIS435      0.2264
    126  O        -19.2620    5.2080  -22.5200 O.2   435  HIS435     -0.2867
    127  CB       -19.6690    7.4880  -20.6320 C.3   435  HIS435      0.0745
    128  CG       -19.5840    8.8600  -20.0470 C.ar  435  HIS435      0.0817
    129  ND1      -20.6850    9.4910  -19.5170 N.ar  435  HIS435     -0.2268
    130  CD2      -18.5460    9.7200  -19.9090 C.ar  435  HIS435      0.1154
    131  CE1      -20.3290   10.6890  -19.0920 C.ar  435  HIS435      0.1986
    132  NE2      -19.0340   10.8490  -19.3060 N.ar  435  HIS435     -0.2212
    133  N        -20.7730    3.6210  -20.3920 N.3   437  ASP437     -0.1225
    134  CA       -22.2140    3.3080  -20.5500 C.3   437  ASP437      0.1805
    135  C        -22.6570    3.3530  -22.0400 C.2   437  ASP437      0.2597
    136  O        -23.5980    2.7070  -22.4210 O.2   437  ASP437     -0.2718
    137  CB       -23.1570    4.0370  -19.5090 C.3   437  ASP437      0.1424
    138  CG       -23.3190    5.5630  -19.7310 C.2   437  ASP437      0.3668
    139  OD1      -22.4940    6.1660  -20.4290 O.co2 437  ASP437     -0.2456
    140  OD2      -24.2720    6.1720  -19.1770 O.co2 437  ASP437     -0.2456
    141  N        -21.8930    4.0440  -22.8640 N.am  438  GLU438     -0.1979
    142  CA       -22.1460    4.1770  -24.2900 C.3   438  GLU438      0.1602
    143  C        -21.7950    2.9620  -25.2210 C.2   438  GLU438      0.2287
    144  O        -22.0160    3.0370  -26.4330 O.2   438  GLU438     -0.2864
    145  CB       -21.3680    5.3790  -24.8210 C.3   438  GLU438      0.0415
    146  CG       -21.5270    6.6870  -24.0830 C.3   438  GLU438      0.1163
    147  CD       -20.7990    7.8010  -24.8200 C.2   438  GLU438      0.3649
    148  OE1      -21.3840    8.3260  -25.8140 O.co2 438  GLU438     -0.2457
    149  OE2      -19.6380    8.1350  -24.4200 O.co2 438  GLU438     -0.2457
    150  N        -27.4470    1.7650  -24.0720 N.3   552  ASN552     -0.1240
    151  CA       -27.6130    2.7770  -23.0200 C.3   552  ASN552      0.1653
    152  C        -29.0340    2.6950  -22.4170 C.2   552  ASN552      0.2266
    153  O        -29.7960    3.6430  -22.4580 O.2   552  ASN552     -0.2867
    154  CB       -27.2830    4.1800  -23.5860 C.3   552  ASN552      0.1155
    155  CG       -27.1240    5.2280  -22.5050 C.2   552  ASN552      0.2627
    156  OD1      -28.0820    5.9340  -22.1550 O.2   552  ASN552     -0.2716
    157  ND2      -25.9190    5.3240  -21.9480 N.am  552  ASN552     -0.0877
    158  N        -30.7310   13.8780  -29.1390 N.3   602  ILE602     -0.1231
    159  CA       -30.1840   15.0740  -29.8160 C.3   602  ILE602      0.1692
    160  C        -29.3420   15.9710  -28.8830 C.2   602  ILE602      0.2592
    161  O        -28.6330   16.8640  -29.3530 O.2   602  ILE602     -0.2718
    162  CB       -31.2880   15.9020  -30.5520 C.3   602  ILE602      0.0266
    163  CG1      -32.3420   16.5150  -29.5800 C.3   602  ILE602      0.0019
    164  CG2      -31.9320   15.0480  -31.6500 C.3   602  ILE602      0.0020
    165  CD1      -32.0400   17.9170  -29.0620 C.3   602  ILE602      0.0001
    166  N        -29.4380   15.7250  -27.5750 N.am  603  ARG603     -0.1966
    167  CA       -28.5200   16.2900  -26.5840 C.3   603  ARG603      0.1729
    168  C        -27.3550   15.3680  -26.1700 C.2   603  ARG603      0.2616
    169  O        -26.6790   15.6490  -25.1720 O.2   603  ARG603     -0.2715
    170  CB       -29.2960   16.6470  -25.3360 C.3   603  ARG603      0.0348
    171  CG       -30.5020   17.5200  -25.5840 C.3   603  ARG603      0.0492
    172  CD       -30.8910   18.2340  -24.3060 C.3   603  ARG603      0.2205
    173  NE       -31.4980   19.5140  -24.6210 N.pl3 603  ARG603     -0.0865
    174  CZ       -32.7540   19.8820  -24.3640 C.cat 603  ARG603      0.5346
    175  NH1      -33.6130   19.0870  -23.7270 N.pl3 603  ARG603      0.1354
    176  NH2      -33.1520   21.0960  -24.7360 N.pl3 603  ARG603      0.1354
    177  N        -27.1480   14.2730  -26.9110 N.am  604  HIS604     -0.1959
    178  CA       -26.0050   13.3660  -26.7630 C.3   604  HIS604      0.1787
    179  C        -26.0830   12.3890  -25.6030 C.2   604  HIS604      0.2620
    180  O        -25.0930   12.0920  -24.9640 O.2   604  HIS604     -0.2715
    181  CB       -24.7040   14.1540  -26.7520 C.3   604  HIS604      0.0785
    182  CG       -24.5610   15.0510  -27.9370 C.ar  604  HIS604      0.0821
    183  ND1      -23.8400   16.2270  -27.9110 N.ar  604  HIS604     -0.2267
    184  CD2      -25.0580   14.9380  -29.1940 C.ar  604  HIS604      0.1154
    185  CE1      -23.8830   16.7850  -29.1090 C.ar  604  HIS604      0.1986
    186  NE2      -24.6080   16.0190  -29.9070 N.ar  604  HIS604     -0.2212
    187  N        -27.2600   11.8460  -25.3670 N.am  605  GLY605     -0.1954
    188  CA       -27.3900   10.7560  -24.4190 C.3   605  GLY605      0.1869
    189  C        -28.6830   10.0230  -24.6680 C.2   605  GLY605      0.2309
    190  O        -29.3730   10.3040  -25.6400 O.2   605  GLY605     -0.2863
    191  N        -28.2300    7.3810  -19.3680 N.3   609  CYS609     -0.1235
    192  CA       -27.7490    8.7390  -19.0840 C.3   609  CYS609      0.1677
    193  C        -28.6990    9.6870  -18.3070 C.2   609  CYS609      0.2270
    194  O        -28.2300   10.5570  -17.5660 O.2   609  CYS609     -0.2867
    195  CB       -27.4110    9.4250  -20.3870 C.3   609  CYS609      0.0956
    196  SG       -26.3130    8.4610  -21.4030 S.3   609  CYS609     -0.0801
@<TRIPOS>BOND
     1   164   162    1
     2   162   159    1
     3   162   163    1
     4   186   184   ar
     5   186   185   ar
     6   159   158    1
     7   159   160    1
     8   163   165    1
     9   161   160    2
    10   184   182   ar
    11   185   183   ar
    12   160   166   am
    13   114   111    1
    14   114   115    1
    15   110   111    1
    16   111   112    1
    17   182   183   ar
    18   182   181    1
    19   166   167    1
    20   177   178    1
    21   177   168   am
    22   178   181    1
    23   178   179    1
    24   167   168    1
    25   167   170    1
    26   112   113    2
    27   112   116   am
    28   144   143    2
    29   168   169    2
    30   116   117    1
    31   148   147   ar
    32   190   189    2
    33   179   187   am
    34   179   180    2
    35   171   170    1
    36   171   172    1
    37   187   188    1
    38   143   142    1
    39   109   107    1
    40   145   142    1
    41   145   146    1
    42   147   149   ar
    43   147   146    1
    44   176   174    1
    45   189   188    1
    46   173   174    2
    47   173   172    1
    48   122   120    1
    49   117   120    1
    50   117   118    1
    51   174   175    1
    52   142   141    1
    53   107   108    1
    54   107   106    2
    55   150   151    1
    56   120   121    1
    57   106   105    1
    58   118   119    2
    59   154   151    1
    60   154   155    1
    61   151   152    1
    62   141   135   am
    63   105   104    1
    64    99   100    1
    65   126   125    2
    66   155   156    2
    67   155   157   am
    68    39    37   ar
    69    39    38   ar
    70   153   152    2
    71   104   103    1
    72   136   135    2
    73   123   124    1
    74    37    35   ar
    75   135   134    1
    76   103   100    1
    77    25    23   am
    78   100   101    1
    79   125   124    1
    80    38    36   ar
    81   196   195    1
    82    24    23    2
    83   124   127    1
    84   102   101    2
    85    35    34   ar
    86    35    33   ar
    87    23    22    1
    88   127   128    1
    89   134   133    1
    90   134   137    1
    91    34    32   ar
    92   139   138   ar
    93   195   192    1
    94    36    33   ar
    95   128   130   ar
    96   128   129   ar
    97    33    31   ar
    98   130   132   ar
    99   138   137    1
   100   138   140   ar
   101    22    21    1
   102   129   131   ar
   103   191   192    1
   104   132   131   ar
   105    86    85    1
   106    86    87    1
   107    77    76    1
   108    32    31   ar
   109    78    76    1
   110   192   193    1
   111    85    81   am
   112    31    30    1
   113    87    88    2
   114    83    84    1
   115    83    80    1
   116    76    75    2
   117    21    18    1
   118     8     6   ar
   119   193   194    2
   120     7     6   ar
   121     6     5    1
   122     4     3    2
   123    56    54   ar
   124    98    97    2
   125    81    80    1
   126    81    82    2
   127    80    79    1
   128     5     2    1
   129    30    27    1
   130    97    96    1
   131    75    74    1
   132    18    17    1
   133    18    19    1
   134    20    19    2
   135    17    11   am
   136    19    26   am
   137     3     2    1
   138     3     9   am
   139    96    95    1
   140    54    55   ar
   141    54    53    1
   142     2     1    1
   143    27    26    1
   144    27    28    1
   145    66    65    1
   146    74    73    1
   147    94    93    1
   148    93    90    1
   149    10     9    1
   150    10    11    1
   151    10    13    1
   152    11    12    2
   153    15    14   ar
   154    45    44    1
   155    45    46    1
   156    53    50    1
   157    44    41    1
   158    28    29    2
   159    65    67    1
   160    65    64    2
   161    92    91    2
   162    89    90    1
   163    46    47    2
   164    46    48   am
   165    90    91    1
   166    73    72    1
   167    14    13    1
   168    14    16   ar
   169    63    64    1
   170    63    62    1
   171    50    49    1
   172    50    51    1
   173    49    42   am
   174    40    41    1
   175    72    69    1
   176    41    42    1
   177    62    61    1
   178    42    43    2
   179    61    58    1
   180    51    52    2
   181    69    70    1
   182    69    68    1
   183    60    59    2
   184    58    59    1
   185    58    57    1
   186    70    71    2
