@<TRIPOS>MOLECULE
tmp/5n1dA02.pdb
 120 113 0 0 0
SMALL
GASTEIGER

@<TRIPOS>ATOM
      1  N         16.7940  103.2440   31.2830 N.3    49  LEU49      -0.1231
      2  CA        15.8840  103.5190   30.1920 C.3    49  LEU49       0.1693
      3  C         14.4640  102.9950   30.3960 C.2    49  LEU49       0.2592
      4  O         13.5520  103.4160   29.6670 O.2    49  LEU49      -0.2718
      5  CB        16.4190  102.8870   28.9320 C.3    49  LEU49       0.0284
      6  CG        17.8370  103.2760   28.4810 C.3    49  LEU49       0.0019
      7  CD1       18.3710  102.2820   27.4200 C.3    49  LEU49       0.0001
      8  CD2       17.7970  104.7010   27.9470 C.3    49  LEU49       0.0001
      9  N         14.2790  102.0580   31.3140 N.am   50  GLY50      -0.1957
     10  CA        13.0050  101.3920   31.5380 C.3    50  GLY50       0.1869
     11  C         13.1560  100.3930   32.6660 C.2    50  GLY50       0.2309
     12  O         14.2710   99.9580   32.9310 O.2    50  GLY50      -0.2863
     13  N         16.5360   98.0610   32.5600 N.3    57  VAL57      -0.1245
     14  CA        17.3450   98.1990   31.3600 C.3    57  VAL57       0.1561
     15  C         18.0810   99.5140   31.4490 C.2    57  VAL57       0.2260
     16  O         17.4490  100.5610   31.6590 O.2    57  VAL57      -0.2867
     17  CB        16.5140   98.1340   30.0690 C.3    57  VAL57       0.0252
     18  CG1       17.4360   98.2250   28.8870 C.3    57  VAL57       0.0019
     19  CG2       15.7860   96.8570   29.9870 C.3    57  VAL57       0.0019
     20  N         22.2860   98.6910   25.2370 N.3    70  ALA70      -0.1245
     21  CA        21.2860   98.6150   26.2700 C.3    70  ALA70       0.1562
     22  C         21.5290   97.3370   27.0730 C.2    70  ALA70       0.2260
     23  O         21.5870   96.2440   26.5110 O.2    70  ALA70      -0.2867
     24  CB        19.8680   98.6330   25.6820 C.3    70  ALA70       0.0290
     25  N         22.4090   94.3140   24.6960 N.3   120  MET120     -0.1230
     26  CA        21.9300   94.2790   23.3090 C.3   120  MET120      0.1702
     27  C         22.1280   95.6410   22.6550 C.2   120  MET120      0.2592
     28  O         22.4900   96.6340   23.2950 O.2   120  MET120     -0.2718
     29  CB        20.5150   93.7810   23.2600 C.3   120  MET120      0.0401
     30  CG        19.5470   94.5530   23.9510 C.3   120  MET120      0.0596
     31  SD        17.9750   93.7090   24.5010 S.3   120  MET120     -0.1393
     32  CE        18.8210   92.6510   25.7180 C.3   120  MET120      0.0692
     33  N         21.9310   95.6820   21.3390 N.am  121  GLU121     -0.1966
     34  CA        22.0190   96.9620   20.6450 C.3   121  GLU121      0.1733
     35  C         21.1390   97.9840   21.3670 C.2   121  GLU121      0.2616
     36  O         20.0880   97.6320   21.9020 O.2   121  GLU121     -0.2715
     37  CB        21.5930   96.7820   19.1700 C.3   121  GLU121      0.0429
     38  CG        21.7920   98.0760   18.3370 C.3   121  GLU121      0.1163
     39  CD        21.7910   97.9210   16.8210 C.2   121  GLU121      0.3649
     40  OE1       21.3710   96.8620   16.2960 O.co2 121  GLU121     -0.2457
     41  OE2       22.2260   98.9170   16.1570 O.co2 121  GLU121     -0.2457
     42  N         21.6020   99.2360   21.4430 N.am  122  TYR122     -0.1960
     43  CA        20.7560  100.3300   21.9380 C.3   122  TYR122      0.1771
     44  C         19.8700  100.8150   20.8160 C.2   122  TYR122      0.2619
     45  O         20.3590  101.1520   19.7350 O.2   122  TYR122     -0.2715
     46  CB        21.6390  101.4510   22.4940 C.3   122  TYR122      0.0574
     47  CG        20.8940  102.6830   22.9040 C.ar  122  TYR122     -0.0198
     48  CD1       19.7580  102.5790   23.7160 C.ar  122  TYR122     -0.0009
     49  CD2       21.3430  103.9540   22.5530 C.ar  122  TYR122     -0.0009
     50  CE1       19.1060  103.7100   24.1800 C.ar  122  TYR122      0.0417
     51  CE2       20.6690  105.0890   22.9910 C.ar  122  TYR122      0.0417
     52  CZ        19.5470  104.9410   23.7920 C.ar  122  TYR122      0.1957
     53  OH        18.8540  106.0610   24.2310 O.3   122  TYR122     -0.2866
     54  N         18.5610  100.9240   21.0810 N.am  123  VAL123     -0.1977
     55  CA        17.5850  101.3570   20.0980 C.3   123  VAL123      0.1596
     56  C         17.1030  102.7190   20.5410 C.2   123  VAL123      0.2287
     57  O         16.3290  102.7960   21.5260 O.2   123  VAL123     -0.2864
     58  CB        16.4340  100.3600   19.9420 C.3   123  VAL123      0.0276
     59  CG1       15.5600  100.7830   18.8050 C.3   123  VAL123      0.0022
     60  CG2       17.0010   98.9430   19.6690 C.3   123  VAL123      0.0022
     61  N         10.1120  104.0310   22.9120 N.3   127  GLU127     -0.1245
     62  CA         9.0490  103.0580   22.7650 C.3   127  GLU127      0.1567
     63  C          7.9670  103.5750   21.8500 C.2   127  GLU127      0.2260
     64  O          7.5820  104.7460   21.9130 O.2   127  GLU127     -0.2867
     65  CB         8.4680  102.7550   24.1250 C.3   127  GLU127      0.0388
     66  CG         9.5550  102.4420   25.1030 C.3   127  GLU127      0.1160
     67  CD         9.2500  102.9930   26.4160 C.2   127  GLU127      0.3649
     68  OE1        9.6830  104.1400   26.7100 O.co2 127  GLU127     -0.2457
     69  OE2        8.6060  102.2410   27.1420 O.co2 127  GLU127     -0.2457
     70  N          4.2590   98.9960   24.0760 N.3   170  GLU170     -0.1231
     71  CA         5.2980   99.0380   25.0940 C.3   170  GLU170      0.1699
     72  C          6.5240   98.1940   24.7570 C.2   170  GLU170      0.2592
     73  O          7.6310   98.4700   25.2890 O.2   170  GLU170     -0.2718
     74  CB         4.7140   98.5490   26.4000 C.3   170  GLU170      0.0402
     75  CG         3.6820   99.3930   27.0230 C.3   170  GLU170      0.1161
     76  CD         2.2260   99.0780   26.6350 C.2   170  GLU170      0.3649
     77  OE1        1.9400   98.7850   25.4330 O.co2 170  GLU170     -0.2457
     78  OE2        1.3560   99.1390   27.5400 O.co2 170  GLU170     -0.2457
     79  N          6.3540   97.1440   23.9680 N.am  171  ASN171     -0.1974
     80  CA         7.4200   96.2050   23.6340 C.3   171  ASN171      0.1688
     81  C          8.0410   96.4340   22.2680 C.2   171  ASN171      0.2292
     82  O          8.8170   95.6030   21.7770 O.2   171  ASN171     -0.2864
     83  CB         6.8650   94.7840   23.7130 C.3   171  ASN171      0.1181
     84  CG         6.8690   94.2520   25.1160 C.2   171  ASN171      0.2629
     85  OD1        7.4100   94.8600   26.0420 O.2   171  ASN171     -0.2716
     86  ND2        6.2090   93.1280   25.3130 N.am  171  ASN171     -0.0877
     87  N         10.2730   99.1150   19.9640 N.3   173  LEU173     -0.1245
     88  CA        11.1230  100.2880   19.9790 C.3   173  LEU173      0.1561
     89  C         11.2950  100.7980   18.5590 C.2   173  LEU173      0.2260
     90  O         11.1640  100.0530   17.6040 O.2   173  LEU173     -0.2867
     91  CB        12.4800   99.9540   20.6290 C.3   173  LEU173      0.0270
     92  CG        12.4500   99.3550   22.0510 C.3   173  LEU173      0.0019
     93  CD1       13.8100   98.9780   22.5970 C.3   173  LEU173      0.0001
     94  CD2       11.8250  100.3190   22.9370 C.3   173  LEU173      0.0001
     95  N         12.4510   93.5940   21.3070 N.3   183  THR183     -0.1203
     96  CA        13.5790   93.2410   22.1980 C.3   183  THR183      0.1994
     97  C         13.2250   92.2200   23.2640 C.2   183  THR183      0.2617
     98  O         14.1270   91.5480   23.8090 O.2   183  THR183     -0.2717
     99  CB        14.0980   94.4690   22.9550 C.3   183  THR183      0.1784
    100  OG1       13.0330   94.9260   23.7810 O.3   183  THR183     -0.2211
    101  CG2       14.4810   95.5800   22.0250 C.3   183  THR183      0.0376
    102  N         11.9570   92.1350   23.6430 N.am  184  ASP184     -0.1973
    103  CA        11.5430   91.2910   24.7320 C.3   184  ASP184      0.1709
    104  C         11.0720   89.9400   24.1980 C.2   184  ASP184      0.2293
    105  O         10.2650   89.8990   23.2630 O.2   184  ASP184     -0.2864
    106  CB        10.3920   91.9210   25.5000 C.3   184  ASP184      0.1436
    107  CG        10.8330   93.0610   26.3290 C.2   184  ASP184      0.3671
    108  OD1       10.9800   94.1590   25.7560 O.co2 184  ASP184     -0.2456
    109  OD2       11.0170   92.8480   27.5440 O.co2 184  ASP184     -0.2456
    110  N         13.4310  108.5240   25.9230 N.3   326  PHE326     -0.1241
    111  CA        13.0500  107.6680   27.0260 C.3   326  PHE326      0.1605
    112  C         12.6990  108.4950   28.2570 C.2   326  PHE326      0.2264
    113  O         13.1880  109.6150   28.4620 O.2   326  PHE326     -0.2867
    114  CB        14.1480  106.6720   27.3950 C.3   326  PHE326      0.0534
    115  CG        14.4180  105.6610   26.2970 C.ar  326  PHE326     -0.0203
    116  CD1       13.7140  104.4800   26.2400 C.ar  326  PHE326     -0.0042
    117  CD2       15.3360  105.9420   25.3030 C.ar  326  PHE326     -0.0042
    118  CE1       13.9340  103.5860   25.2210 C.ar  326  PHE326     -0.0003
    119  CE2       15.5920  105.0390   24.2760 C.ar  326  PHE326     -0.0003
    120  CZ        14.9000  103.8850   24.2320 C.ar  326  PHE326     -0.0000
@<TRIPOS>BOND
     1    41    39   ar
     2    40    39   ar
     3    39    38    1
     4    90    89    2
     5    38    37    1
     6    89    88    1
     7    59    58    1
     8    37    34    1
     9    60    58    1
    10    45    44    2
    11    58    55    1
    12    87    88    1
    13    88    91    1
    14    55    56    1
    15    55    54    1
    16    56    57    2
    17    91    92    1
    18    34    33    1
    19    34    35    1
    20    44    54   am
    21    44    43    1
    22    95    96    1
    23    33    27   am
    24    35    42   am
    25    35    36    2
    26    42    43    1
    27    82    81    2
    28    63    64    2
    29    63    62    1
    30    43    46    1
    31   101    99    1
    32    92    93    1
    33    92    94    1
    34    96    99    1
    35    96    97    1
    36    81    80    1
    37    46    47    1
    38    49    47   ar
    39    49    51   ar
    40    27    28    2
    41    27    26    1
    42    62    61    1
    43    62    65    1
    44    47    48   ar
    45    99   100    1
    46    51    52   ar
    47    29    26    1
    48    29    30    1
    49   105   104    2
    50    97   102   am
    51    97    98    2
    52    26    25    1
    53    80    83    1
    54    80    79    1
    55   102   103    1
    56    83    84    1
    57    48    50   ar
    58    52    50   ar
    59    52    53    1
    60    30    31    1
    61    79    72   am
    62    70    71    1
    63    65    66    1
    64   104   103    1
    65   120   119   ar
    66   120   118   ar
    67   119   117   ar
    68    31    32    1
    69   103   106    1
    70    72    71    1
    71    72    73    2
    72    71    74    1
    73    66    67    1
    74    84    86   am
    75    84    85    2
    76   118   116   ar
    77    20    21    1
    78   117   115   ar
    79    77    76   ar
    80   106   107    1
    81    24    21    1
    82   108   107   ar
    83   110   111    1
    84   116   115   ar
    85    21    22    1
    86   115   114    1
    87   107   109   ar
    88    74    75    1
    89    67    68   ar
    90    67    69   ar
    91    23    22    2
    92    76    75    1
    93    76    78   ar
    94   111   114    1
    95   111   112    1
    96     7     6    1
    97     8     6    1
    98   112   113    2
    99     6     5    1
   100    18    17    1
   101     5     2    1
   102     4     3    2
   103    19    17    1
   104    17    14    1
   105     2     3    1
   106     2     1    1
   107     3     9   am
   108     9    10    1
   109    14    15    1
   110    14    13    1
   111    15    16    2
   112    10    11    1
   113    11    12    2
