@<TRIPOS>MOLECULE
tmp/5n1eA02.pdb
 134 126 0 0 0
SMALL
GASTEIGER

@<TRIPOS>ATOM
      1  N        -15.7220   30.1300  -30.5890 N.3    48  LEU48      -0.1231
      2  CA       -14.8840   30.3590  -29.4090 C.3    48  LEU48       0.1693
      3  C        -13.4640   29.8600  -29.5660 C.2    48  LEU48       0.2593
      4  O        -12.5970   30.2110  -28.7490 O.2    48  LEU48      -0.2718
      5  CB       -15.4840   29.6490  -28.1930 C.3    48  LEU48       0.0284
      6  CG       -16.9010   30.0890  -27.8440 C.3    48  LEU48       0.0019
      7  CD1      -17.5110   29.1580  -26.7950 C.3    48  LEU48       0.0001
      8  CD2      -16.9050   31.5450  -27.3520 C.3    48  LEU48       0.0001
      9  N        -13.2370   28.9770  -30.5120 N.am   49  GLY49      -0.1942
     10  CA       -11.9100   28.4650  -30.7740 C.3    49  GLY49       0.2014
     11  C        -11.9960   27.5600  -31.9830 C.2    49  GLY49       0.2639
     12  O        -13.0760   27.1190  -32.3780 O.2    49  GLY49      -0.2714
     13  N        -10.8330   27.2690  -32.5500 N.am   50  THR50      -0.1950
     14  CA       -10.7640   26.4710  -33.7650 C.3    50  THR50       0.1897
     15  C         -9.6190   25.4880  -33.6560 C.2    50  THR50       0.2313
     16  O         -8.5890   25.7840  -33.0500 O.2    50  THR50      -0.2863
     17  CB       -10.5120   27.3120  -34.9990 C.3    50  THR50       0.1794
     18  OG1       -9.2280   27.9220  -34.8320 O.3    50  THR50      -0.2208
     19  CG2      -11.5660   28.3760  -35.1880 C.3    50  THR50       0.0378
     20  N        -15.1880   25.1760  -31.9730 N.3    56  VAL56      -0.1245
     21  CA       -16.0810   25.1740  -30.8370 C.3    56  VAL56       0.1561
     22  C        -16.8690   26.4650  -30.9230 C.2    56  VAL56       0.2260
     23  O        -16.2740   27.5370  -31.0500 O.2    56  VAL56      -0.2867
     24  CB       -15.3170   25.0840  -29.5120 C.3    56  VAL56       0.0252
     25  CG1      -16.2770   25.1980  -28.3870 C.3    56  VAL56       0.0019
     26  CG2      -14.5350   23.7820  -29.4060 C.3    56  VAL56       0.0019
     27  N        -21.2890   25.2200  -25.0910 N.3    69  ALA69      -0.1245
     28  CA       -20.1950   25.1400  -26.0550 C.3    69  ALA69       0.1562
     29  C        -20.3780   23.8870  -26.9070 C.2    69  ALA69       0.2260
     30  O        -20.4180   22.7830  -26.3720 O.2    69  ALA69      -0.2867
     31  CB       -18.8430   25.1030  -25.3430 C.3    69  ALA69       0.0290
     32  N        -14.9840   19.4530  -17.6970 N.3   103  VAL103     -0.1245
     33  CA       -16.1910   19.9700  -18.3350 C.3   103  VAL103      0.1561
     34  C        -17.2560   18.8820  -18.4740 C.2   103  VAL103      0.2260
     35  O        -16.9690   17.7000  -18.7080 O.2   103  VAL103     -0.2867
     36  CB       -15.8580   20.5670  -19.7060 C.3   103  VAL103      0.0252
     37  CG1      -15.4690   19.4470  -20.7030 C.3   103  VAL103      0.0019
     38  CG2      -17.0460   21.3670  -20.2060 C.3   103  VAL103      0.0019
     39  N        -21.3450   20.8600  -24.6180 N.3   119  MET119     -0.1230
     40  CA       -20.8390   20.8780  -23.2640 C.3   119  MET119      0.1702
     41  C        -21.3210   22.1200  -22.5490 C.2   119  MET119      0.2592
     42  O        -21.7410   23.0950  -23.1600 O.2   119  MET119     -0.2718
     43  CB       -19.3080   20.8800  -23.2450 C.3   119  MET119      0.0401
     44  CG       -18.7080   19.7730  -24.0200 C.3   119  MET119      0.0596
     45  SD       -17.0160   20.1690  -24.3690 S.3   119  MET119     -0.1393
     46  CE       -17.2100   21.4120  -25.6530 C.3   119  MET119      0.0692
     47  N        -21.2000   22.0890  -21.2360 N.am  120  GLU120     -0.1966
     48  CA       -21.5060   23.2650  -20.4440 C.3   120  GLU120      0.1733
     49  C        -20.5960   24.4150  -20.8710 C.2   120  GLU120      0.2616
     50  O        -19.4080   24.2190  -21.0930 O.2   120  GLU120     -0.2715
     51  CB       -21.3240   22.9330  -18.9750 C.3   120  GLU120      0.0429
     52  CG       -21.5930   24.0360  -18.0220 C.3   120  GLU120      0.1163
     53  CD       -21.5780   23.5000  -16.6150 C.2   120  GLU120      0.3649
     54  OE1      -20.6270   23.8060  -15.8870 O.co2 120  GLU120     -0.2457
     55  OE2      -22.4930   22.7300  -16.2700 O.co2 120  GLU120     -0.2457
     56  N        -21.1590   25.6030  -21.0470 N.am  121  TYR121     -0.1960
     57  CA       -20.3650   26.7570  -21.4310 C.3   121  TYR121      0.1771
     58  C        -19.6310   27.3270  -20.2160 C.2   121  TYR121      0.2619
     59  O        -20.2400   27.5790  -19.1690 O.2   121  TYR121     -0.2715
     60  CB       -21.2650   27.8170  -22.0540 C.3   121  TYR121      0.0574
     61  CG       -20.5640   29.0940  -22.4260 C.ar  121  TYR121     -0.0198
     62  CD1      -19.3870   29.0750  -23.1610 C.ar  121  TYR121     -0.0009
     63  CD2      -21.0980   30.3240  -22.0780 C.ar  121  TYR121     -0.0009
     64  CE1      -18.7510   30.2400  -23.5240 C.ar  121  TYR121      0.0417
     65  CE2      -20.4660   31.4920  -22.4290 C.ar  121  TYR121      0.0417
     66  CZ       -19.2870   31.4530  -23.1590 C.ar  121  TYR121      0.1957
     67  OH       -18.6240   32.6360  -23.5260 O.3   121  TYR121     -0.2866
     68  N        -18.3260   27.5540  -20.3710 N.am  122  VAL122     -0.1977
     69  CA       -17.4770   28.0720  -19.3040 C.3   122  VAL122      0.1596
     70  C        -17.0220   29.4510  -19.7650 C.2   122  VAL122      0.2287
     71  O        -16.1530   29.5480  -20.6300 O.2   122  VAL122     -0.2864
     72  CB       -16.2870   27.1530  -19.0230 C.3   122  VAL122      0.0276
     73  CG1      -15.4480   27.7110  -17.8560 C.3   122  VAL122      0.0022
     74  CG2      -16.7730   25.7370  -18.7590 C.3   122  VAL122      0.0022
     75  N        -10.0100   30.9170  -21.7170 N.3   126  GLU126     -0.1245
     76  CA        -8.8760   30.0140  -21.5740 C.3   126  GLU126      0.1567
     77  C         -7.8020   30.5830  -20.6510 C.2   126  GLU126      0.2260
     78  O         -7.4860   31.7820  -20.6840 O.2   126  GLU126     -0.2867
     79  CB        -8.2230   29.7750  -22.9190 C.3   126  GLU126      0.0388
     80  CG        -9.1260   29.2170  -23.9700 C.3   126  GLU126      0.1160
     81  CD        -8.5020   29.1660  -25.3530 C.2   126  GLU126      0.3649
     82  OE1       -7.3310   29.5740  -25.5080 O.co2 126  GLU126     -0.2457
     83  OE2       -9.1890   28.7060  -26.3200 O.co2 126  GLU126     -0.2457
     84  N         -4.1650   26.2580  -23.2130 N.3   169  GLU169     -0.1231
     85  CA        -5.2380   26.3780  -24.1800 C.3   169  GLU169      0.1699
     86  C         -6.4460   25.5170  -23.8220 C.2   169  GLU169      0.2592
     87  O         -7.5710   25.7830  -24.2970 O.2   169  GLU169     -0.2718
     88  CB        -4.7340   25.9520  -25.5680 C.3   169  GLU169      0.0402
     89  CG        -3.6910   26.8350  -26.2470 C.3   169  GLU169      0.1161
     90  CD        -2.2230   26.5200  -25.8960 C.2   169  GLU169      0.3649
     91  OE1       -1.9080   26.1510  -24.7240 O.co2 169  GLU169     -0.2457
     92  OE2       -1.3760   26.6190  -26.8210 O.co2 169  GLU169     -0.2457
     93  N         -6.2270   24.4440  -23.0730 N.am  170  ASN170     -0.1974
     94  CA        -7.2560   23.4490  -22.7810 C.3   170  ASN170      0.1688
     95  C         -7.8640   23.6300  -21.4120 C.2   170  ASN170      0.2292
     96  O         -8.6800   22.8070  -21.0050 O.2   170  ASN170     -0.2864
     97  CB        -6.6870   22.0280  -22.8410 C.3   170  ASN170      0.1181
     98  CG        -6.2990   21.6320  -24.2400 C.2   170  ASN170      0.2629
     99  OD1       -6.1390   22.4510  -25.0590 O.2   170  ASN170     -0.2716
    100  ND2       -6.1650   20.4040  -24.4990 N.am  170  ASN170     -0.0877
    101  N        -10.0560   25.9990  -19.0400 N.3   172  LEU172     -0.1245
    102  CA       -10.9700   27.1240  -18.9850 C.3   172  LEU172      0.1561
    103  C        -11.1710   27.5730  -17.5440 C.2   172  LEU172      0.2260
    104  O        -11.1010   26.7740  -16.6150 O.2   172  LEU172     -0.2867
    105  CB       -12.2970   26.7560  -19.6440 C.3   172  LEU172      0.0270
    106  CG       -12.2480   26.1670  -21.0240 C.3   172  LEU172      0.0019
    107  CD1      -13.6190   25.7370  -21.4590 C.3   172  LEU172      0.0001
    108  CD2      -11.6570   27.1450  -21.9720 C.3   172  LEU172      0.0001
    109  N        -11.0940   21.0600  -20.7080 N.3   182  THR182     -0.1203
    110  CA       -11.8410   20.6980  -21.8550 C.3   182  THR182      0.1994
    111  C        -10.9150   19.9470  -22.8050 C.2   182  THR182      0.2617
    112  O         -9.6850   19.8100  -22.6550 O.2   182  THR182     -0.2717
    113  CB       -12.4680   21.9190  -22.5380 C.3   182  THR182      0.1784
    114  OG1      -13.2780   21.4600  -23.6380 O.3   182  THR182     -0.2211
    115  CG2      -11.3960   22.9070  -23.0450 C.3   182  THR182      0.0376
    116  N        -11.5640   19.4510  -23.7640 N.am  183  ASP183     -0.1973
    117  CA       -10.9990   18.7630  -24.8570 C.3   183  ASP183      0.1709
    118  C        -10.3500   17.4870  -24.4010 C.2   183  ASP183      0.2293
    119  O         -9.3060   17.4640  -23.7620 O.2   183  ASP183     -0.2864
    120  CB       -10.0620   19.6100  -25.6460 C.3   183  ASP183      0.1436
    121  CG       -10.0890   19.1350  -27.0200 C.2   183  ASP183      0.3671
    122  OD1       -9.5170   18.0490  -27.1860 O.co2 183  ASP183     -0.2456
    123  OD2      -10.8670   19.7130  -27.8320 O.co2 183  ASP183     -0.2456
    124  N        -13.1410   35.6260  -24.6100 N.3   325  PHE325     -0.1241
    125  CA       -12.5910   34.8210  -25.6800 C.3   325  PHE325      0.1605
    126  C        -12.1440   35.7120  -26.8270 C.2   325  PHE325      0.2264
    127  O        -12.6820   36.8040  -27.0530 O.2   325  PHE325     -0.2867
    128  CB       -13.6110   33.7790  -26.1960 C.3   325  PHE325      0.0534
    129  CG       -13.9510   32.7170  -25.1890 C.ar  325  PHE325     -0.0203
    130  CD1      -13.2250   31.5470  -25.1680 C.ar  325  PHE325     -0.0042
    131  CD2      -14.9640   32.8960  -24.2550 C.ar  325  PHE325     -0.0042
    132  CE1      -13.4880   30.5410  -24.2450 C.ar  325  PHE325     -0.0003
    133  CE2      -15.2390   31.9150  -23.3290 C.ar  325  PHE325     -0.0003
    134  CZ       -14.4920   30.7210  -23.3100 C.ar  325  PHE325     -0.0000
@<TRIPOS>BOND
     1    19    17    1
     2    17    18    1
     3    17    14    1
     4    14    15    1
     5    14    13    1
     6    15    16    2
     7    13    11   am
     8    12    11    2
     9    11    10    1
    10    20    21    1
    11    23    22    2
    12    22    21    1
    13    21    24    1
    14    10     9    1
    15     1     2    1
    16     9     3   am
    17     3     2    1
    18     3     4    2
    19    24    26    1
    20    24    25    1
    21     2     5    1
    22     5     6    1
    23     6     8    1
    24     6     7    1
    25   123   121   ar
    26   122   121   ar
    27   127   126    2
    28   121   120    1
    29    29    30    2
    30    29    28    1
    31   126   125    1
    32    92    90   ar
    33    83    81   ar
    34    89    90    1
    35    89    88    1
    36   128   125    1
    37   128   129    1
    38    28    31    1
    39    28    27    1
    40    90    91   ar
    41   125   124    1
    42    46    45    1
    43   120   117    1
    44    88    85    1
    45    82    81   ar
    46    81    80    1
    47   129   130   ar
    48   129   131   ar
    49   130   132   ar
    50    99    98    2
    51   117   118    1
    52   117   116    1
    53    39    40    1
    54   100    98   am
    55   118   119    2
    56    45    44    1
    57    87    86    2
    58   131   133   ar
    59   132   134   ar
    60    98    97    1
    61    85    86    1
    62    85    84    1
    63    44    43    1
    64    80    79    1
    65    86    93   am
    66   116   111   am
    67   114   113    1
    68    67    66    1
    69    64    62   ar
    70    64    66   ar
    71   133   134   ar
    72    40    43    1
    73    40    41    1
    74    62    61   ar
    75    42    41    2
    76    66    65   ar
    77    93    94    1
    78   115   113    1
    79    79    76    1
    80    97    94    1
    81   111   112    2
    82   111   110    1
    83    94    95    1
    84    41    47   am
    85   113   110    1
    86    65    63   ar
    87    61    63   ar
    88    61    60    1
    89    60    57    1
    90   108   106    1
    91   110   109    1
    92    75    76    1
    93    76    77    1
    94   107   106    1
    95    57    56    1
    96    57    58    1
    97    95    96    2
    98    47    48    1
    99    50    49    2
   100    56    49   am
   101   106   105    1
   102    49    48    1
   103    37    36    1
   104    78    77    2
   105    71    70    2
   106    48    51    1
   107    68    58   am
   108    68    69    1
   109    58    59    2
   110    38    36    1
   111    70    69    1
   112    36    33    1
   113   105   102    1
   114    69    72    1
   115   101   102    1
   116    72    74    1
   117    72    73    1
   118   102   103    1
   119    51    52    1
   120    35    34    2
   121    34    33    1
   122    33    32    1
   123    52    53    1
   124   103   104    2
   125    53    55   ar
   126    53    54   ar
