@<TRIPOS>MOLECULE
tmp/5n1fA02.pdb
 127 118 0 0 0
SMALL
GASTEIGER

@<TRIPOS>ATOM
      1  N        -13.6110   -2.1090  -35.2600 N.3    39  LEU39      -0.1231
      2  CA       -13.9110   -2.2070  -33.8340 C.3    39  LEU39       0.1693
      3  C        -15.3050   -1.6950  -33.4750 C.2    39  LEU39       0.2592
      4  O        -15.7870   -1.9840  -32.3800 O.2    39  LEU39      -0.2718
      5  CB       -12.8690   -1.4020  -33.0370 C.3    39  LEU39       0.0284
      6  CG       -11.3870   -1.7640  -33.2030 C.3    39  LEU39       0.0019
      7  CD1      -10.4730   -0.7240  -32.5340 C.3    39  LEU39       0.0001
      8  CD2      -11.1140   -3.1510  -32.6630 C.3    39  LEU39       0.0001
      9  N        -15.9510   -0.9340  -34.3520 N.am   40  GLY40      -0.1957
     10  CA       -17.2940   -0.4360  -34.0980 C.3    40  GLY40       0.1869
     11  C        -17.8170    0.2550  -35.3370 C.2    40  GLY40       0.2309
     12  O        -17.0450    0.7160  -36.1760 O.2    40  GLY40      -0.2863
     13  N        -15.0660    2.8750  -36.2690 N.3    47  VAL47      -0.1245
     14  CA       -13.7610    2.9100  -35.6370 C.3    47  VAL47       0.1561
     15  C        -13.0130    1.6750  -36.0950 C.2    47  VAL47       0.2260
     16  O        -13.5230    0.5460  -36.0060 O.2    47  VAL47      -0.2867
     17  CB       -13.8100    2.9990  -34.1030 C.3    47  VAL47       0.0252
     18  CG1      -12.4140    2.9800  -33.5230 C.3    47  VAL47       0.0019
     19  CG2      -14.5670    4.2390  -33.6600 C.3    47  VAL47       0.0019
     20  N         -6.6990    3.5820  -32.8170 N.3    60  ALA60      -0.1245
     21  CA        -8.1150    3.4880  -33.1320 C.3    60  ALA60       0.1562
     22  C         -8.4420    4.6830  -34.0250 C.2    60  ALA60       0.2260
     23  O         -8.4160    5.8210  -33.5890 O.2    60  ALA60      -0.2867
     24  CB        -8.9460    3.4710  -31.8560 C.3    60  ALA60       0.0290
     25  N        -11.0840    6.7110  -36.0500 N.3    62  LYS62      -0.1245
     26  CA       -12.4860    7.0090  -36.2630 C.3    62  LYS62       0.1561
     27  C        -12.6230    7.6340  -37.6430 C.2    62  LYS62       0.2260
     28  O        -11.9630    8.6350  -37.9520 O.2    62  LYS62      -0.2867
     29  CB       -12.9870    7.9440  -35.1710 C.3    62  LYS62       0.0271
     30  CG       -14.4500    8.2830  -35.2310 C.3    62  LYS62       0.0035
     31  CD       -14.9040    9.0380  -33.9290 C.3    62  LYS62       0.0206
     32  CE       -16.3690    9.3430  -33.9220 C.3    62  LYS62       0.1093
     33  NZ       -16.7940    9.7000  -32.5320 N.3    62  LYS62      -0.1314
     34  N        -16.1350   17.8720  -31.9620 N.3    81  GLU81      -0.1245
     35  CA       -15.4110   16.7140  -31.4600 C.3    81  GLU81       0.1567
     36  C        -13.9240   16.8690  -31.7330 C.2    81  GLU81       0.2260
     37  O        -13.0930   16.6940  -30.8410 O.2    81  GLU81      -0.2867
     38  CB       -15.9480   15.4240  -32.0960 C.3    81  GLU81       0.0388
     39  CG       -15.1460   14.1940  -31.6480 C.3    81  GLU81       0.1160
     40  CD       -15.7420   12.8440  -32.0060 C.2    81  GLU81       0.3649
     41  OE1      -15.3760   11.8250  -31.3570 O.co2  81  GLU81      -0.2457
     42  OE2      -16.5280   12.8090  -32.9440 O.co2  81  GLU81      -0.2457
     43  N         -9.0270    9.7140  -23.7680 N.3    94  VAL94      -0.1245
     44  CA        -8.2610    9.1100  -24.8550 C.3    94  VAL94       0.1561
     45  C         -7.6370   10.2430  -25.6560 C.2    94  VAL94       0.2260
     46  O         -8.2910   11.2390  -25.9810 O.2    94  VAL94      -0.2867
     47  CB        -9.0930    8.1830  -25.7720 C.3    94  VAL94       0.0252
     48  CG1       -8.2030    7.6100  -26.8120 C.3    94  VAL94       0.0019
     49  CG2       -9.7490    6.9780  -25.0430 C.3    94  VAL94       0.0019
     50  N         -6.7130    7.9940  -32.8030 N.3   110  MET110     -0.1230
     51  CA        -6.6040    8.0810  -31.3720 C.3   110  MET110      0.1702
     52  C         -5.8080    6.9030  -30.8680 C.2   110  MET110      0.2592
     53  O         -5.7180    5.8490  -31.5090 O.2   110  MET110     -0.2718
     54  CB        -7.9920    8.0400  -30.7620 C.3   110  MET110      0.0401
     55  CG        -8.9750    8.8580  -31.5880 C.3   110  MET110      0.0596
     56  SD       -10.4520    9.0810  -30.6510 S.3   110  MET110     -0.1393
     57  CE        -9.8520   10.2370  -29.4160 C.3   110  MET110      0.0692
     58  N         -5.2580    7.0780  -29.6840 N.am  111  GLU111     -0.1966
     59  CA        -4.6170    5.9510  -29.0220 C.3   111  GLU111      0.1733
     60  C         -5.6020    4.7880  -28.9160 C.2   111  GLU111      0.2616
     61  O         -6.8050    4.9960  -28.7280 O.2   111  GLU111     -0.2715
     62  CB        -4.1650    6.3580  -27.6250 C.3   111  GLU111      0.0429
     63  CG        -3.5970    5.2140  -26.7790 C.3   111  GLU111      0.1163
     64  CD        -2.9620    5.6560  -25.4610 C.2   111  GLU111      0.3649
     65  OE1       -2.7000    4.7580  -24.6170 O.co2 111  GLU111     -0.2457
     66  OE2       -2.7180    6.8810  -25.2590 O.co2 111  GLU111     -0.2457
     67  N         -5.1000    3.5660  -29.1540 N.am  112  TYR112     -0.1960
     68  CA        -5.9160    2.3440  -29.0610 C.3   112  TYR112      0.1771
     69  C         -5.8340    1.7830  -27.6560 C.2   112  TYR112      0.2619
     70  O         -4.7380    1.4820  -27.1780 O.2   112  TYR112     -0.2715
     71  CB        -5.4420    1.2890  -30.0600 C.3   112  TYR112      0.0574
     72  CG        -6.1380   -0.0420  -29.9200 C.ar  112  TYR112     -0.0198
     73  CD1       -7.5050   -0.1330  -29.9170 C.ar  112  TYR112     -0.0009
     74  CD2       -5.4040   -1.2090  -29.7590 C.ar  112  TYR112     -0.0009
     75  CE1       -8.1510   -1.3630  -29.7800 C.ar  112  TYR112      0.0417
     76  CE2       -6.0490   -2.4520  -29.5990 C.ar  112  TYR112      0.0417
     77  CZ        -7.4200   -2.5130  -29.6220 C.ar  112  TYR112      0.1957
     78  OH        -8.1190   -3.6910  -29.4490 O.3   112  TYR112     -0.2866
     79  N         -6.9850    1.6750  -27.0080 N.am  113  VAL113     -0.1977
     80  CA        -7.0850    1.1980  -25.6330 C.3   113  VAL113      0.1596
     81  C         -7.5860   -0.2440  -25.6990 C.2   113  VAL113      0.2287
     82  O         -8.7580   -0.4620  -26.0150 O.2   113  VAL113     -0.2864
     83  CB        -8.0180    2.0960  -24.8130 C.3   113  VAL113      0.0276
     84  CG1       -8.0700    1.6470  -23.3850 C.3   113  VAL113      0.0022
     85  CG2       -7.5220    3.5350  -24.8860 C.3   113  VAL113      0.0022
     86  N        -18.7260    4.1750  -23.5850 N.3   160  ASN160     -0.1240
     87  CA       -17.7470    5.1940  -23.9240 C.3   160  ASN160      0.1653
     88  C        -16.5590    5.2340  -22.9770 C.2   160  ASN160      0.2266
     89  O        -15.6980    6.1100  -23.1160 O.2   160  ASN160     -0.2867
     90  CB       -18.4110    6.5680  -24.0190 C.3   160  ASN160      0.1155
     91  CG       -19.1830    6.7280  -25.2940 C.2   160  ASN160      0.2627
     92  OD1      -19.0690    5.9000  -26.2190 O.2   160  ASN160     -0.2716
     93  ND2      -19.9300    7.8010  -25.3860 N.am  160  ASN160     -0.0877
     94  N        -13.4380    3.2240  -21.8250 N.3   162  LEU162     -0.1245
     95  CA       -12.5660    2.1040  -22.1260 C.3   162  LEU162      0.1561
     96  C        -11.6560    1.8430  -20.9390 C.2   162  LEU162      0.2260
     97  O        -11.2750    2.7600  -20.2080 O.2   162  LEU162     -0.2867
     98  CB       -11.7200    2.3770  -23.3650 C.3   162  LEU162      0.0270
     99  CG       -12.5230    2.7940  -24.5980 C.3   162  LEU162      0.0019
    100  CD1      -11.6220    2.9310  -25.8000 C.3   162  LEU162      0.0001
    101  CD2      -13.6490    1.7940  -24.8720 C.3   162  LEU162      0.0001
    102  N        -13.8140    7.9710  -24.3220 N.3   172  THR172     -0.1203
    103  CA       -13.7700    8.0690  -25.7670 C.3   172  THR172      0.1994
    104  C        -15.1400    8.5620  -26.2470 C.2   172  THR172      0.2617
    105  O        -16.1410    8.5030  -25.5340 O.2   172  THR172     -0.2717
    106  CB       -13.3870    6.7230  -26.4180 C.3   172  THR172      0.1784
    107  OG1      -13.0180    6.8970  -27.8060 O.3   172  THR172     -0.2211
    108  CG2      -14.5470    5.7790  -26.2740 C.3   172  THR172      0.0376
    109  N        -15.1480    9.0610  -27.4680 N.am  173  ASP173     -0.1973
    110  CA       -16.3120    9.5450  -28.1800 C.3   173  ASP173      0.1709
    111  C        -16.7150   10.9170  -27.6640 C.2   173  ASP173      0.2293
    112  O        -17.4990   11.0620  -26.7270 O.2   173  ASP173     -0.2864
    113  CB       -17.4810    8.5690  -28.2200 C.3   173  ASP173      0.1436
    114  CG       -18.4930    8.9490  -29.2880 C.2   173  ASP173      0.3671
    115  OD1      -19.3610    8.1260  -29.6500 O.co2 173  ASP173     -0.2456
    116  OD2      -18.4320   10.0880  -29.7610 O.co2 173  ASP173     -0.2456
    117  N        -12.9600   -6.5830  -27.9480 N.3   315  PHE315     -0.1241
    118  CA       -13.9110   -5.9110  -28.8160 C.3   315  PHE315      0.1605
    119  C        -14.6080   -6.9670  -29.6710 C.2   315  PHE315      0.2264
    120  O        -14.1950   -8.1180  -29.7370 O.2   315  PHE315     -0.2867
    121  CB       -13.2330   -4.8140  -29.6480 C.3   315  PHE315      0.0534
    122  CG       -12.6950   -3.6910  -28.8040 C.ar  315  PHE315     -0.0203
    123  CD1      -13.5340   -2.7000  -28.3130 C.ar  315  PHE315     -0.0042
    124  CD2      -11.3600   -3.6770  -28.4180 C.ar  315  PHE315     -0.0042
    125  CE1      -13.0320   -1.7010  -27.5070 C.ar  315  PHE315     -0.0003
    126  CE2      -10.8560   -2.6600  -27.6150 C.ar  315  PHE315     -0.0003
    127  CZ       -11.7020   -1.6850  -27.1490 C.ar  315  PHE315     -0.0000
@<TRIPOS>BOND
     1    28    27    2
     2    27    26    1
     3    13    14    1
     4    26    25    1
     5    26    29    1
     6    12    11    2
     7    15    16    2
     8    15    14    1
     9    14    17    1
    10    11    10    1
    11     1     2    1
    12    30    29    1
    13    30    31    1
    14     9    10    1
    15     9     3   am
    16    17    19    1
    17    17    18    1
    18    22    23    2
    19    22    21    1
    20    31    32    1
    21    32    33    1
    22     2     3    1
    23     2     5    1
    24     3     4    2
    25     6     5    1
    26     6     8    1
    27     6     7    1
    28    21    20    1
    29    21    24    1
    30    42    40   ar
    31    50    51    1
    32    38    39    1
    33    38    35    1
    34    40    39    1
    35    40    41   ar
    36    34    35    1
    37    36    35    1
    38    36    37    2
    39    55    54    1
    40    55    56    1
    41    53    52    2
    42    51    52    1
    43    51    54    1
    44    52    58   am
    45    56    57    1
    46    71    72    1
    47    71    68    1
    48    72    73   ar
    49    72    74   ar
    50    73    75   ar
    51    75    77   ar
    52   116   114   ar
    53    74    76   ar
    54   120   119    2
    55    58    59    1
    56   119   118    1
    57   115   114   ar
    58   121   118    1
    59   121   122    1
    60    77    76   ar
    61    77    78    1
    62   114   113    1
    63    67    68    1
    64    67    60   am
    65    68    69    1
    66    59    60    1
    67    59    62    1
    68    60    61    2
    69   118   117    1
    70   122   124   ar
    71   122   123   ar
    72   124   126   ar
    73   123   125   ar
    74   113   110    1
    75   110   111    1
    76   110   109    1
    77   107   106    1
    78   111   112    2
    79    69    70    2
    80    69    79   am
    81    62    63    1
    82   126   127   ar
    83   125   127   ar
    84   109   104   am
    85    79    80    1
    86    48    47    1
    87    63    64    1
    88   106   108    1
    89   106   103    1
    90   104   103    1
    91   104   105    2
    92    92    91    2
    93    82    81    2
    94    46    45    2
    95   100    99    1
    96    47    49    1
    97    47    44    1
    98   103   102    1
    99    81    80    1
   100    45    44    1
   101    80    83    1
   102    64    66   ar
   103    64    65   ar
   104    93    91   am
   105    91    90    1
   106    85    83    1
   107   101    99    1
   108    44    43    1
   109    83    84    1
   110    99    98    1
   111    90    87    1
   112    87    86    1
   113    87    88    1
   114    98    95    1
   115    89    88    2
   116    95    94    1
   117    95    96    1
   118    96    97    2
