@<TRIPOS>MOLECULE
tmp/5n1gA00.pdb
 115 108 0 0 0
SMALL
GASTEIGER

@<TRIPOS>ATOM
      1  N         12.0800   -2.0530   13.7180 N.3    39  LEU39      -0.1231
      2  CA        11.7240   -2.1890   15.1290 C.3    39  LEU39       0.1693
      3  C         10.3470   -1.6450   15.4630 C.2    39  LEU39       0.2592
      4  O          9.8350   -1.9310   16.5490 O.2    39  LEU39      -0.2718
      5  CB        12.7680   -1.4660   15.9780 C.3    39  LEU39       0.0284
      6  CG        14.2190   -1.8940   15.7860 C.3    39  LEU39       0.0019
      7  CD1       15.1540   -1.0610   16.6550 C.3    39  LEU39       0.0001
      8  CD2       14.3540   -3.3630   16.0670 C.3    39  LEU39       0.0001
      9  N          9.7540   -0.8420   14.5870 N.am   40  GLY40      -0.1957
     10  CA         8.4240   -0.3160   14.8310 C.3    40  GLY40       0.1869
     11  C          7.9030    0.3560   13.5890 C.2    40  GLY40       0.2309
     12  O          8.6960    0.8380   12.7710 O.2    40  GLY40      -0.2863
     13  N         10.6940    2.9850   12.8400 N.3    47  VAL47      -0.1245
     14  CA        12.0100    2.9920   13.4690 C.3    47  VAL47       0.1561
     15  C         12.7470    1.7610   12.9710 C.2    47  VAL47       0.2260
     16  O         12.2250    0.6390   13.0560 O.2    47  VAL47      -0.2867
     17  CB        11.9390    3.0250   15.0060 C.3    47  VAL47       0.0252
     18  CG1       13.3430    2.9550   15.5990 C.3    47  VAL47       0.0019
     19  CG2       11.2190    4.3010   15.4580 C.3    47  VAL47       0.0019
     20  N         19.0620    3.6450   16.1930 N.3    60  ALA60      -0.1245
     21  CA        17.6280    3.5250   15.9150 C.3    60  ALA60       0.1562
     22  C         17.2260    4.7200   15.0540 C.2    60  ALA60       0.2260
     23  O         17.0730    5.8340   15.5470 O.2    60  ALA60      -0.2867
     24  CB        16.8280    3.4910   17.2120 C.3    60  ALA60       0.0290
     25  N         20.6580    3.6130   19.8750 N.3   112  TYR112     -0.1227
     26  CA        19.8440    2.4040   19.9730 C.3   112  TYR112      0.1736
     27  C         19.9330    1.8410   21.3780 C.2   112  TYR112      0.2595
     28  O         21.0110    1.4590   21.8150 O.2   112  TYR112     -0.2718
     29  CB        20.3020    1.3550   18.9610 C.3   112  TYR112      0.0548
     30  CG        19.5940    0.0380   19.1140 C.ar  112  TYR112     -0.0200
     31  CD1       18.2190   -0.0270   19.1600 C.ar  112  TYR112     -0.0009
     32  CD2       20.2980   -1.1470   19.2060 C.ar  112  TYR112     -0.0009
     33  CE1       17.5570   -1.2360   19.3260 C.ar  112  TYR112      0.0417
     34  CE2       19.6410   -2.3610   19.3730 C.ar  112  TYR112      0.0417
     35  CZ        18.2760   -2.3980   19.4060 C.ar  112  TYR112      0.1957
     36  OH        17.5860   -3.5720   19.5960 O.3   112  TYR112     -0.2866
     37  N         18.7960    1.7580   22.0580 N.am  113  VAL113     -0.1980
     38  CA        18.7170    1.2560   23.4240 C.3   113  VAL113      0.1595
     39  C         18.1880   -0.1770   23.3550 C.2   113  VAL113      0.2287
     40  O         17.0080   -0.3740   23.0430 O.2   113  VAL113     -0.2864
     41  CB        17.8330    2.1560   24.2830 C.3   113  VAL113      0.0276
     42  CG1       17.7670    1.6460   25.6920 C.3   113  VAL113      0.0022
     43  CG2       18.3940    3.5550   24.2810 C.3   113  VAL113      0.0022
     44  N         11.2250   -1.9940   25.3640 N.3   117  GLU117     -0.1245
     45  CA        10.2690   -1.1290   26.0210 C.3   117  GLU117      0.1567
     46  C          9.9900   -1.5810   27.4370 C.2   117  GLU117      0.2260
     47  O          9.8360   -2.7770   27.7020 O.2   117  GLU117     -0.2867
     48  CB         8.9300   -1.2320   25.3070 C.3   117  GLU117      0.0388
     49  CG         8.9350   -0.7180   23.8830 C.3   117  GLU117      0.1160
     50  CD         7.6110   -0.9480   23.1160 C.2   117  GLU117      0.3649
     51  OE1        6.6080   -1.3800   23.6980 O.co2 117  GLU117     -0.2457
     52  OE2        7.5490   -0.6240   21.9260 O.co2 117  GLU117     -0.2457
     53  N          5.3560    2.2330   26.4980 N.3   159  GLU159     -0.1231
     54  CA         6.0450    1.9110   25.2450 C.3   159  GLU159      0.1699
     55  C          7.1680    2.8920   24.9250 C.2   159  GLU159      0.2592
     56  O          8.0610    2.5450   24.1490 O.2   159  GLU159     -0.2718
     57  CB         5.0660    1.8710   24.0820 C.3   159  GLU159      0.0402
     58  CG         3.9980    0.7860   24.1420 C.3   159  GLU159      0.1161
     59  CD         2.7320    1.1540   24.9310 C.2   159  GLU159      0.3649
     60  OE1        2.6900    2.1190   25.7520 O.co2 159  GLU159     -0.2457
     61  OE2        1.7480    0.4060   24.7200 O.co2 159  GLU159     -0.2457
     62  N          7.1240    4.1110   25.4540 N.am  160  ASN160     -0.1974
     63  CA         8.1130    5.1320   25.1310 C.3   160  ASN160      0.1688
     64  C          9.2770    5.1720   26.1040 C.2   160  ASN160      0.2292
     65  O         10.1460    6.0390   25.9880 O.2   160  ASN160     -0.2864
     66  CB         7.4580    6.5210   24.9930 C.3   160  ASN160      0.1181
     67  CG         6.6960    6.6640   23.7120 C.2   160  ASN160      0.2629
     68  OD1        6.8510    5.8440   22.7880 O.2   160  ASN160     -0.2716
     69  ND2        5.9390    7.7280   23.5980 N.am  160  ASN160     -0.0877
     70  N         12.4190    3.1660   27.2220 N.3   162  LEU162     -0.1245
     71  CA        13.2860    2.0640   26.8480 C.3   162  LEU162      0.1561
     72  C         14.2170    1.7600   28.0090 C.2   162  LEU162      0.2260
     73  O         14.6710    2.6580   28.6960 O.2   162  LEU162     -0.2867
     74  CB        14.0940    2.3980   25.6050 C.3   162  LEU162      0.0270
     75  CG        13.2640    2.8110   24.3720 C.3   162  LEU162      0.0019
     76  CD1       14.1740    3.0490   23.1780 C.3   162  LEU162      0.0001
     77  CD2       12.1570    1.8160   24.0530 C.3   162  LEU162      0.0001
     78  N         12.0240    7.7970   24.6430 N.3   172  THR172     -0.1203
     79  CA        12.0520    7.9500   23.2040 C.3   172  THR172      0.1994
     80  C         10.6920    8.4630   22.7130 C.2   172  THR172      0.2617
     81  O          9.6680    8.3180   23.3830 O.2   172  THR172     -0.2717
     82  CB        12.4420    6.6260   22.5110 C.3   172  THR172      0.1784
     83  OG1       12.8850    6.9090   21.1680 O.3   172  THR172     -0.2211
     84  CG2       11.2760    5.6510   22.4820 C.3   172  THR172      0.0376
     85  N         10.7220    9.0140   21.5040 N.am  173  ASP173     -0.1973
     86  CA         9.5670    9.5210   20.7640 C.3   173  ASP173      0.1709
     87  C          9.1520   10.8840   21.2940 C.2   173  ASP173      0.2293
     88  O          8.3990   11.0120   22.2640 O.2   173  ASP173     -0.2864
     89  CB         8.3890    8.5620   20.7200 C.3   173  ASP173      0.1436
     90  CG         7.3860    8.9510   19.6500 C.2   173  ASP173      0.3671
     91  OD1        6.5160    8.1280   19.2750 O.co2 173  ASP173     -0.2456
     92  OD2        7.4320   10.0990   19.1850 O.co2 173  ASP173     -0.2456
     93  N         12.7660   -6.5160   21.0410 N.3   315  PHE315     -0.1241
     94  CA        11.8070   -5.8330   20.1900 C.3   315  PHE315      0.1605
     95  C         11.1200   -6.8610   19.3010 C.2   315  PHE315      0.2264
     96  O         11.5130   -8.0240   19.2400 O.2   315  PHE315     -0.2867
     97  CB        12.4980   -4.7200   19.3810 C.3   315  PHE315      0.0534
     98  CG        13.0440   -3.6130   20.2540 C.ar  315  PHE315     -0.0203
     99  CD1       12.2050   -2.6530   20.7770 C.ar  315  PHE315     -0.0042
    100  CD2       14.3820   -3.5770   20.6080 C.ar  315  PHE315     -0.0042
    101  CE1       12.7120   -1.6650   21.6250 C.ar  315  PHE315     -0.0003
    102  CE2       14.8760   -2.5810   21.4280 C.ar  315  PHE315     -0.0003
    103  CZ        14.0460   -1.6380   21.9330 C.ar  315  PHE315     -0.0000
    104  N          8.2870   -7.1530   12.4190 N.3   318  TYR318     -0.1241
    105  CA         7.4460   -6.4120   11.4930 C.3   318  TYR318      0.1605
    106  C          7.8400   -6.7730   10.0680 C.2   318  TYR318      0.2264
    107  O          8.9950   -7.1060    9.7880 O.2   318  TYR318     -0.2867
    108  CB         7.6200   -4.9120   11.6990 C.3   318  TYR318      0.0534
    109  CG         7.1890   -4.4970   13.0680 C.ar  318  TYR318     -0.0201
    110  CD1        5.8680   -4.1690   13.3240 C.ar  318  TYR318     -0.0009
    111  CD2        8.0910   -4.4650   14.1190 C.ar  318  TYR318     -0.0009
    112  CE1        5.4570   -3.8010   14.5850 C.ar  318  TYR318      0.0417
    113  CE2        7.6860   -4.1140   15.3720 C.ar  318  TYR318      0.0417
    114  CZ         6.3710   -3.7860   15.5960 C.ar  318  TYR318      0.1957
    115  OH         5.9660   -3.4180   16.8530 O.3   318  TYR318     -0.2866
@<TRIPOS>BOND
     1   107   106    2
     2   106   105    1
     3   105   108    1
     4   105   104    1
     5   108   109    1
     6    12    11    2
     7    13    14    1
     8    15    16    2
     9    15    14    1
    10   109   110   ar
    11   109   111   ar
    12   110   112   ar
    13    14    17    1
    14    11    10    1
    15     1     2    1
    16   111   113   ar
    17   112   114   ar
    18     9    10    1
    19     9     3   am
    20    17    19    1
    21    17    18    1
    22    22    23    2
    23    22    21    1
    24     2     3    1
    25     2     5    1
    26   113   114   ar
    27     3     4    2
    28   114   115    1
    29     6     5    1
    30     6     8    1
    31     6     7    1
    32    21    20    1
    33    21    24    1
    34    29    30    1
    35    29    26    1
    36    30    31   ar
    37    30    32   ar
    38    31    33   ar
    39    92    90   ar
    40    32    34   ar
    41    96    95    2
    42    91    90   ar
    43    95    94    1
    44    33    35   ar
    45    34    35   ar
    46    97    94    1
    47    97    98    1
    48    35    36    1
    49    90    89    1
    50    25    26    1
    51    26    27    1
    52    94    93    1
    53    98   100   ar
    54    98    99   ar
    55   100   102   ar
    56    89    86    1
    57    86    87    1
    58    86    85    1
    59    99   101   ar
    60    83    82    1
    61    87    88    2
    62    27    28    2
    63    27    37   am
    64   102   103   ar
    65    85    80   am
    66   101   103   ar
    67    52    50   ar
    68    37    38    1
    69    84    82    1
    70    82    79    1
    71    80    79    1
    72    80    81    2
    73    68    67    2
    74    40    39    2
    75    50    51   ar
    76    50    49    1
    77    76    75    1
    78    79    78    1
    79    39    38    1
    80    38    41    1
    81    69    67   am
    82    67    66    1
    83    49    48    1
    84    77    75    1
    85    57    58    1
    86    57    54    1
    87    58    59    1
    88    56    55    2
    89    43    41    1
    90    41    42    1
    91    75    74    1
    92    61    59   ar
    93    55    54    1
    94    55    62   am
    95    59    60   ar
    96    66    63    1
    97    63    62    1
    98    63    64    1
    99    54    53    1
   100    48    45    1
   101    44    45    1
   102    74    71    1
   103    65    64    2
   104    45    46    1
   105    71    70    1
   106    71    72    1
   107    46    47    2
   108    72    73    2
