@<TRIPOS>MOLECULE
tmp/5n1gA02.pdb
 124 121 0 0 0
SMALL
GASTEIGER

@<TRIPOS>ATOM
      1  N         16.9620   24.5470   46.3100 N.3     2  GLN2       -0.1245
      2  CA        18.3870   24.5760   46.5860 C.3     2  GLN2        0.1566
      3  C         19.0840   25.3410   45.4650 C.2     2  GLN2        0.2260
      4  O         18.7950   25.1400   44.2750 O.2     2  GLN2       -0.2867
      5  CB        18.9260   23.1460   46.7190 C.3     2  GLN2        0.0367
      6  CG        18.8540   22.5090   48.0770 C.3     2  GLN2        0.0905
      7  CD        19.8230   23.0160   49.1130 C.2     2  GLN2        0.2608
      8  OE1       19.9130   22.5650   50.2520 O.2     2  GLN2       -0.2717
      9  NE2       20.6280   24.0190   48.7020 N.am    2  GLN2       -0.0878
     10  N         21.7570   24.8720   44.3440 N.3     4  SER4       -0.1202
     11  CA        22.3810   23.8950   43.4580 C.3     4  SER4        0.2020
     12  C         21.4570   23.5150   42.3030 C.2     4  SER4        0.2618
     13  O         21.8930   23.4690   41.1470 O.2     4  SER4       -0.2717
     14  CB        22.7910   22.6590   44.2530 C.3     4  SER4        0.2103
     15  OG        21.6610   22.0370   44.8270 O.3     4  SER4       -0.2182
     16  N         20.1800   23.2600   42.5890 N.am    5  VAL5       -0.1979
     17  CA        19.2230   22.9150   41.5400 C.3     5  VAL5        0.1595
     18  C         18.9800   24.1100   40.6370 C.2     5  VAL5        0.2287
     19  O         18.9440   23.9790   39.3990 O.2     5  VAL5       -0.2864
     20  CB        17.9060   22.4000   42.1580 C.3     5  VAL5        0.0276
     21  CG1       16.8220   22.2330   41.0920 C.3     5  VAL5        0.0022
     22  CG2       18.1320   21.0760   42.9140 C.3     5  VAL5        0.0022
     23  N         21.9520   24.4730   38.3420 N.3     8  PHE8       -0.1227
     24  CA        21.9440   23.3980   37.3570 C.3     8  PHE8        0.1736
     25  C         20.9460   23.7040   36.2460 C.2     8  PHE8        0.2595
     26  O         21.2470   23.5900   35.0530 O.2     8  PHE8       -0.2718
     27  CB        21.5620   22.0760   38.0360 C.3     8  PHE8        0.0547
     28  CG        21.5150   20.9150   37.0870 C.ar    8  PHE8       -0.0202
     29  CD1       22.5960   20.0550   36.9770 C.ar    8  PHE8       -0.0042
     30  CD2       20.3930   20.6660   36.3030 C.ar    8  PHE8       -0.0042
     31  CE1       22.5690   18.9830   36.0930 C.ar    8  PHE8       -0.0003
     32  CE2       20.3590   19.6030   35.4200 C.ar    8  PHE8       -0.0003
     33  CZ        21.4370   18.7560   35.3240 C.ar    8  PHE8       -0.0000
     34  N         19.7210   24.0520   36.6320 N.am    9  LEU9       -0.1980
     35  CA        18.6800   24.3180   35.6480 C.3     9  LEU9        0.1596
     36  C         18.9720   25.5590   34.8270 C.2     9  LEU9        0.2287
     37  O         18.6350   25.6060   33.6470 O.2     9  LEU9       -0.2864
     38  CB        17.3120   24.3920   36.3070 C.3     9  LEU9        0.0297
     39  CG        16.8020   23.0320   36.8250 C.3     9  LEU9        0.0022
     40  CD1       15.5230   23.2410   37.6080 C.3     9  LEU9        0.0001
     41  CD2       16.5690   22.0260   35.7020 C.3     9  LEU9        0.0001
     42  N         20.0260   15.1240   28.5000 N.3    90  PHE90      -0.1241
     43  CA        19.7000   14.6630   29.8390 C.3    90  PHE90       0.1605
     44  C         19.9070   13.1480   29.8890 C.2    90  PHE90       0.2264
     45  O         19.6790   12.4620   28.8770 O.2    90  PHE90      -0.2867
     46  CB        18.2530   15.0560   30.1940 C.3    90  PHE90       0.0534
     47  CG        17.9610   15.0230   31.6560 C.ar   90  PHE90      -0.0203
     48  CD1       18.5310   15.9520   32.4990 C.ar   90  PHE90      -0.0042
     49  CD2       17.1190   14.0560   32.1960 C.ar   90  PHE90      -0.0042
     50  CE1       18.3000   15.9200   33.8640 C.ar   90  PHE90      -0.0003
     51  CE2       16.8890   14.0060   33.5830 C.ar   90  PHE90      -0.0003
     52  CZ        17.4810   14.9490   34.3980 C.ar   90  PHE90      -0.0000
     53  N         12.6070   13.4960   37.4130 N.3   141  LEU141     -0.1245
     54  CA        13.7610   14.3200   37.0880 C.3   141  LEU141      0.1561
     55  C         13.7240   14.7800   35.6410 C.2   141  LEU141      0.2260
     56  O         14.0950   15.9190   35.3290 O.2   141  LEU141     -0.2867
     57  CB        15.0380   13.5410   37.3580 C.3   141  LEU141      0.0270
     58  CG        15.2930   13.2370   38.8450 C.3   141  LEU141      0.0019
     59  CD1       16.5240   12.3880   38.9730 C.3   141  LEU141      0.0001
     60  CD2       15.4110   14.5290   39.6460 C.3   141  LEU141      0.0001
     61  N         11.2550   17.5200   35.3700 N.3   144  GLU144     -0.1231
     62  CA        11.8030   18.7310   35.9730 C.3   144  GLU144      0.1699
     63  C         12.6960   19.4500   34.9720 C.2   144  GLU144      0.2592
     64  O         12.5850   20.6700   34.7570 O.2   144  GLU144     -0.2718
     65  CB        12.5810   18.3750   37.2460 C.3   144  GLU144      0.0402
     66  CG        13.1570   19.5810   37.9920 C.3   144  GLU144      0.1161
     67  CD        13.7190   19.2490   39.3380 C.2   144  GLU144      0.3649
     68  OE1       13.9680   18.0470   39.6140 O.co2 144  GLU144     -0.2457
     69  OE2       13.8800   20.2160   40.1240 O.co2 144  GLU144     -0.2457
     70  N         13.5670   18.6880   34.3110 N.am  145  TYR145     -0.1976
     71  CA        14.4320   19.2210   33.2650 C.3   145  TYR145      0.1639
     72  C         13.6180   19.7940   32.1010 C.2   145  TYR145      0.2290
     73  O         13.7620   20.9700   31.7470 O.2   145  TYR145     -0.2864
     74  CB        15.3830   18.1050   32.7970 C.3   145  TYR145      0.0560
     75  CG        16.1810   18.4650   31.5650 C.ar  145  TYR145     -0.0198
     76  CD1       17.3310   19.2110   31.6500 C.ar  145  TYR145     -0.0009
     77  CD2       15.7830   18.0380   30.3090 C.ar  145  TYR145     -0.0009
     78  CE1       18.0700   19.5390   30.5110 C.ar  145  TYR145      0.0417
     79  CE2       16.4900   18.3760   29.1580 C.ar  145  TYR145      0.0417
     80  CZ        17.6310   19.1220   29.2710 C.ar  145  TYR145      0.1957
     81  OH        18.3200   19.4700   28.1280 O.3   145  TYR145     -0.2866
     82  N          8.7500   15.4030   44.7920 N.3   280  LYS280     -0.1245
     83  CA        10.0270   14.8740   45.2410 C.3   280  LYS280      0.1561
     84  C         10.0510   14.6900   46.7470 C.2   280  LYS280      0.2260
     85  O         10.7480   13.8050   47.2380 O.2   280  LYS280     -0.2867
     86  CB        11.1630   15.7790   44.7900 C.3   280  LYS280      0.0271
     87  CG        11.3230   15.7840   43.2540 C.3   280  LYS280      0.0035
     88  CD        12.3190   16.7760   42.6520 C.3   280  LYS280      0.0206
     89  CE        13.7420   16.3320   42.7970 C.3   280  LYS280      0.1093
     90  NZ        14.6650   17.3480   42.1600 N.3   280  LYS280     -0.1314
     91  N         17.7440   11.3180   45.0220 N.3   290  TRP290     -0.1227
     92  CA        17.5510   11.9540   43.7240 C.3   290  TRP290      0.1737
     93  C         18.8730   12.1720   42.9980 C.2   290  TRP290      0.2595
     94  O         18.9640   11.9590   41.7800 O.2   290  TRP290     -0.2718
     95  CB        16.7970   13.2680   43.9180 C.3   290  TRP290      0.0564
     96  CG        15.4250   13.0470   44.4230 C.ar  290  TRP290      0.0003
     97  CD1       14.9840   13.1660   45.7100 C.ar  290  TRP290      0.0946
     98  CD2       14.3060   12.6070   43.6570 C.ar  290  TRP290      0.0152
     99  NE1       13.6500   12.8750   45.7760 N.ar  290  TRP290     -0.2442
    100  CE2       13.2120   12.5170   44.5300 C.ar  290  TRP290      0.0810
    101  CE3       14.1180   12.3000   42.2960 C.ar  290  TRP290      0.0012
    102  CZ2       11.9640   12.0900   44.1020 C.ar  290  TRP290      0.0191
    103  CZ3       12.8840   11.9180   41.8720 C.ar  290  TRP290      0.0001
    104  CH2       11.8190   11.8130   42.7580 C.ar  290  TRP290      0.0015
    105  N         19.8990   12.6230   43.7160 N.am  291  ILE291     -0.1980
    106  CA        21.1930   12.8650   43.0860 C.3   291  ILE291      0.1595
    107  C         21.8030   11.5650   42.5940 C.2   291  ILE291      0.2287
    108  O         22.3810   11.5140   41.5000 O.2   291  ILE291     -0.2864
    109  CB        22.1540   13.5570   44.0670 C.3   291  ILE291      0.0276
    110  CG1       21.5570   14.8320   44.6350 C.3   291  ILE291      0.0022
    111  CG2       23.5140   13.7640   43.4200 C.3   291  ILE291      0.0022
    112  CD1       21.2130   15.8050   43.6910 C.3   291  ILE291      0.0001
    113  N         20.1630   10.5130   39.3850 N.3   294  TYR294     -0.1241
    114  CA        20.6420   11.3570   38.2900 C.3   294  TYR294      0.1605
    115  C         22.0370   10.9550   37.8360 C.2   294  TYR294      0.2264
    116  O         22.3210   10.9340   36.6320 O.2   294  TYR294     -0.2867
    117  CB        20.6270   12.8380   38.7200 C.3   294  TYR294      0.0534
    118  CG        21.3400   13.7280   37.7330 C.ar  294  TYR294     -0.0201
    119  CD1       20.7610   14.0730   36.5220 C.ar  294  TYR294     -0.0009
    120  CD2       22.6380   14.1650   37.9810 C.ar  294  TYR294     -0.0009
    121  CE1       21.4670   14.8470   35.5880 C.ar  294  TYR294      0.0417
    122  CE2       23.3450   14.9220   37.0570 C.ar  294  TYR294      0.0417
    123  CZ        22.7600   15.2580   35.8790 C.ar  294  TYR294      0.1957
    124  OH        23.4860   16.0010   34.9880 O.3   294  TYR294     -0.2866
@<TRIPOS>BOND
     1    81    80    1
     2    42    43    1
     3    45    44    2
     4    79    80   ar
     5    79    77   ar
     6    80    78   ar
     7    43    44    1
     8    43    46    1
     9    46    47    1
    10    77    75   ar
    11    78    76   ar
    12    75    76   ar
    13    75    74    1
    14    47    49   ar
    15    47    48   ar
    16    73    72    2
    17    72    71    1
    18    49    51   ar
    19    48    50   ar
    20    74    71    1
    21    71    70    1
    22    51    52   ar
    23    37    36    2
    24    50    52   ar
    25    70    63   am
    26    64    63    2
    27    36    35    1
    28    63    62    1
    29   124   123    1
    30    26    25    2
    31    33    32   ar
    32    33    31   ar
    33    56    55    2
    34    61    62    1
    35    32    30   ar
    36   121   123   ar
    37   121   119   ar
    38    55    54    1
    39    35    38    1
    40    35    34    1
    41    41    39    1
    42   123   122   ar
    43    62    65    1
    44    31    29   ar
    45    25    34   am
    46    25    24    1
    47    30    28   ar
    48    38    39    1
    49   119   118   ar
    50   116   115    2
    51    39    40    1
    52    29    28   ar
    53   122   120   ar
    54    28    27    1
    55    54    57    1
    56    54    53    1
    57    65    66    1
    58    24    27    1
    59    24    23    1
    60    57    58    1
    61   118   120   ar
    62   118   117    1
    63   115   114    1
    64    66    67    1
    65   114   117    1
    66   114   113    1
    67    58    59    1
    68    58    60    1
    69    67    68   ar
    70    67    69   ar
    71    19    18    2
    72    18    17    1
    73    21    20    1
    74    13    12    2
    75   108   107    2
    76    17    20    1
    77    17    16    1
    78    94    93    2
    79   103   101   ar
    80   103   104   ar
    81    20    22    1
    82    90    89    1
    83   101    98   ar
    84    12    16   am
    85    12    11    1
    86   107   106    1
    87    88    89    1
    88    88    87    1
    89   104   102   ar
    90    93   105   am
    91    93    92    1
    92   106   105    1
    93   106   109    1
    94    87    86    1
    95   111   109    1
    96    11    14    1
    97    11    10    1
    98    98    96   ar
    99    98   100   ar
   100   112   110    1
   101    92    95    1
   102    92    91    1
   103    95    96    1
   104   109   110    1
   105   102   100   ar
   106    14    15    1
   107     4     3    2
   108    96    97   ar
   109   100    99   ar
   110    86    83    1
   111    82    83    1
   112    83    84    1
   113     3     2    1
   114    97    99   ar
   115     1     2    1
   116     2     5    1
   117     5     6    1
   118    84    85    2
   119     6     7    1
   120     9     7   am
   121     7     8    2
