@<TRIPOS>MOLECULE
tmp/5n1hA02.pdb
 123 115 0 0 0
SMALL
GASTEIGER

@<TRIPOS>ATOM
      1  N        -13.6940   -2.0820  -35.1890 N.3    39  LEU39      -0.1231
      2  CA       -13.9960   -2.1840  -33.7720 C.3    39  LEU39       0.1693
      3  C        -15.3880   -1.6740  -33.4090 C.2    39  LEU39       0.2592
      4  O        -15.8830   -1.9800  -32.3210 O.2    39  LEU39      -0.2718
      5  CB       -12.9610   -1.3880  -32.9650 C.3    39  LEU39       0.0284
      6  CG       -11.4760   -1.7350  -33.1660 C.3    39  LEU39       0.0019
      7  CD1      -10.5780   -0.7140  -32.4430 C.3    39  LEU39       0.0001
      8  CD2      -11.2220   -3.1470  -32.6950 C.3    39  LEU39       0.0001
      9  N        -16.0220   -0.9040  -34.2740 N.am   40  GLY40      -0.1957
     10  CA       -17.3410   -0.3710  -33.9800 C.3    40  GLY40       0.1869
     11  C        -17.8840    0.2880  -35.2170 C.2    40  GLY40       0.2309
     12  O        -17.1190    0.7350  -36.0780 O.2    40  GLY40      -0.2863
     13  N        -15.1650    2.8980  -36.1890 N.3    47  VAL47      -0.1245
     14  CA       -13.8560    2.9410  -35.5650 C.3    47  VAL47       0.1561
     15  C        -13.0950    1.7130  -36.0160 C.2    47  VAL47       0.2260
     16  O        -13.5970    0.5860  -35.9140 O.2    47  VAL47      -0.2867
     17  CB       -13.9200    3.0210  -34.0310 C.3    47  VAL47       0.0252
     18  CG1      -12.5210    3.0110  -33.4410 C.3    47  VAL47       0.0019
     19  CG2      -14.6730    4.2620  -33.5850 C.3    47  VAL47       0.0019
     20  N         -6.7630    3.6000  -32.7820 N.3    60  ALA60      -0.1245
     21  CA        -8.1820    3.5200  -33.1040 C.3    60  ALA60       0.1562
     22  C         -8.5180    4.7110  -33.9890 C.2    60  ALA60       0.2260
     23  O         -8.5000    5.8460  -33.5340 O.2    60  ALA60      -0.2867
     24  CB        -9.0110    3.5290  -31.8200 C.3    60  ALA60       0.0290
     25  N         -9.0430    9.8070  -23.7510 N.3    94  VAL94      -0.1245
     26  CA        -8.2710    9.2310  -24.8500 C.3    94  VAL94       0.1561
     27  C         -7.6080   10.3670  -25.6210 C.2    94  VAL94       0.2260
     28  O         -8.1940   11.4320  -25.8460 O.2    94  VAL94      -0.2867
     29  CB        -9.1230    8.3350  -25.7750 C.3    94  VAL94       0.0252
     30  CG1       -8.2990    7.9060  -26.9670 C.3    94  VAL94       0.0019
     31  CG2       -9.6810    7.0650  -25.0420 C.3    94  VAL94       0.0019
     32  N         -6.8590    8.0390  -32.7580 N.3   110  MET110     -0.1230
     33  CA        -6.7830    8.0530  -31.3050 C.3   110  MET110      0.1702
     34  C         -5.8750    6.9180  -30.8390 C.2   110  MET110      0.2592
     35  O         -5.7700    5.8810  -31.4970 O.2   110  MET110     -0.2718
     36  CB        -8.1680    7.7760  -30.6750 C.3   110  MET110      0.0401
     37  CG        -9.3790    8.5380  -31.2460 C.3   110  MET110      0.0596
     38  SD        -9.3100   10.3280  -31.2120 S.3   110  MET110     -0.1393
     39  CE        -9.1060   10.5710  -29.4360 C.3   110  MET110      0.0692
     40  N         -5.2490    7.0900  -29.6750 N.am  111  GLU111     -0.1966
     41  CA        -4.5910    5.9720  -29.0160 C.3   111  GLU111      0.1733
     42  C         -5.5620    4.8030  -28.8980 C.2   111  GLU111      0.2616
     43  O         -6.7440    5.0110  -28.6420 O.2   111  GLU111     -0.2715
     44  CB        -4.1840    6.3990  -27.6170 C.3   111  GLU111      0.0429
     45  CG        -3.4760    5.3400  -26.8290 C.3   111  GLU111      0.1163
     46  CD        -2.9500    5.7550  -25.4900 C.2   111  GLU111      0.3649
     47  OE1       -3.1830    6.8670  -25.0670 O.co2 111  GLU111     -0.2457
     48  OE2       -2.4120    4.9500  -24.7140 O.co2 111  GLU111     -0.2457
     49  N         -5.0780    3.5820  -29.1320 N.am  112  TYR112     -0.1960
     50  CA        -5.9060    2.3720  -29.0130 C.3   112  TYR112      0.1771
     51  C         -5.7970    1.8210  -27.6060 C.2   112  TYR112      0.2619
     52  O         -4.6950    1.5740  -27.1150 O.2   112  TYR112     -0.2715
     53  CB        -5.4340    1.3060  -30.0080 C.3   112  TYR112      0.0574
     54  CG        -6.1290   -0.0350  -29.8720 C.ar  112  TYR112     -0.0198
     55  CD1       -7.5080   -0.1180  -29.8630 C.ar  112  TYR112     -0.0009
     56  CD2       -5.4050   -1.2170  -29.7510 C.ar  112  TYR112     -0.0009
     57  CE1       -8.1630   -1.3230  -29.7350 C.ar  112  TYR112      0.0417
     58  CE2       -6.0570   -2.4300  -29.6200 C.ar  112  TYR112      0.0417
     59  CZ        -7.4350   -2.4810  -29.6230 C.ar  112  TYR112      0.1957
     60  OH        -8.1430   -3.6530  -29.4840 O.3   112  TYR112     -0.2866
     61  N         -6.9440    1.6160  -26.9820 N.am  113  VAL113     -0.1977
     62  CA        -7.0310    1.0780  -25.6350 C.3   113  VAL113      0.1596
     63  C         -7.5220   -0.3660  -25.7090 C.2   113  VAL113      0.2287
     64  O         -8.7080   -0.5800  -25.9340 O.2   113  VAL113     -0.2864
     65  CB        -7.9540    1.9530  -24.7800 C.3   113  VAL113      0.0276
     66  CG1       -7.9860    1.4260  -23.3650 C.3   113  VAL113      0.0022
     67  CG2       -7.4790    3.3910  -24.8150 C.3   113  VAL113      0.0022
     68  N        -14.4370   -1.8900  -23.5960 N.3   117  GLU117     -0.1245
     69  CA       -15.3730   -0.9650  -22.9990 C.3   117  GLU117      0.1567
     70  C        -15.8410   -1.4430  -21.6380 C.2   117  GLU117      0.2260
     71  O        -16.0470   -2.6430  -21.4200 O.2   117  GLU117     -0.2867
     72  CB       -16.6130   -0.8990  -23.8850 C.3   117  GLU117      0.0388
     73  CG       -16.3950   -0.3160  -25.2600 C.3   117  GLU117      0.1160
     74  CD       -17.6160   -0.4610  -26.1680 C.2   117  GLU117      0.3649
     75  OE1      -18.6610   -0.9980  -25.7220 O.co2 117  GLU117     -0.2457
     76  OE2      -17.5300   -0.0200  -27.3310 O.co2 117  GLU117     -0.2457
     77  N        -20.4520    2.3410  -22.5850 N.3   159  GLU159     -0.1245
     78  CA       -19.7860    2.0350  -23.8460 C.3   159  GLU159      0.1567
     79  C        -18.6660    3.0140  -24.1630 C.2   159  GLU159      0.2260
     80  O        -17.7600    2.6610  -24.9220 O.2   159  GLU159     -0.2867
     81  CB       -20.7980    2.0390  -24.9980 C.3   159  GLU159      0.0388
     82  CG       -21.9090    0.9800  -24.9030 C.3   159  GLU159      0.1160
     83  CD       -23.1790    1.4360  -24.1460 C.2   159  GLU159      0.3649
     84  OE1      -23.1320    2.2890  -23.2180 O.co2 159  GLU159     -0.2457
     85  OE2      -24.2570    0.9030  -24.4800 O.co2 159  GLU159     -0.2457
     86  N        -13.4070    3.2890  -21.8510 N.3   162  LEU162     -0.1245
     87  CA       -12.4870    2.1910  -22.1350 C.3   162  LEU162      0.1561
     88  C        -11.6220    1.9440  -20.9150 C.2   162  LEU162      0.2260
     89  O        -11.3080    2.8580  -20.1490 O.2   162  LEU162     -0.2867
     90  CB       -11.6150    2.5480  -23.3390 C.3   162  LEU162      0.0270
     91  CG       -12.4150    2.9380  -24.5960 C.3   162  LEU162      0.0019
     92  CD1      -11.5120    3.3500  -25.7300 C.3   162  LEU162      0.0001
     93  CD2      -13.4120    1.8550  -25.0030 C.3   162  LEU162      0.0001
     94  N        -13.7930    8.0010  -24.3180 N.3   172  THR172     -0.1218
     95  CA       -13.7430    8.1390  -25.7520 C.3   172  THR172      0.1862
     96  C        -15.1060    8.6290  -26.2480 C.2   172  THR172      0.2287
     97  O        -16.1180    8.5610  -25.5480 O.2   172  THR172     -0.2866
     98  CB       -13.3360    6.8140  -26.4150 C.3   172  THR172      0.1770
     99  OG1      -12.9830    7.0510  -27.7870 O.3   172  THR172     -0.2211
    100  CG2      -14.4770    5.7960  -26.3390 C.3   172  THR172      0.0375
    101  N        -12.9870   -6.6190  -27.9130 N.3   315  PHE315     -0.1241
    102  CA       -13.9490   -5.9530  -28.7820 C.3   315  PHE315      0.1605
    103  C        -14.6580   -7.0100  -29.6220 C.2   315  PHE315      0.2264
    104  O        -14.2370   -8.1600  -29.6860 O.2   315  PHE315     -0.2867
    105  CB       -13.2650   -4.8900  -29.6460 C.3   315  PHE315      0.0534
    106  CG       -12.6940   -3.7540  -28.8420 C.ar  315  PHE315     -0.0203
    107  CD1      -13.5110   -2.7050  -28.4300 C.ar  315  PHE315     -0.0042
    108  CD2      -11.3580   -3.7460  -28.4570 C.ar  315  PHE315     -0.0042
    109  CE1      -12.9860   -1.6780  -27.6750 C.ar  315  PHE315     -0.0003
    110  CE2      -10.8370   -2.7130  -27.7060 C.ar  315  PHE315     -0.0003
    111  CZ       -11.6530   -1.6830  -27.3120 C.ar  315  PHE315     -0.0000
    112  N        -17.4790   -7.2850  -36.4350 N.3   318  TYR318     -0.1241
    113  CA       -18.3300   -6.5610  -37.3610 C.3   318  TYR318      0.1605
    114  C        -17.9720   -6.9330  -38.7920 C.2   318  TYR318      0.2264
    115  O        -16.8180   -7.2580  -39.0950 O.2   318  TYR318     -0.2867
    116  CB       -18.1350   -5.0520  -37.1730 C.3   318  TYR318      0.0534
    117  CG       -18.5580   -4.5940  -35.8220 C.ar  318  TYR318     -0.0201
    118  CD1      -19.8600   -4.2060  -35.5910 C.ar  318  TYR318     -0.0009
    119  CD2      -17.6680   -4.5530  -34.7770 C.ar  318  TYR318     -0.0009
    120  CE1      -20.2650   -3.7740  -34.3500 C.ar  318  TYR318      0.0417
    121  CE2      -18.0580   -4.1460  -33.5390 C.ar  318  TYR318      0.0417
    122  CZ       -19.3530   -3.7560  -33.3290 C.ar  318  TYR318      0.1957
    123  OH       -19.7370   -3.3360  -32.0870 O.3   318  TYR318     -0.2866
@<TRIPOS>BOND
     1   115   114    2
     2   114   113    1
     3   113   116    1
     4   113   112    1
     5   116   117    1
     6    13    14    1
     7    12    11    2
     8    15    16    2
     9    15    14    1
    10   117   118   ar
    11   117   119   ar
    12   118   120   ar
    13    14    17    1
    14    11    10    1
    15     1     2    1
    16   119   121   ar
    17   120   122   ar
    18     9    10    1
    19     9     3   am
    20    17    19    1
    21    17    18    1
    22    22    23    2
    23    22    21    1
    24     2     3    1
    25     2     5    1
    26   121   122   ar
    27     3     4    2
    28   122   123    1
    29     6     5    1
    30     6     8    1
    31     6     7    1
    32    21    20    1
    33    21    24    1
    34    32    33    1
    35    35    34    2
    36    33    34    1
    37    33    36    1
    38    37    38    1
    39    37    36    1
    40    38    39    1
    41    34    40   am
    42    53    54    1
    43    53    50    1
    44    54    55   ar
    45    54    56   ar
    46    55    57   ar
    47    56    58   ar
    48    57    59   ar
    49   104   103    2
    50    40    41    1
    51   105   106    1
    52   105   102    1
    53    59    58   ar
    54    59    60    1
    55   103   102    1
    56    49    50    1
    57    49    42   am
    58    41    42    1
    59    41    44    1
    60    50    51    1
    61    42    43    2
    62   106   108   ar
    63   106   107   ar
    64   102   101    1
    65   108   110   ar
    66   107   109   ar
    67    99    98    1
    68   110   111   ar
    69   109   111   ar
    70    44    45    1
    71    51    52    2
    72    51    61   am
    73    76    74   ar
    74    61    62    1
    75    30    29    1
    76    45    46    1
    77    98   100    1
    78    98    95    1
    79    96    95    1
    80    96    97    2
    81    74    75   ar
    82    74    73    1
    83    64    63    2
    84    28    27    2
    85    29    31    1
    86    29    26    1
    87    95    94    1
    88    92    91    1
    89    63    62    1
    90    62    65    1
    91    27    26    1
    92    46    47   ar
    93    46    48   ar
    94    73    72    1
    95    93    91    1
    96    81    82    1
    97    81    78    1
    98    80    79    2
    99    82    83    1
   100    26    25    1
   101    67    65    1
   102    65    66    1
   103    91    90    1
   104    85    83   ar
   105    79    78    1
   106    83    84   ar
   107    72    69    1
   108    78    77    1
   109    68    69    1
   110    90    87    1
   111    69    70    1
   112    87    86    1
   113    87    88    1
   114    70    71    2
   115    88    89    2
