@<TRIPOS>MOLECULE
tmp/5n1kA01.pdb
 127 119 0 0 0
SMALL
GASTEIGER

@<TRIPOS>ATOM
      1  N         73.9700  102.0030   30.0070 N.3    43  LEU43      -0.1231
      2  CA        73.1550  102.1880   28.8090 C.3    43  LEU43       0.1693
      3  C         71.7340  101.6660   28.9440 C.2    43  LEU43       0.2592
      4  O         70.9020  101.8890   28.0350 O.2    43  LEU43      -0.2718
      5  CB        73.7920  101.4510   27.6220 C.3    43  LEU43       0.0284
      6  CG        75.1810  101.9270   27.2310 C.3    43  LEU43       0.0019
      7  CD1       75.6990  100.9930   26.1110 C.3    43  LEU43       0.0001
      8  CD2       75.1740  103.3640   26.7480 C.3    43  LEU43       0.0001
      9  N         71.4630  100.8920   29.9760 N.am   44  GLY44      -0.1957
     10  CA        70.2070  100.1990   30.0990 C.3    44  GLY44       0.1869
     11  C         70.2470   99.4460   31.4020 C.2    44  GLY44       0.2309
     12  O         71.3310   99.0590   31.8420 O.2    44  GLY44      -0.2863
     13  N         73.5490   97.0500   31.4870 N.3    51  VAL51      -0.1245
     14  CA        74.4280   96.9710   30.3290 C.3    51  VAL51       0.1561
     15  C         75.2060   98.2630   30.3370 C.2    51  VAL51       0.2260
     16  O         74.6030   99.3400   30.4300 O.2    51  VAL51      -0.2867
     17  CB        73.6480   96.8230   29.0150 C.3    51  VAL51       0.0252
     18  CG1       74.6740   96.8520   27.8540 C.3    51  VAL51       0.0019
     19  CG2       72.7540   95.5700   28.9980 C.3    51  VAL51       0.0019
     20  N         79.5120   96.8110   24.4620 N.3    63  ALA63      -0.1245
     21  CA        78.3940   96.8760   25.4000 C.3    63  ALA63       0.1562
     22  C         78.5330   95.6730   26.3280 C.2    63  ALA63       0.2260
     23  O         78.5050   94.5240   25.8650 O.2    63  ALA63      -0.2867
     24  CB        77.0400   96.8900   24.6700 C.3    63  ALA63       0.0290
     25  N         72.9460   91.0300   17.4450 N.3    97  VAL97      -0.1245
     26  CA        74.1570   91.5660   18.0550 C.3    97  VAL97       0.1561
     27  C         75.2000   90.4700   18.2290 C.2    97  VAL97       0.2260
     28  O         74.8820   89.3130   18.5070 O.2    97  VAL97      -0.2867
     29  CB        73.8390   92.2230   19.4070 C.3    97  VAL97       0.0252
     30  CG1       73.4380   91.1850   20.4000 C.3    97  VAL97       0.0019
     31  CG2       75.0280   92.9810   19.8870 C.3    97  VAL97       0.0019
     32  N         79.3800   92.4150   24.3060 N.3   113  MET113     -0.1230
     33  CA        78.8190   92.4610   22.9620 C.3   113  MET113      0.1702
     34  C         79.3410   93.6880   22.2050 C.2   113  MET113      0.2592
     35  O         79.8390   94.6480   22.7930 O.2   113  MET113     -0.2718
     36  CB        77.2750   92.5060   23.0430 C.3   113  MET113      0.0401
     37  CG        76.6440   91.3680   23.8880 C.3   113  MET113      0.0596
     38  SD        74.9500   91.9510   24.1060 S.3   113  MET113     -0.1393
     39  CE        75.1020   92.7980   25.7020 C.3   113  MET113      0.0692
     40  N         79.2120   93.6570   20.8830 N.am  114  GLU114     -0.1966
     41  CA        79.5020   94.8290   20.0750 C.3   114  GLU114      0.1733
     42  C         78.6470   95.9870   20.5440 C.2   114  GLU114      0.2616
     43  O         77.5230   95.7950   20.9770 O.2   114  GLU114     -0.2715
     44  CB        79.2190   94.5620   18.5920 C.3   114  GLU114      0.0429
     45  CG        79.2320   95.8340   17.7630 C.3   114  GLU114      0.1163
     46  CD        79.0350   95.6100   16.2770 C.2   114  GLU114      0.3649
     47  OE1       78.8970   96.6230   15.5520 O.co2 114  GLU114     -0.2457
     48  OE2       79.0220   94.4400   15.8470 O.co2 114  GLU114     -0.2457
     49  N         79.2100   97.1840   20.5140 N.am  115  TYR115     -0.1960
     50  CA        78.4530   98.3730   20.8860 C.3   115  TYR115      0.1771
     51  C         77.7470   98.9240   19.6580 C.2   115  TYR115      0.2619
     52  O         78.4020   99.2110   18.6430 O.2   115  TYR115     -0.2715
     53  CB        79.3990   99.4250   21.4680 C.3   115  TYR115      0.0574
     54  CG        78.7160  100.7210   21.8020 C.ar  115  TYR115     -0.0198
     55  CD1       77.5500  100.7270   22.5430 C.ar  115  TYR115     -0.0009
     56  CD2       79.2270  101.9460   21.3410 C.ar  115  TYR115     -0.0009
     57  CE1       76.9160  101.9150   22.8650 C.ar  115  TYR115      0.0417
     58  CE2       78.6040  103.1330   21.6440 C.ar  115  TYR115      0.0417
     59  CZ        77.4290  103.1150   22.3900 C.ar  115  TYR115      0.1957
     60  OH        76.8080  104.3090   22.6850 O.3   115  TYR115     -0.2866
     61  N         76.4250   99.0450   19.7370 N.am  116  VAL116     -0.1977
     62  CA        75.5970   99.5860   18.6670 C.3   116  VAL116      0.1596
     63  C         75.1610  100.9800   19.0920 C.2   116  VAL116      0.2287
     64  O         74.3040  101.1040   19.9670 O.2   116  VAL116     -0.2864
     65  CB        74.3860   98.6800   18.3990 C.3   116  VAL116      0.0276
     66  CG1       73.5700   99.2250   17.1880 C.3   116  VAL116      0.0022
     67  CG2       74.9320   97.3090   18.1110 C.3   116  VAL116      0.0022
     68  N         68.2010  102.6600   21.2170 N.3   120  GLU120     -0.1245
     69  CA        67.0650  101.7480   21.0310 C.3   120  GLU120      0.1567
     70  C         66.0500  102.3320   20.0500 C.2   120  GLU120      0.2260
     71  O         65.7280  103.5190   20.0990 O.2   120  GLU120     -0.2867
     72  CB        66.3350  101.5560   22.3640 C.3   120  GLU120      0.0388
     73  CG        67.3070  100.9910   23.4730 C.3   120  GLU120      0.1160
     74  CD        66.5700  100.9310   24.8280 C.2   120  GLU120      0.3649
     75  OE1       65.3760  101.3160   24.8360 O.co2 120  GLU120     -0.2457
     76  OE2       67.1750  100.4770   25.8180 O.co2 120  GLU120     -0.2457
     77  N         62.2800   98.1890   22.7540 N.3   163  GLU163     -0.1231
     78  CA        63.3520   98.3260   23.7530 C.3   163  GLU163      0.1699
     79  C         64.5440   97.4460   23.4330 C.2   163  GLU163      0.2592
     80  O         65.6580   97.7190   23.8890 O.2   163  GLU163     -0.2718
     81  CB        62.8480   97.9800   25.1590 C.3   163  GLU163      0.0402
     82  CG        61.8110   98.9630   25.7780 C.3   163  GLU163      0.1161
     83  CD        60.3350   98.6080   25.4420 C.2   163  GLU163      0.3649
     84  OE1       60.0500   98.2110   24.2720 O.co2 163  GLU163     -0.2457
     85  OE2       59.5140   98.7720   26.3850 O.co2 163  GLU163     -0.2457
     86  N         64.3110   96.3330   22.7310 N.am  164  ASN164     -0.1974
     87  CA        65.3680   95.3620   22.4760 C.3   164  ASN164      0.1688
     88  C         65.9590   95.4660   21.0940 C.2   164  ASN164      0.2292
     89  O         66.7310   94.5670   20.7100 O.2   164  ASN164     -0.2864
     90  CB        64.8350   93.9290   22.6570 C.3   164  ASN164      0.1181
     91  CG        64.4670   93.6350   24.0770 C.2   164  ASN164      0.2629
     92  OD1       64.7540   94.4470   24.9740 O.2   164  ASN164     -0.2716
     93  ND2       64.0080   92.3980   24.3250 N.am  164  ASN164     -0.0877
     94  N         68.2080   97.7020   18.5460 N.3   166  LEU166     -0.1245
     95  CA        69.1540   98.8090   18.5180 C.3   166  LEU166      0.1561
     96  C         69.3400   99.2270   17.0640 C.2   166  LEU166      0.2260
     97  O         69.2410   98.3940   16.1650 O.2   166  LEU166     -0.2867
     98  CB        70.5290   98.3860   19.0870 C.3   166  LEU166      0.0270
     99  CG        70.5450   97.9450   20.5580 C.3   166  LEU166      0.0019
    100  CD1       71.9300   97.5560   21.0960 C.3   166  LEU166      0.0001
    101  CD2       69.8220   98.9800   21.4660 C.3   166  LEU166      0.0001
    102  N         68.9960   92.6570   20.2890 N.3   176  THR176     -0.1203
    103  CA        69.7680   92.3740   21.4880 C.3   176  THR176      0.1994
    104  C         68.8810   91.6220   22.4790 C.2   176  THR176      0.2617
    105  O         67.7340   91.2650   22.1710 O.2   176  THR176     -0.2717
    106  CB        70.2990   93.6600   22.1130 C.3   176  THR176      0.1784
    107  OG1       69.2220   94.4290   22.6750 O.3   176  THR176     -0.2211
    108  CG2       70.9800   94.4540   21.1100 C.3   176  THR176      0.0376
    109  N         69.4250   91.4150   23.6770 N.am  177  ASP177     -0.1973
    110  CA        68.6950   90.9070   24.8190 C.3   177  ASP177      0.1709
    111  C         68.0740   89.5520   24.4870 C.2   177  ASP177      0.2293
    112  O         66.8550   89.4190   24.3240 O.2   177  ASP177     -0.2864
    113  CB        67.6440   91.9350   25.2730 C.3   177  ASP177      0.1436
    114  CG        68.2900   93.1470   25.9680 C.2   177  ASP177      0.3671
    115  OD1       69.4710   93.0370   26.3990 O.co2 177  ASP177     -0.2456
    116  OD2       67.6160   94.1890   26.1030 O.co2 177  ASP177     -0.2456
    117  N         71.4210  107.3420   23.7420 N.3   319  PHE319     -0.1241
    118  CA        70.9090  106.5560   24.8570 C.3   319  PHE319      0.1605
    119  C         70.4810  107.4830   25.9920 C.2   319  PHE319      0.2264
    120  O         71.0810  108.5490   26.2230 O.2   319  PHE319     -0.2867
    121  CB        71.9610  105.5430   25.3970 C.3   319  PHE319      0.0534
    122  CG        72.2330  104.4120   24.4560 C.ar  319  PHE319     -0.0203
    123  CD1       71.4630  103.2530   24.4900 C.ar  319  PHE319     -0.0042
    124  CD2       73.2200  104.5590   23.4570 C.ar  319  PHE319     -0.0042
    125  CE1       71.6660  102.1800   23.5420 C.ar  319  PHE319     -0.0003
    126  CE2       73.4520  103.5690   22.5220 C.ar  319  PHE319     -0.0003
    127  CZ        72.7080  102.3360   22.5550 C.ar  319  PHE319     -0.0000
@<TRIPOS>BOND
     1    47    46   ar
     2    48    46   ar
     3    97    96    2
     4    46    45    1
     5    96    95    1
     6    66    65    1
     7    25    26    1
     8    45    44    1
     9    26    27    1
    10    26    29    1
    11    67    65    1
    12    27    28    2
    13    65    62    1
    14    95    94    1
    15    95    98    1
    16    44    41    1
    17    52    51    2
    18    62    63    1
    19    62    61    1
    20    98    99    1
    21    63    64    2
    22    29    31    1
    23    29    30    1
    24    51    61   am
    25    51    50    1
    26    70    71    2
    27    70    69    1
    28    41    42    1
    29    41    40    1
    30   102   103    1
    31    49    42   am
    32    49    50    1
    33    42    43    2
    34    99   100    1
    35    99   101    1
    36    89    88    2
    37    40    34   am
    38    50    53    1
    39    69    68    1
    40    69    72    1
    41    88    87    1
    42   108   106    1
    43    56    58   ar
    44    56    54   ar
    45    53    54    1
    46   103   106    1
    47   103   104    1
    48    58    59   ar
    49    54    55   ar
    50   106   107    1
    51   105   104    2
    52    34    35    2
    53    34    33    1
    54    72    73    1
    55    59    60    1
    56    59    57   ar
    57    87    90    1
    58    87    86    1
    59   104   109   am
    60   126   127   ar
    61   126   124   ar
    62    55    57   ar
    63   127   125   ar
    64    90    91    1
    65    86    79   am
    66    77    78    1
    67    33    36    1
    68    33    32    1
    69    36    37    1
    70    79    78    1
    71    79    80    2
    72   124   122   ar
    73    73    74    1
    74   125   123   ar
    75   109   110    1
    76   117   118    1
    77    78    81    1
    78    37    38    1
    79    91    93   am
    80    91    92    2
    81    38    39    1
    82    84    83   ar
    83   112   111    2
    84   122   123   ar
    85   122   121    1
    86    20    21    1
    87   111   110    1
    88    24    21    1
    89   110   113    1
    90    74    75   ar
    91    74    76   ar
    92   118   121    1
    93   118   119    1
    94    81    82    1
    95   113   114    1
    96    21    22    1
    97    83    82    1
    98    83    85   ar
    99    23    22    2
   100   114   116   ar
   101   114   115   ar
   102   119   120    2
   103     7     6    1
   104     8     6    1
   105     6     5    1
   106     5     2    1
   107    18    17    1
   108     4     3    2
   109     2     3    1
   110     2     1    1
   111     3     9   am
   112    19    17    1
   113    17    14    1
   114     9    10    1
   115    10    11    1
   116    14    15    1
   117    14    13    1
   118    15    16    2
   119    11    12    2
