@<TRIPOS>MOLECULE
tmp/5n1kA02.pdb
 115 113 0 0 0
SMALL
GASTEIGER

@<TRIPOS>ATOM
      1  N         66.7220   78.9600   -2.7800 N.3    10  SER10      -0.1202
      2  CA        67.8860   79.6430   -2.2190 C.3    10  SER10       0.2020
      3  C         67.7650   79.8260   -0.7170 C.2    10  SER10       0.2618
      4  O         68.7490   79.6900    0.0210 O.2    10  SER10      -0.2717
      5  CB        68.0710   80.9880   -2.9240 C.3    10  SER10       0.2103
      6  OG        68.5120   80.6890   -4.2570 O.3    10  SER10      -0.2182
      7  N         66.5640   80.1310   -0.2300 N.am   11  VAL11      -0.1979
      8  CA        66.3740   80.2010    1.2140 C.3    11  VAL11       0.1595
      9  C         66.7390   78.8900    1.8590 C.2    11  VAL11       0.2287
     10  O         67.4460   78.8620    2.8730 O.2    11  VAL11      -0.2864
     11  CB        64.9290   80.6000    1.5570 C.3    11  VAL11       0.0276
     12  CG1       64.7300   80.5080    3.0630 C.3    11  VAL11       0.0022
     13  CG2       64.7480   81.9920    1.1420 C.3    11  VAL11       0.0022
     14  N         70.4340   78.4200    2.0600 N.3    14  PHE14      -0.1227
     15  CA        71.0690   79.2860    3.0510 C.3    14  PHE14       0.1736
     16  C         70.8490   78.7480    4.4660 C.2    14  PHE14       0.2595
     17  O         71.7830   78.6950    5.2880 O.2    14  PHE14      -0.2718
     18  CB        70.4940   80.6910    2.9170 C.3    14  PHE14       0.0547
     19  CG        70.9820   81.6500    3.9490 C.ar   14  PHE14      -0.0202
     20  CD1       72.0840   82.4570    3.7100 C.ar   14  PHE14      -0.0042
     21  CD2       70.3460   81.7190    5.2000 C.ar   14  PHE14      -0.0042
     22  CE1       72.5350   83.3570    4.6940 C.ar   14  PHE14      -0.0003
     23  CE2       70.7930   82.6220    6.1860 C.ar   14  PHE14      -0.0003
     24  CZ        71.8830   83.4210    5.9410 C.ar   14  PHE14      -0.0000
     25  N         69.6200   78.2940    4.7410 N.am   15  LEU15      -0.1980
     26  CA        69.2630   77.8420    6.0840 C.3    15  LEU15       0.1596
     27  C         69.9570   76.5360    6.4240 C.2    15  LEU15       0.2287
     28  O         70.2600   76.2700    7.6060 O.2    15  LEU15      -0.2864
     29  CB        67.7410   77.6730    6.1920 C.3    15  LEU15       0.0297
     30  CG        66.9160   78.9820    6.1090 C.3    15  LEU15       0.0022
     31  CD1       65.3810   78.7190    6.2130 C.3    15  LEU15       0.0001
     32  CD2       67.3490   80.0260    7.1440 C.3    15  LEU15       0.0001
     33  N         74.2060   86.3830   12.2920 N.3    93  PHE93      -0.1241
     34  CA        73.2410   86.8980   11.3140 C.3    93  PHE93       0.1605
     35  C         73.3830   88.4160   11.3190 C.2    93  PHE93       0.2264
     36  O         73.7240   88.9680   12.3670 O.2    93  PHE93      -0.2867
     37  CB        71.8030   86.4680   11.7100 C.3    93  PHE93       0.0534
     38  CG        70.7850   86.6020   10.5940 C.ar   93  PHE93      -0.0203
     39  CD1       70.8420   85.7500    9.5080 C.ar   93  PHE93      -0.0042
     40  CD2       69.7460   87.5230   10.6570 C.ar   93  PHE93      -0.0042
     41  CE1       69.9470   85.8410    8.4780 C.ar   93  PHE93      -0.0003
     42  CE2       68.8260   87.5990    9.6140 C.ar   93  PHE93      -0.0003
     43  CZ        68.9340   86.7640    8.5230 C.ar   93  PHE93      -0.0000
     44  N         63.1950   88.3770    8.6310 N.3   145  LEU145     -0.1245
     45  CA        64.3450   87.5430    8.2500 C.3   145  LEU145      0.1561
     46  C         65.0440   86.9730    9.4750 C.2   145  LEU145      0.2260
     47  O         65.5500   85.8500    9.4330 O.2   145  LEU145     -0.2867
     48  CB        65.3350   88.3950    7.4510 C.3   145  LEU145      0.0270
     49  CG        64.7580   88.8430    6.0740 C.3   145  LEU145      0.0019
     50  CD1       65.7820   89.8000    5.4080 C.3   145  LEU145      0.0001
     51  CD2       64.5510   87.5990    5.1750 C.3   145  LEU145      0.0001
     52  N         63.0890   84.1530   10.7120 N.3   148  GLU148     -0.1231
     53  CA        63.1740   82.9990    9.7830 C.3   148  GLU148      0.1699
     54  C         64.4480   82.2160   10.0730 C.2   148  GLU148      0.2592
     55  O         64.4220   80.9750   10.1850 O.2   148  GLU148     -0.2718
     56  CB        63.1090   83.4680    8.3200 C.3   148  GLU148      0.0402
     57  CG        63.2470   82.2960    7.3270 C.3   148  GLU148      0.1161
     58  CD        63.0180   82.7350    5.9300 C.2   148  GLU148      0.3649
     59  OE1       63.4890   83.8190    5.6260 O.co2 148  GLU148     -0.2457
     60  OE2       62.3940   81.9840    5.1520 O.co2 148  GLU148     -0.2457
     61  N         65.5270   82.9510   10.3260 N.am  149  TYR149     -0.1976
     62  CA        66.8300   82.3810   10.6780 C.3   149  TYR149      0.1639
     63  C         66.7530   81.6620   12.0180 C.2   149  TYR149      0.2290
     64  O         67.1010   80.4870   12.1360 O.2   149  TYR149     -0.2864
     65  CB        67.8820   83.5160   10.7400 C.3   149  TYR149      0.0560
     66  CG        69.2130   83.0790   11.3260 C.ar  149  TYR149     -0.0198
     67  CD1       70.1440   82.3210   10.5720 C.ar  149  TYR149     -0.0009
     68  CD2       69.5520   83.4320   12.6240 C.ar  149  TYR149     -0.0009
     69  CE1       71.3840   81.9080   11.1350 C.ar  149  TYR149      0.0417
     70  CE2       70.7450   82.9820   13.2240 C.ar  149  TYR149      0.0417
     71  CZ        71.6620   82.2520   12.4660 C.ar  149  TYR149      0.1957
     72  OH        72.8430   81.8690   13.0870 O.3   149  TYR149     -0.2866
     73  N         56.0960   86.7870    4.1070 N.3   284  LYS284     -0.1245
     74  CA        56.9720   87.4440    3.1330 C.3   284  LYS284      0.1561
     75  C         56.2330   87.7770    1.8430 C.2   284  LYS284      0.2260
     76  O         56.6010   88.7300    1.1470 O.2   284  LYS284     -0.2867
     77  CB        58.1980   86.5380    2.8010 C.3   284  LYS284      0.0271
     78  CG        59.1310   86.5120    4.0690 C.3   284  LYS284      0.0035
     79  CD        60.2730   85.4240    4.0150 C.3   284  LYS284      0.0206
     80  CE        61.4480   85.9020    3.2340 C.3   284  LYS284      0.1093
     81  NZ        62.5560   84.8520    3.1350 N.3   284  LYS284     -0.1314
     82  N         63.6090   91.2780   -0.2630 N.3   294  TRP294     -0.1227
     83  CA        64.1120   90.5610    0.9080 C.3   294  TRP294      0.1737
     84  C         65.6130   90.3670    0.8270 C.2   294  TRP294      0.2595
     85  O         66.3160   90.5200    1.8300 O.2   294  TRP294     -0.2718
     86  CB        63.3900   89.2050    1.0490 C.3   294  TRP294      0.0564
     87  CG        61.9510   89.4330    1.3400 C.ar  294  TRP294      0.0003
     88  CD1       60.8880   89.3940    0.4430 C.ar  294  TRP294      0.0946
     89  CD2       61.3940   89.7860    2.6000 C.ar  294  TRP294      0.0152
     90  NE1       59.7170   89.6910    1.1020 N.ar  294  TRP294     -0.2442
     91  CE2       60.0010   89.9540    2.4260 C.ar  294  TRP294      0.0810
     92  CE3       61.9320   89.9630    3.8570 C.ar  294  TRP294      0.0012
     93  CZ2       59.1440   90.2680    3.4880 C.ar  294  TRP294      0.0191
     94  CZ3       61.0670   90.3110    4.9280 C.ar  294  TRP294      0.0001
     95  CH2       59.6970   90.4720    4.7210 C.ar  294  TRP294      0.0015
     96  N         66.1290   90.0350   -0.3730 N.am  295  ILE295     -0.1980
     97  CA        67.5630   89.8030   -0.4840 C.3   295  ILE295      0.1595
     98  C         68.3380   91.0980   -0.3140 C.2   295  ILE295      0.2287
     99  O         69.3570   91.1260    0.3880 O.2   295  ILE295     -0.2864
    100  CB        67.8830   89.1160   -1.8180 C.3   295  ILE295      0.0276
    101  CG1       67.1090   87.8070   -1.9260 C.3   295  ILE295      0.0022
    102  CG2       69.3810   88.9480   -2.0030 C.3   295  ILE295      0.0022
    103  CD1       67.4310   86.8420   -0.8950 C.3   295  ILE295      0.0001
    104  N         68.6080   91.8430    3.3350 N.3   298  TYR298     -0.1241
    105  CA        69.6090   90.9730    3.9430 C.3   298  TYR298      0.1605
    106  C         71.0110   91.4720    3.6350 C.2   298  TYR298      0.2264
    107  O         71.8920   91.4760    4.5090 O.2   298  TYR298     -0.2867
    108  CB        69.4340   89.5090    3.4640 C.3   298  TYR298      0.0534
    109  CG        70.5970   88.6350    3.8950 C.ar  298  TYR298     -0.0201
    110  CD1       70.6750   88.0900    5.1860 C.ar  298  TYR298     -0.0009
    111  CD2       71.6210   88.3580    3.0130 C.ar  298  TYR298     -0.0009
    112  CE1       71.7710   87.3320    5.5780 C.ar  298  TYR298      0.0417
    113  CE2       72.7160   87.5980    3.3900 C.ar  298  TYR298      0.0417
    114  CZ        72.7910   87.0960    4.6770 C.ar  298  TYR298      0.1957
    115  OH        73.8800   86.3220    5.0470 O.3   298  TYR298     -0.2866
@<TRIPOS>BOND
     1     6     5    1
     2     5     2    1
     3     1     2    1
     4     2     3    1
     5   102   100    1
     6   101   100    1
     7   101   103    1
     8   100    97    1
     9     3     7   am
    10     3     4    2
    11    97    96    1
    12    97    98    1
    13    96    84   am
    14    98    99    2
    15    82    83    1
    16     7     8    1
    17    88    90   ar
    18    88    87   ar
    19    84    83    1
    20    84    85    2
    21    83    86    1
    22    86    87    1
    23    90    91   ar
    24    13    11    1
    25    76    75    2
    26     8    11    1
    27     8     9    1
    28    87    89   ar
    29    11    12    1
    30    75    74    1
    31     9    10    2
    32    14    15    1
    33    91    89   ar
    34    91    93   ar
    35    89    92   ar
    36    77    74    1
    37    77    78    1
    38    18    15    1
    39    18    19    1
    40   111   113   ar
    41   111   109   ar
    42    15    16    1
    43    74    73    1
    44    81    80    1
    45    80    79    1
    46   104   105    1
    47   113   114   ar
    48   108   109    1
    49   108   105    1
    50    93    95   ar
    51   106   105    1
    52   106   107    2
    53    20    19   ar
    54    20    22   ar
    55    92    94   ar
    56   109   110   ar
    57    19    21   ar
    58    79    78    1
    59    16    25   am
    60    16    17    2
    61   114   115    1
    62   114   112   ar
    63    22    24   ar
    64    95    94   ar
    65    25    26    1
    66    60    58   ar
    67    51    49    1
    68   110   112   ar
    69    21    23   ar
    70    50    49    1
    71    59    58   ar
    72    58    57    1
    73    24    23   ar
    74    49    48    1
    75    26    29    1
    76    26    27    1
    77    30    29    1
    78    30    31    1
    79    30    32    1
    80    27    28    2
    81    57    56    1
    82    48    45    1
    83    45    44    1
    84    45    46    1
    85    56    53    1
    86    41    43   ar
    87    41    39   ar
    88    43    42   ar
    89    47    46    2
    90    39    38   ar
    91    42    40   ar
    92    53    54    1
    93    53    52    1
    94    54    55    2
    95    54    61   am
    96    61    62    1
    97    67    69   ar
    98    67    66   ar
    99    38    40   ar
   100    38    37    1
   101    62    65    1
   102    62    63    1
   103    65    66    1
   104    69    71   ar
   105    34    35    1
   106    34    37    1
   107    34    33    1
   108    35    36    2
   109    66    68   ar
   110    63    64    2
   111    71    72    1
   112    71    70   ar
   113    68    70   ar
