@<TRIPOS>MOLECULE
tmp/5n1lA01.pdb
 147 138 0 0 0
SMALL
GASTEIGER

@<TRIPOS>ATOM
      1  N        -30.2940    3.5080   11.8980 N.3    49  LEU49      -0.1231
      2  CA       -29.4930    2.3020   12.0780 C.3    49  LEU49       0.1693
      3  C        -28.0730    2.4440   11.5760 C.2    49  LEU49       0.2593
      4  O        -27.2410    1.5810   11.8770 O.2    49  LEU49      -0.2718
      5  CB       -30.1200    1.1440   11.3030 C.3    49  LEU49       0.0284
      6  CG       -31.5050    0.7200   11.7690 C.3    49  LEU49       0.0019
      7  CD1      -32.1390   -0.2510   10.7620 C.3    49  LEU49       0.0001
      8  CD2      -31.4390    0.0920   13.1510 C.3    49  LEU49       0.0001
      9  N        -27.8040    3.4580   10.7750 N.am   50  GLY50      -0.1942
     10  CA       -26.4890    3.6500   10.2130 C.3    50  GLY50       0.2014
     11  C        -26.5200    4.8460    9.2880 C.2    50  GLY50       0.2640
     12  O        -27.5860    5.3170    8.8830 O.2    50  GLY50      -0.2714
     13  N        -25.3290    5.3360    8.9690 N.am   51  THR51      -0.1936
     14  CA       -25.1910    6.5130    8.1260 C.3    51  THR51       0.2028
     15  C        -24.1140    6.2700    7.0830 C.2    51  THR51       0.2642
     16  O        -23.2330    5.4200    7.2490 O.2    51  THR51      -0.2714
     17  CB       -24.8260    7.7470    8.9450 C.3    51  THR51       0.1808
     18  OG1      -23.5480    7.5370    9.5590 O.3    51  THR51      -0.2208
     19  CG2      -25.8870    8.0240   10.0030 C.3    51  THR51       0.0379
     20  N        -24.2040    7.0350    6.0000 N.am   52  GLY52      -0.1954
     21  CA       -23.2510    6.9670    4.9150 C.3    52  GLY52       0.1869
     22  C        -23.1620    8.2990    4.2010 C.2    52  GLY52       0.2309
     23  O        -23.6660    9.3080    4.7030 O.2    52  GLY52      -0.2863
     24  N        -29.7420    5.1450    6.9810 N.3    57  VAL57      -0.1245
     25  CA       -30.6390    4.0020    6.9690 C.3    57  VAL57       0.1561
     26  C        -31.4150    4.0310    8.2700 C.2    57  VAL57       0.2260
     27  O        -30.8180    4.1350    9.3420 O.2    57  VAL57      -0.2867
     28  CB       -29.8490    2.6980    6.8340 C.3    57  VAL57       0.0252
     29  CG1      -30.7840    1.4930    6.9040 C.3    57  VAL57       0.0019
     30  CG2      -29.0720    2.7180    5.5380 C.3    57  VAL57       0.0019
     31  N        -35.7110   -1.7750    6.9890 N.3    70  ALA70      -0.1245
     32  CA       -34.6090   -0.8230    6.9710 C.3    70  ALA70       0.1562
     33  C        -34.7460    0.0140    5.7050 C.2    70  ALA70       0.2260
     34  O        -34.7130   -0.5270    4.5930 O.2    70  ALA70      -0.2867
     35  CB       -33.2720   -1.5650    6.9760 C.3    70  ALA70       0.0290
     36  N        -33.2280    2.8590    3.4130 N.3    72  LYS72      -0.1245
     37  CA       -32.1110    3.7140    3.0400 C.3    72  LYS72       0.1561
     38  C        -32.6540    4.9390    2.3160 C.2    72  LYS72       0.2260
     39  O        -33.4320    4.8110    1.3650 O.2    72  LYS72      -0.2867
     40  CB       -31.1160    2.9730    2.1510 C.3    72  LYS72       0.0271
     41  CG       -29.9390    3.8490    1.7410 C.3    72  LYS72       0.0035
     42  CD       -28.6520    3.0680    1.5710 C.3    72  LYS72       0.0206
     43  CE       -28.5920    2.3960    0.2510 C.3    72  LYS72       0.1093
     44  NZ       -27.1930    1.8790    0.0210 N.3    72  LYS72      -0.1314
     45  N        -29.3640   -9.3130    1.3080 N.3   104  VAL104     -0.1245
     46  CA       -30.5380   -8.6320    1.8340 C.3   104  VAL104      0.1561
     47  C        -31.6170   -8.5340    0.7560 C.2   104  VAL104      0.2260
     48  O        -31.3330   -8.3460   -0.4350 O.2   104  VAL104     -0.2867
     49  CB       -30.1620   -7.2510    2.3920 C.3   104  VAL104      0.0252
     50  CG1      -29.7810   -6.2670    1.2680 C.3   104  VAL104      0.0019
     51  CG2      -31.3130   -6.6990    3.2320 C.3   104  VAL104      0.0019
     52  N        -35.5990   -2.2770    2.6320 N.3   120  MET120     -0.1230
     53  CA       -35.0990   -3.6390    2.7180 C.3   120  MET120      0.1702
     54  C        -35.6800   -4.3290    3.9480 C.2   120  MET120      0.2592
     55  O        -36.0920   -3.6870    4.9130 O.2   120  MET120     -0.2718
     56  CB       -33.5730   -3.6250    2.8920 C.3   120  MET120      0.0401
     57  CG       -32.7850   -3.0840    1.7380 C.3   120  MET120      0.0596
     58  SD       -31.1670   -2.6090    2.3200 S.3   120  MET120     -0.1393
     59  CE       -31.5300   -0.9740    2.9350 C.3   120  MET120      0.0692
     60  N        -35.6680   -5.6550    3.9200 N.am  121  GLU121     -0.1966
     61  CA       -35.9520   -6.4270    5.1210 C.3   121  GLU121      0.1733
     62  C        -35.0350   -5.9790    6.2580 C.2   121  GLU121      0.2616
     63  O        -33.8400   -5.7580    6.0650 O.2   121  GLU121     -0.2715
     64  CB       -35.7080   -7.9150    4.8310 C.3   121  GLU121      0.0429
     65  CG       -35.9390   -8.8310    6.0450 C.3   121  GLU121      0.1163
     66  CD       -35.7760  -10.2980    5.7480 C.2   121  GLU121      0.3649
     67  OE1      -36.1630  -10.7180    4.6570 O.co2 121  GLU121     -0.2457
     68  OE2      -35.2780  -11.0320    6.6250 O.co2 121  GLU121     -0.2457
     69  N        -35.6060   -5.8160    7.4480 N.am  122  TYR122     -0.1960
     70  CA       -34.8140   -5.4710    8.6220 C.3   122  TYR122      0.1771
     71  C        -34.1280   -6.7250    9.1720 C.2   122  TYR122      0.2619
     72  O        -34.7760   -7.7530    9.4010 O.2   122  TYR122     -0.2715
     73  CB       -35.7070   -4.8180    9.6780 C.3   122  TYR122      0.0574
     74  CG       -35.0080   -4.5210   10.9750 C.ar  122  TYR122     -0.0198
     75  CD1      -33.8100   -3.8110   10.9950 C.ar  122  TYR122     -0.0009
     76  CD2      -35.5700   -4.8940   12.1860 C.ar  122  TYR122     -0.0009
     77  CE1      -33.1750   -3.5180   12.1650 C.ar  122  TYR122      0.0417
     78  CE2      -34.9270   -4.6150   13.3720 C.ar  122  TYR122      0.0417
     79  CZ       -33.7140   -3.9190   13.3510 C.ar  122  TYR122      0.1957
     80  OH       -33.0480   -3.6100   14.5250 O.3   122  TYR122     -0.2866
     81  N        -32.8090   -6.6440    9.3410 N.am  123  VAL123     -0.1977
     82  CA       -32.0090   -7.7450    9.8720 C.3   123  VAL123      0.1596
     83  C        -31.5640   -7.3410   11.2720 C.2   123  VAL123      0.2287
     84  O        -30.6680   -6.4980   11.4140 O.2   123  VAL123     -0.2864
     85  CB       -30.8020   -8.0300    8.9750 C.3   123  VAL123      0.0276
     86  CG1      -30.0410   -9.2720    9.4960 C.3   123  VAL123      0.0022
     87  CG2      -31.2540   -8.2140    7.5610 C.3   123  VAL123      0.0022
     88  N        -24.5910   -5.4280   12.8070 N.3   127  GLU127     -0.1245
     89  CA       -23.4810   -5.5870   11.8810 C.3   127  GLU127      0.1567
     90  C        -22.3980   -6.4760   12.4760 C.2   127  GLU127      0.2260
     91  O        -22.0800   -6.3970   13.6660 O.2   127  GLU127     -0.2867
     92  CB       -22.8370   -4.2250   11.6190 C.3   127  GLU127      0.0388
     93  CG       -23.7380   -3.2230   10.9470 C.3   127  GLU127      0.1160
     94  CD       -23.1580   -1.8270   10.8940 C.2   127  GLU127      0.3649
     95  OE1      -22.0000   -1.6320   11.3480 O.co2 127  GLU127     -0.2457
     96  OE2      -23.8820   -0.9000   10.4220 O.co2 127  GLU127     -0.2457
     97  N        -18.7040   -3.9240    8.1710 N.3   169  GLU169     -0.1231
     98  CA       -19.7830   -2.9420    8.3030 C.3   169  GLU169      0.1699
     99  C        -20.9950   -3.2980    7.4480 C.2   169  GLU169      0.2592
    100  O        -22.1130   -2.8740    7.7520 O.2   169  GLU169     -0.2718
    101  CB       -19.3000   -1.5460    7.8820 C.3   169  GLU169      0.0402
    102  CG       -18.2550   -0.8910    8.7950 C.3   169  GLU169      0.1161
    103  CD       -16.7920   -1.2280    8.4670 C.2   169  GLU169      0.3649
    104  OE1      -16.4420   -2.3870    8.0930 O.co2 169  GLU169     -0.2457
    105  OE2      -15.9710   -0.2990    8.5990 O.co2 169  GLU169     -0.2457
    106  N        -20.7760   -4.0240    6.3490 N.am  170  ASN170     -0.1974
    107  CA       -21.8020   -4.3260    5.3640 C.3   170  ASN170      0.1688
    108  C        -22.3710   -5.7290    5.5190 C.2   170  ASN170      0.2292
    109  O        -23.1680   -6.1520    4.6750 O.2   170  ASN170     -0.2864
    110  CB       -21.2360   -4.1710    3.9560 C.3   170  ASN170      0.1181
    111  CG       -21.1090   -2.7210    3.5440 C.2   170  ASN170      0.2629
    112  OD1      -21.5590   -1.8160    4.2640 O.2   170  ASN170     -0.2716
    113  ND2      -20.5510   -2.4870    2.3900 N.am  170  ASN170     -0.0877
    114  N        -24.6110   -8.0810    7.8440 N.3   172  LEU172     -0.1245
    115  CA       -25.5590   -8.1230    8.9410 C.3   172  LEU172      0.1561
    116  C        -25.7390   -9.5560    9.4250 C.2   172  LEU172      0.2260
    117  O        -25.6240  -10.5050    8.6590 O.2   172  LEU172     -0.2867
    118  CB       -26.8960   -7.5560    8.4760 C.3   172  LEU172      0.0270
    119  CG       -26.8250   -6.1710    7.8820 C.3   172  LEU172      0.0019
    120  CD1      -28.1270   -5.8100    7.2050 C.3   172  LEU172      0.0001
    121  CD2      -26.4560   -5.1910    8.9500 C.3   172  LEU172      0.0001
    122  N        -25.4210   -6.4230    2.7710 N.3   182  THR182     -0.1203
    123  CA       -26.1530   -5.2320    2.4240 C.3   182  THR182      0.1994
    124  C        -25.2070   -4.2250    1.7640 C.2   182  THR182      0.2617
    125  O        -23.9970   -4.4370    1.6440 O.2   182  THR182     -0.2717
    126  CB       -26.8470   -4.6570    3.6580 C.3   182  THR182      0.1784
    127  OG1      -27.7930   -3.6790    3.2210 O.3   182  THR182     -0.2211
    128  CG2      -25.8450   -4.0080    4.6070 C.3   182  THR182      0.0376
    129  N        -25.7880   -3.1180    1.3470 N.am  183  ASP183     -0.1973
    130  CA       -25.1040   -2.0110    0.6990 C.3   183  ASP183      0.1709
    131  C        -24.5250   -2.4170   -0.6480 C.2   183  ASP183      0.2293
    132  O        -23.3310   -2.7230   -0.7650 O.2   183  ASP183     -0.2864
    133  CB       -24.0600   -1.3290    1.5580 C.3   183  ASP183      0.1436
    134  CG       -23.8050    0.0890    1.0660 C.2   183  ASP183      0.3671
    135  OD1      -23.3400    0.9340    1.8470 O.co2 183  ASP183     -0.2456
    136  OD2      -24.0980    0.3430   -0.1270 O.co2 183  ASP183     -0.2456
    137  N        -27.7250   -2.5700   17.4540 N.3   325  PHE325     -0.1241
    138  CA       -27.1650   -1.4940   16.6500 C.3   325  PHE325      0.1605
    139  C        -26.6910   -0.3490   17.5300 C.2   325  PHE325      0.2264
    140  O        -27.2370   -0.0960   18.6050 O.2   325  PHE325     -0.2867
    141  CB       -28.1710   -0.9700   15.6250 C.3   325  PHE325      0.0534
    142  CG       -28.4750   -1.9680   14.5420 C.ar  325  PHE325     -0.0203
    143  CD1      -27.7400   -1.9580   13.3690 C.ar  325  PHE325     -0.0042
    144  CD2      -29.4580   -2.9370   14.7140 C.ar  325  PHE325     -0.0042
    145  CE1      -27.9840   -2.8740   12.3490 C.ar  325  PHE325     -0.0003
    146  CE2      -29.7140   -3.8640   13.7190 C.ar  325  PHE325     -0.0003
    147  CZ       -28.9650   -3.8340   12.5240 C.ar  325  PHE325     -0.0000
@<TRIPOS>BOND
     1   132   131    2
     2   131   130    1
     3    48    47    2
     4   136   134   ar
     5    44    43    1
     6    43    42    1
     7   130   129    1
     8   130   133    1
     9    47    46    1
    10   134   133    1
    11   134   135   ar
    12    50    49    1
    13    45    46    1
    14   129   124   am
    15    39    38    2
    16    42    41    1
    17   125   124    2
    18    57    58    1
    19    57    56    1
    20    41    40    1
    21   124   123    1
    22    46    49    1
    23    40    37    1
    24    38    37    1
    25    58    59    1
    26   113   111   am
    27    49    51    1
    28   123   122    1
    29   123   126    1
    30    52    53    1
    31    53    56    1
    32    53    54    1
    33    37    36    1
    34   127   126    1
    35   111   110    1
    36   111   112    2
    37   126   128    1
    38    60    54   am
    39    60    61    1
    40    54    55    2
    41   110   107    1
    42    22    23    2
    43    22    21    1
    44    34    33    2
    45    67    66   ar
    46   109   108    2
    47    64    61    1
    48    64    65    1
    49    21    20    1
    50    61    62    1
    51   107   108    1
    52   107   106    1
    53    30    28    1
    54    33    32    1
    55    66    65    1
    56    66    68   ar
    57    20    15   am
    58    63    62    2
    59    62    69   am
    60   106    99   am
    61    28    29    1
    62    28    25    1
    63    25    24    1
    64    25    26    1
    65    32    35    1
    66    32    31    1
    67    15    16    2
    68    15    14    1
    69   120   119    1
    70    99   100    2
    71    99    98    1
    72    69    70    1
    73    87    85    1
    74   114   115    1
    75   101    98    1
    76   101   102    1
    77   119   118    1
    78   119   121    1
    79   104   103   ar
    80    14    17    1
    81    14    13    1
    82    97    98    1
    83    26    27    2
    84   103   105   ar
    85   103   102    1
    86   118   115    1
    87    70    71    1
    88    70    73    1
    89   117   116    2
    90    12    11    2
    91   115   116    1
    92    17    18    1
    93    17    19    1
    94    13    11   am
    95    85    86    1
    96    85    82    1
    97    71    81   am
    98    71    72    2
    99    11    10    1
   100    81    82    1
   101    73    74    1
   102    82    83    1
   103    10     9    1
   104    96    94   ar
   105     7     6    1
   106     9     3   am
   107    94    93    1
   108    94    95   ar
   109    93    92    1
   110    74    75   ar
   111    74    76   ar
   112    75    77   ar
   113    83    84    2
   114     5     6    1
   115     5     2    1
   116     3     4    2
   117     3     2    1
   118    92    89    1
   119     6     8    1
   120    89    90    1
   121    89    88    1
   122     1     2    1
   123    77    79   ar
   124    76    78   ar
   125   145   147   ar
   126   145   143   ar
   127    90    91    2
   128   147   146   ar
   129    79    78   ar
   130    79    80    1
   131   143   142   ar
   132   146   144   ar
   133   142   144   ar
   134   142   141    1
   135   141   138    1
   136   138   137    1
   137   138   139    1
   138   139   140    2
