@<TRIPOS>MOLECULE
tmp/5n1mA01.pdb
 136 127 0 0 0
SMALL
GASTEIGER

@<TRIPOS>ATOM
      1  N        -15.6790   30.0610  -30.8080 N.3    49  LEU49      -0.1231
      2  CA       -14.8580   30.2600  -29.6180 C.3    49  LEU49       0.1693
      3  C        -13.4480   29.7070  -29.7580 C.2    49  LEU49       0.2592
      4  O        -12.5930   30.0150  -28.9180 O.2    49  LEU49      -0.2718
      5  CB       -15.5120   29.5740  -28.4140 C.3    49  LEU49       0.0284
      6  CG       -16.9150   30.0460  -28.0420 C.3    49  LEU49       0.0019
      7  CD1      -17.5090   29.1400  -26.9660 C.3    49  LEU49       0.0001
      8  CD2      -16.8840   31.4910  -27.5810 C.3    49  LEU49       0.0001
      9  N        -13.2070   28.8750  -30.7610 N.am   50  GLY50      -0.1957
     10  CA       -11.8920   28.3060  -30.9960 C.3    50  GLY50       0.1869
     11  C        -11.9490   27.4230  -32.2250 C.2    50  GLY50       0.2309
     12  O        -13.0190   26.9590  -32.6310 O.2    50  GLY50      -0.2863
     13  N        -15.1350   25.0510  -32.1690 N.3    57  VAL57      -0.1245
     14  CA       -16.0360   25.0990  -31.0240 C.3    57  VAL57       0.1561
     15  C        -16.8100   26.4030  -31.1160 C.2    57  VAL57       0.2260
     16  O        -16.2160   27.4740  -31.2760 O.2    57  VAL57      -0.2867
     17  CB       -15.2840   25.0150  -29.6860 C.3    57  VAL57       0.0252
     18  CG1      -16.2670   25.1590  -28.5240 C.3    57  VAL57       0.0019
     19  CG2      -14.5210   23.7070  -29.5850 C.3    57  VAL57       0.0019
     20  N        -21.2530   25.2150  -25.2960 N.3    70  ALA70      -0.1245
     21  CA       -20.1500   25.1540  -26.2440 C.3    70  ALA70       0.1562
     22  C        -20.3150   23.8880  -27.0770 C.2    70  ALA70       0.2260
     23  O        -20.3760   22.7850  -26.5280 O.2    70  ALA70      -0.2867
     24  CB       -18.8120   25.1310  -25.5080 C.3    70  ALA70       0.0290
     25  N        -18.7160   21.5520  -29.9390 N.3    72  LYS72      -0.1245
     26  CA       -17.5820   21.1410  -30.7500 C.3    72  LYS72       0.1561
     27  C        -18.1080   20.4360  -31.9940 C.2    72  LYS72       0.2260
     28  O        -18.9030   19.4970  -31.8910 O.2    72  LYS72      -0.2867
     29  CB       -16.6730   20.2130  -29.9430 C.3    72  LYS72       0.0271
     30  CG       -15.4050   19.8000  -30.6620 C.3    72  LYS72       0.0035
     31  CD       -14.4360   19.1150  -29.7090 C.3    72  LYS72       0.0206
     32  CE       -13.2070   18.6200  -30.4290 C.3    72  LYS72       0.1093
     33  NZ       -12.1950   18.1240  -29.4640 N.3    72  LYS72      -0.1314
     34  N        -14.9980   19.3650  -17.8430 N.3   104  VAL104     -0.1245
     35  CA       -16.1850   19.9190  -18.4810 C.3   104  VAL104      0.1561
     36  C        -17.2530   18.8410  -18.6140 C.2   104  VAL104      0.2260
     37  O        -16.9610   17.6610  -18.8550 O.2   104  VAL104     -0.2867
     38  CB       -15.8380   20.5590  -19.8360 C.3   104  VAL104      0.0252
     39  CG1      -15.4520   19.5000  -20.8750 C.3   104  VAL104      0.0019
     40  CG2      -17.0000   21.4080  -20.3290 C.3   104  VAL104      0.0019
     41  N        -21.2750   20.8400  -24.8260 N.3   120  MET120     -0.1230
     42  CA       -20.7750   20.8720  -23.4620 C.3   120  MET120      0.1702
     43  C        -21.2600   22.1260  -22.7560 C.2   120  MET120      0.2592
     44  O        -21.7590   23.0690  -23.3720 O.2   120  MET120     -0.2718
     45  CB       -19.2480   20.9080  -23.4580 C.3   120  MET120      0.0401
     46  CG       -18.6000   19.7020  -24.0470 C.3   120  MET120      0.0596
     47  SD       -16.9410   20.1710  -24.5010 S.3   120  MET120     -0.1393
     48  CE       -17.2020   20.8290  -26.1480 C.3   120  MET120      0.0692
     49  N        -21.0700   22.1360  -21.4410 N.am  121  GLU121     -0.1966
     50  CA       -21.3130   23.3480  -20.6710 C.3   121  GLU121      0.1733
     51  C        -20.4260   24.4740  -21.1940 C.2   121  GLU121      0.2616
     52  O        -19.2490   24.2690  -21.5050 O.2   121  GLU121     -0.2715
     53  CB       -21.0070   23.0990  -19.1880 C.3   121  GLU121      0.0429
     54  CG       -21.2650   24.3110  -18.2860 C.3   121  GLU121      0.1163
     55  CD       -20.9830   24.0490  -16.8130 C.2   121  GLU121      0.3649
     56  OE1      -21.1570   22.9010  -16.3520 O.co2 121  GLU121     -0.2457
     57  OE2      -20.5890   25.0040  -16.1090 O.co2 121  GLU121     -0.2457
     58  N        -21.0070   25.6660  -21.3090 N.am  122  TYR122     -0.1960
     59  CA       -20.2490   26.8460  -21.6950 C.3   122  TYR122      0.1771
     60  C        -19.5430   27.4170  -20.4690 C.2   122  TYR122      0.2619
     61  O        -20.1750   27.6720  -19.4380 O.2   122  TYR122     -0.2715
     62  CB       -21.1780   27.8860  -22.3270 C.3   122  TYR122      0.0574
     63  CG       -20.4990   29.1920  -22.6830 C.ar  122  TYR122     -0.0198
     64  CD1      -19.3040   29.2020  -23.3890 C.ar  122  TYR122     -0.0009
     65  CD2      -21.0620   30.4140  -22.3310 C.ar  122  TYR122     -0.0009
     66  CE1      -18.6780   30.3850  -23.7200 C.ar  122  TYR122      0.0417
     67  CE2      -20.4410   31.6060  -22.6570 C.ar  122  TYR122      0.0417
     68  CZ       -19.2450   31.5840  -23.3530 C.ar  122  TYR122      0.1957
     69  OH       -18.6050   32.7590  -23.6890 O.3   122  TYR122     -0.2866
     70  N        -18.2290   27.5920  -20.5820 N.am  123  VAL123     -0.1977
     71  CA       -17.4040   28.1280  -19.5020 C.3   123  VAL123      0.1596
     72  C        -16.9650   29.5230  -19.9330 C.2   123  VAL123      0.2287
     73  O        -16.0400   29.6550  -20.7470 O.2   123  VAL123     -0.2864
     74  CB       -16.1980   27.2220  -19.2140 C.3   123  VAL123      0.0276
     75  CG1      -15.4520   27.7170  -17.9840 C.3   123  VAL123      0.0022
     76  CG2      -16.6430   25.7730  -19.0390 C.3   123  VAL123      0.0022
     77  N        -10.0050   30.9750  -21.9310 N.3   127  GLU127     -0.1245
     78  CA        -8.8830   30.0620  -21.7690 C.3   127  GLU127      0.1567
     79  C         -7.8380   30.6460  -20.8280 C.2   127  GLU127      0.2260
     80  O         -7.5110   31.8390  -20.8940 O.2   127  GLU127     -0.2867
     81  CB        -8.2080   29.8250  -23.1180 C.3   127  GLU127      0.0388
     82  CG        -9.0910   29.1780  -24.1690 C.3   127  GLU127      0.1160
     83  CD        -8.4400   29.0940  -25.5420 C.2   127  GLU127      0.3649
     84  OE1       -7.2990   29.5830  -25.7010 O.co2 127  GLU127     -0.2457
     85  OE2       -9.0750   28.5360  -26.4680 O.co2 127  GLU127     -0.2457
     86  N         -4.1620   26.2620  -23.3770 N.3   169  GLU169     -0.1231
     87  CA        -5.2330   26.3980  -24.3650 C.3   169  GLU169      0.1699
     88  C         -6.4470   25.5430  -24.0240 C.2   169  GLU169      0.2592
     89  O         -7.5620   25.8420  -24.4710 O.2   169  GLU169     -0.2718
     90  CB        -4.7310   25.9850  -25.7550 C.3   169  GLU169      0.0402
     91  CG        -3.6800   26.8940  -26.4030 C.3   169  GLU169      0.1161
     92  CD        -2.2310   26.5430  -26.0590 C.2   169  GLU169      0.3649
     93  OE1       -1.9210   26.1830  -24.8970 O.co2 169  GLU169     -0.2457
     94  OE2       -1.3870   26.6450  -26.9760 O.co2 169  GLU169     -0.2457
     95  N         -6.2460   24.4560  -23.2880 N.am  170  ASN170     -0.1974
     96  CA        -7.2840   23.4840  -22.9800 C.3   170  ASN170      0.1688
     97  C         -7.8700   23.6470  -21.5820 C.2   170  ASN170      0.2292
     98  O         -8.6540   22.7970  -21.1460 O.2   170  ASN170     -0.2864
     99  CB        -6.7250   22.0710  -23.1290 C.3   170  ASN170      0.1181
    100  CG        -6.6210   21.6390  -24.5750 C.2   170  ASN170      0.2629
    101  OD1       -7.1290   22.3120  -25.4790 O.2   170  ASN170     -0.2716
    102  ND2       -6.0050   20.4910  -24.8010 N.am  170  ASN170     -0.0877
    103  N        -10.1010   26.0800  -19.2390 N.3   172  LEU172     -0.1245
    104  CA       -11.0010   27.2190  -19.1750 C.3   172  LEU172      0.1561
    105  C        -11.1840   27.6480  -17.7270 C.2   172  LEU172      0.2260
    106  O        -11.1130   26.8340  -16.8090 O.2   172  LEU172     -0.2867
    107  CB       -12.3590   26.8600  -19.7790 C.3   172  LEU172      0.0270
    108  CG       -12.3230   26.3880  -21.2280 C.3   172  LEU172      0.0019
    109  CD1      -13.7240   26.1380  -21.7240 C.3   172  LEU172      0.0001
    110  CD2      -11.6170   27.3910  -22.1130 C.3   172  LEU172      0.0001
    111  N        -11.0150   20.9810  -20.8010 N.3   182  THR182     -0.1203
    112  CA       -11.7760   20.6040  -21.9700 C.3   182  THR182      0.1994
    113  C        -10.8550   19.9610  -22.9910 C.2   182  THR182      0.2617
    114  O         -9.6290   19.9120  -22.8360 O.2   182  THR182     -0.2717
    115  CB       -12.5020   21.7950  -22.6000 C.3   182  THR182      0.1784
    116  OG1      -13.2990   21.3130  -23.6850 O.3   182  THR182     -0.2211
    117  CG2      -11.5140   22.8380  -23.1190 C.3   182  THR182      0.0376
    118  N        -11.4820   19.4780  -24.0500 N.am  183  ASP183     -0.1973
    119  CA       -10.7850   18.7660  -25.1020 C.3   183  ASP183      0.1709
    120  C        -10.2250   17.4730  -24.5360 C.2   183  ASP183      0.2293
    121  O         -9.2140   17.4640  -23.8250 O.2   183  ASP183     -0.2864
    122  CB        -9.7010   19.6300  -25.7370 C.3   183  ASP183      0.1436
    123  CG        -9.2570   19.0960  -27.0810 C.2   183  ASP183      0.3671
    124  OD1       -9.6100   17.9430  -27.4070 O.co2 183  ASP183     -0.2456
    125  OD2       -8.5550   19.8280  -27.8080 O.co2 183  ASP183     -0.2456
    126  N        -13.1190   35.6530  -24.8090 N.3   325  PHE325     -0.1241
    127  CA       -12.5670   34.8320  -25.8720 C.3   325  PHE325      0.1605
    128  C        -12.1000   35.7060  -27.0280 C.2   325  PHE325      0.2264
    129  O        -12.6380   36.7920  -27.2720 O.2   325  PHE325     -0.2867
    130  CB       -13.5980   33.8290  -26.3850 C.3   325  PHE325      0.0534
    131  CG       -13.9310   32.7540  -25.3970 C.ar  325  PHE325     -0.0203
    132  CD1      -13.2360   31.5570  -25.4010 C.ar  325  PHE325     -0.0042
    133  CD2      -14.9250   32.9440  -24.4550 C.ar  325  PHE325     -0.0042
    134  CE1      -13.5390   30.5590  -24.4910 C.ar  325  PHE325     -0.0003
    135  CE2      -15.2310   31.9540  -23.5440 C.ar  325  PHE325     -0.0003
    136  CZ       -14.5310   30.7600  -23.5580 C.ar  325  PHE325     -0.0000
@<TRIPOS>BOND
     1    12    11    2
     2    11    10    1
     3    13    14    1
     4    27    28    2
     5    27    26    1
     6    16    15    2
     7    15    14    1
     8    14    17    1
     9    10     9    1
    10     1     2    1
    11     9     3   am
    12    26    29    1
    13    26    25    1
    14    30    29    1
    15    30    31    1
    16    32    31    1
    17    32    33    1
    18     3     2    1
    19     3     4    2
    20    17    19    1
    21    17    18    1
    22     2     5    1
    23     5     6    1
    24     6     8    1
    25     6     7    1
    26   125   123   ar
    27   124   123   ar
    28   129   128    2
    29   123   122    1
    30    22    23    2
    31    22    21    1
    32   128   127    1
    33    94    92   ar
    34    85    83   ar
    35    91    92    1
    36    91    90    1
    37   130   127    1
    38   130   131    1
    39    21    24    1
    40    21    20    1
    41    48    47    1
    42    92    93   ar
    43   127   126    1
    44    90    87    1
    45   122   119    1
    46    84    83   ar
    47    83    82    1
    48   101   100    2
    49   132   131   ar
    50   132   134   ar
    51   131   133   ar
    52   119   120    1
    53   119   118    1
    54    41    42    1
    55   102   100   am
    56   100    99    1
    57   120   121    2
    58    47    46    1
    59   134   136   ar
    60    89    88    2
    61   133   135   ar
    62    87    88    1
    63    87    86    1
    64    82    81    1
    65   118   113   am
    66    46    45    1
    67    88    95   am
    68    66    64   ar
    69    66    68   ar
    70    69    68    1
    71   116   115    1
    72   136   135   ar
    73    42    45    1
    74    42    43    1
    75    64    63   ar
    76    44    43    2
    77    68    67   ar
    78    95    96    1
    79    99    96    1
    80   117   115    1
    81    81    78    1
    82   113   114    2
    83   113   112    1
    84    96    97    1
    85    43    49   am
    86    63    65   ar
    87    63    62    1
    88    67    65   ar
    89   115   112    1
    90    62    59    1
    91   110   108    1
    92   112   111    1
    93    77    78    1
    94    78    79    1
    95   109   108    1
    96    59    58    1
    97    59    60    1
    98    97    98    2
    99    52    51    2
   100    49    50    1
   101    58    51   am
   102   108   107    1
   103    51    50    1
   104    80    79    2
   105    39    38    1
   106    73    72    2
   107    50    53    1
   108    70    60   am
   109    70    71    1
   110    60    61    2
   111    40    38    1
   112    72    71    1
   113    38    35    1
   114   107   104    1
   115    71    74    1
   116   103   104    1
   117    74    76    1
   118    74    75    1
   119    53    54    1
   120   104   105    1
   121    37    36    2
   122    36    35    1
   123    35    34    1
   124    54    55    1
   125   105   106    2
   126    55    56   ar
   127    55    57   ar
