@<TRIPOS>MOLECULE
tmp/5n1oA02.pdb
 136 127 0 0 0
SMALL
GASTEIGER

@<TRIPOS>ATOM
      1  N        -15.7920   30.2010  -30.4720 N.3    38  LEU38      -0.1231
      2  CA       -14.9830   30.3660  -29.2500 C.3    38  LEU38       0.1693
      3  C        -13.5500   29.8680  -29.4110 C.2    38  LEU38       0.2592
      4  O        -12.6600   30.2520  -28.6220 O.2    38  LEU38      -0.2718
      5  CB       -15.6470   29.6230  -28.0790 C.3    38  LEU38       0.0284
      6  CG       -17.0210   30.0730  -27.6220 C.3    38  LEU38       0.0019
      7  CD1      -17.5810   29.0690  -26.6180 C.3    38  LEU38       0.0001
      8  CD2      -16.9510   31.4320  -26.9970 C.3    38  LEU38       0.0001
      9  N        -13.2890   29.0640  -30.4250 N.am   39  GLY39      -0.1957
     10  CA       -11.9720   28.5090  -30.6310 C.3    39  GLY39       0.1869
     11  C        -12.0250   27.6430  -31.8630 C.2    39  GLY39       0.2309
     12  O        -13.1070   27.2120  -32.2890 O.2    39  GLY39      -0.2863
     13  N        -15.1570   25.2360  -31.9740 N.3    46  VAL46      -0.1245
     14  CA       -16.0330   25.2230  -30.8180 C.3    46  VAL46       0.1561
     15  C        -16.8290   26.5180  -30.8610 C.2    46  VAL46       0.2260
     16  O        -16.2570   27.6140  -30.9450 O.2    46  VAL46      -0.2867
     17  CB       -15.2590   25.0940  -29.4890 C.3    46  VAL46       0.0252
     18  CG1      -16.2440   25.0840  -28.3820 C.3    46  VAL46       0.0019
     19  CG2      -14.4720   23.8320  -29.4730 C.3    46  VAL46       0.0019
     20  N        -21.2200   25.1360  -25.0660 N.3    59  ALA59      -0.1245
     21  CA       -20.1100   25.1190  -26.0070 C.3    59  ALA59       0.1562
     22  C        -20.2630   23.8730  -26.8760 C.2    59  ALA59       0.2260
     23  O        -20.2860   22.7490  -26.3510 O.2    59  ALA59      -0.2867
     24  CB       -18.7530   25.1200  -25.2920 C.3    59  ALA59       0.0290
     25  N        -18.6750   21.6040  -29.7810 N.3    61  LYS61      -0.1245
     26  CA       -17.5270   21.2570  -30.6190 C.3    61  LYS61       0.1561
     27  C        -18.0520   20.5450  -31.8710 C.2    61  LYS61       0.2260
     28  O        -18.8560   19.6130  -31.7650 O.2    61  LYS61      -0.2867
     29  CB       -16.5300   20.3830  -29.8450 C.3    61  LYS61       0.0271
     30  CG       -15.2910   20.0410  -30.6070 C.3    61  LYS61       0.0035
     31  CD       -14.3420   19.2210  -29.7280 C.3    61  LYS61       0.0206
     32  CE       -13.0820   18.9450  -30.4880 C.3    61  LYS61       0.1093
     33  NZ       -12.0560   18.3930  -29.5130 N.3    61  LYS61      -0.1314
     34  N        -14.8230   19.2450  -17.7200 N.3    93  VAL93      -0.1245
     35  CA       -15.9980   19.8040  -18.3690 C.3    93  VAL93       0.1561
     36  C        -17.0690   18.7300  -18.5130 C.2    93  VAL93       0.2260
     37  O        -16.7810   17.5490  -18.7080 O.2    93  VAL93      -0.2867
     38  CB       -15.6370   20.3830  -19.7460 C.3    93  VAL93       0.0252
     39  CG1      -15.2020   19.2690  -20.6550 C.3    93  VAL93       0.0019
     40  CG2      -16.8280   21.1220  -20.2960 C.3    93  VAL93       0.0019
     41  N        -21.1340   20.6600  -24.6960 N.3   109  MET109     -0.1230
     42  CA       -20.6270   20.7290  -23.3320 C.3   109  MET109      0.1702
     43  C        -21.1750   21.9610  -22.6110 C.2   109  MET109      0.2592
     44  O        -21.6430   22.9070  -23.2380 O.2   109  MET109     -0.2718
     45  CB       -19.0920   20.8240  -23.3480 C.3   109  MET109      0.0401
     46  CG       -18.3500   19.6360  -23.9850 C.3   109  MET109      0.0596
     47  SD       -16.7120   20.3140  -24.3000 S.3   109  MET109     -0.1393
     48  CE       -17.0210   20.9710  -25.9670 C.3   109  MET109      0.0692
     49  N        -21.0910   21.9510  -21.2820 N.am  110  GLU110     -0.1966
     50  CA       -21.3900   23.1630  -20.5280 C.3   110  GLU110      0.1733
     51  C        -20.4690   24.2800  -21.0080 C.2   110  GLU110      0.2616
     52  O        -19.3250   24.0330  -21.3960 O.2   110  GLU110     -0.2715
     53  CB       -21.2080   22.9260  -19.0170 C.3   110  GLU110      0.0429
     54  CG       -21.2260   24.2200  -18.1670 C.3   110  GLU110      0.1163
     55  CD       -21.1650   23.9550  -16.6510 C.2   110  GLU110      0.3649
     56  OE1      -21.4190   22.8030  -16.2360 O.co2 110  GLU110     -0.2457
     57  OE2      -20.8590   24.9090  -15.8930 O.co2 110  GLU110     -0.2457
     58  N        -20.9900   25.4950  -21.0590 N.am  111  TYR111     -0.1960
     59  CA       -20.1930   26.6580  -21.4470 C.3   111  TYR111      0.1771
     60  C        -19.4750   27.2200  -20.2210 C.2   111  TYR111      0.2619
     61  O        -20.0830   27.3980  -19.1500 O.2   111  TYR111     -0.2715
     62  CB       -21.0920   27.7130  -22.0970 C.3   111  TYR111      0.0574
     63  CG       -20.4190   29.0100  -22.4310 C.ar  111  TYR111     -0.0198
     64  CD1      -19.2580   29.0370  -23.1900 C.ar  111  TYR111     -0.0009
     65  CD2      -20.9570   30.2060  -22.0260 C.ar  111  TYR111     -0.0009
     66  CE1      -18.6390   30.2310  -23.5220 C.ar  111  TYR111      0.0417
     67  CE2      -20.3380   31.4110  -22.3340 C.ar  111  TYR111      0.0417
     68  CZ       -19.1680   31.4200  -23.0780 C.ar  111  TYR111      0.1957
     69  OH       -18.5470   32.6360  -23.3970 O.3   111  TYR111     -0.2866
     70  N        -18.1780   27.4440  -20.3650 N.am  112  VAL112     -0.1977
     71  CA       -17.3140   27.9120  -19.2830 C.3   112  VAL112      0.1596
     72  C        -16.8960   29.3240  -19.6650 C.2   112  VAL112      0.2287
     73  O        -16.0390   29.4940  -20.5560 O.2   112  VAL112     -0.2864
     74  CB       -16.1100   26.9890  -19.0570 C.3   112  VAL112      0.0276
     75  CG1      -15.2660   27.5210  -17.8840 C.3   112  VAL112      0.0022
     76  CG2      -16.5710   25.5440  -18.7810 C.3   112  VAL112      0.0022
     77  N         -9.9980   30.9510  -21.6260 N.3   116  GLU116     -0.1245
     78  CA        -8.8470   30.0490  -21.5180 C.3   116  GLU116      0.1567
     79  C         -7.8030   30.6110  -20.5860 C.2   116  GLU116      0.2260
     80  O         -7.4960   31.8110  -20.6050 O.2   116  GLU116     -0.2867
     81  CB        -8.1790   29.8370  -22.8940 C.3   116  GLU116      0.0388
     82  CG        -9.0780   29.2590  -23.9040 C.3   116  GLU116      0.1160
     83  CD        -8.4210   29.1860  -25.3170 C.2   116  GLU116      0.3649
     84  OE1       -7.2500   29.6180  -25.4180 O.co2 116  GLU116     -0.2457
     85  OE2       -9.0510   28.6330  -26.2650 O.co2 116  GLU116     -0.2457
     86  N         -4.1120   26.3550  -23.2170 N.3   158  GLU158     -0.1231
     87  CA        -5.1910   26.4910  -24.1960 C.3   158  GLU158      0.1699
     88  C         -6.4140   25.6430  -23.8110 C.2   158  GLU158      0.2592
     89  O         -7.5450   25.9230  -24.2650 O.2   158  GLU158     -0.2718
     90  CB        -4.6910   26.0850  -25.5760 C.3   158  GLU158      0.0402
     91  CG        -3.6480   27.0220  -26.1860 C.3   158  GLU158      0.1161
     92  CD        -2.1810   26.6730  -25.8580 C.2   158  GLU158      0.3649
     93  OE1       -1.9040   26.2530  -24.6850 O.co2 158  GLU158     -0.2457
     94  OE2       -1.3260   26.8280  -26.7850 O.co2 158  GLU158     -0.2457
     95  N         -6.1900   24.5490  -23.0980 N.am  159  ASN159     -0.1974
     96  CA        -7.2230   23.5590  -22.8010 C.3   159  ASN159      0.1688
     97  C         -7.8030   23.6850  -21.4080 C.2   159  ASN159      0.2292
     98  O         -8.5600   22.7990  -20.9790 O.2   159  ASN159     -0.2864
     99  CB        -6.6550   22.1490  -22.9920 C.3   159  ASN159      0.1181
    100  CG        -6.5450   21.7440  -24.4640 C.2   159  ASN159      0.2629
    101  OD1       -7.0770   22.4320  -25.3600 O.2   159  ASN159     -0.2716
    102  ND2       -5.9350   20.5660  -24.7300 N.am  159  ASN159     -0.0877
    103  N         -9.9950   26.0190  -19.0100 N.3   161  LEU161     -0.1245
    104  CA       -10.9310   27.1280  -18.9620 C.3   161  LEU161      0.1561
    105  C        -11.1750   27.5230  -17.5040 C.2   161  LEU161      0.2260
    106  O        -11.0480   26.7070  -16.5870 O.2   161  LEU161     -0.2867
    107  CB       -12.2210   26.7840  -19.7010 C.3   161  LEU161      0.0270
    108  CG       -11.9820   27.1520  -21.2110 C.3   161  LEU161      0.0019
    109  CD1      -11.1990   26.0640  -21.8610 C.3   161  LEU161      0.0001
    110  CD2      -13.2060   27.4980  -21.9700 C.3   161  LEU161      0.0001
    111  N        -10.8020   20.8350  -20.6780 N.3   171  THR171     -0.1203
    112  CA       -11.5640   20.5380  -21.8710 C.3   171  THR171      0.1994
    113  C        -10.6360   19.9390  -22.9240 C.2   171  THR171      0.2617
    114  O         -9.4100   19.8530  -22.7570 O.2   171  THR171     -0.2717
    115  CB       -12.2640   21.7940  -22.3880 C.3   171  THR171      0.1784
    116  OG1      -13.2400   21.4220  -23.3660 O.3   171  THR171     -0.2211
    117  CG2      -11.2540   22.7890  -23.0000 C.3   171  THR171      0.0376
    118  N        -11.2550   19.4880  -23.9930 N.am  172  ASP172     -0.1973
    119  CA       -10.5990   18.8440  -25.0860 C.3   172  ASP172      0.1709
    120  C         -9.9780   17.5350  -24.6490 C.2   172  ASP172      0.2293
    121  O         -8.7620   17.4430  -24.3540 O.2   172  ASP172     -0.2864
    122  CB        -9.5540   19.7300  -25.6990 C.3   172  ASP172      0.1436
    123  CG        -9.2950   19.3380  -27.1380 C.2   172  ASP172      0.3671
    124  OD1       -9.6450   18.1500  -27.5060 O.co2 172  ASP172     -0.2456
    125  OD2       -8.7370   20.2220  -27.8520 O.co2 172  ASP172     -0.2456
    126  N        -13.1860   35.6480  -24.3480 N.3   314  PHE314     -0.1241
    127  CA       -12.6300   34.9070  -25.4610 C.3   314  PHE314      0.1605
    128  C        -12.1580   35.8380  -26.5690 C.2   314  PHE314      0.2264
    129  O        -12.7180   36.9250  -26.7800 O.2   314  PHE314     -0.2867
    130  CB       -13.6540   33.9120  -26.0260 C.3   314  PHE314      0.0534
    131  CG       -13.9790   32.7680  -25.0490 C.ar  314  PHE314     -0.0203
    132  CD1      -13.2930   31.5600  -25.1160 C.ar  314  PHE314     -0.0042
    133  CD2      -14.9550   32.9250  -24.0870 C.ar  314  PHE314     -0.0042
    134  CE1      -13.5430   30.5000  -24.1730 C.ar  314  PHE314     -0.0003
    135  CE2      -15.2460   31.9010  -23.1520 C.ar  314  PHE314     -0.0003
    136  CZ       -14.5500   30.6800  -23.2020 C.ar  314  PHE314     -0.0000
@<TRIPOS>BOND
     1    12    11    2
     2    13    14    1
     3    27    28    2
     4    27    26    1
     5    11    10    1
     6    16    15    2
     7    15    14    1
     8    14    17    1
     9    10     9    1
    10    26    29    1
    11    26    25    1
    12    30    29    1
    13    30    31    1
    14    32    31    1
    15    32    33    1
    16     1     2    1
    17     9     3   am
    18    17    19    1
    19    17    18    1
    20     3     2    1
    21     3     4    2
    22     2     5    1
    23     5     6    1
    24   125   123   ar
    25     6     8    1
    26     6     7    1
    27   124   123   ar
    28   123   122    1
    29    22    23    2
    30    22    21    1
    31    94    92   ar
    32   129   128    2
    33   128   127    1
    34    85    83   ar
    35    91    92    1
    36    91    90    1
    37   130   127    1
    38   130   131    1
    39    21    24    1
    40    21    20    1
    41    48    47    1
    42    92    93   ar
    43   122   119    1
    44    90    87    1
    45   127   126    1
    46    84    83   ar
    47   101   100    2
    48    83    82    1
    49   132   131   ar
    50   132   134   ar
    51   119   120    1
    52   119   118    1
    53   131   133   ar
    54   102   100   am
    55    41    42    1
    56   120   121    2
    57   100    99    1
    58    47    46    1
    59    89    88    2
    60    87    88    1
    61    87    86    1
    62   134   136   ar
    63   133   135   ar
    64   118   113   am
    65    46    45    1
    66    82    81    1
    67    88    95   am
    68    66    64   ar
    69    66    68   ar
    70    69    68    1
    71   116   115    1
    72    45    42    1
    73    42    43    1
    74    44    43    2
    75   136   135   ar
    76    64    63   ar
    77    95    96    1
    78    68    67   ar
    79   117   115    1
    80    99    96    1
    81   113   114    2
    82   113   112    1
    83    81    78    1
    84    96    97    1
    85    43    49   am
    86    63    62    1
    87    63    65   ar
    88   115   112    1
    89    67    65   ar
    90    62    59    1
    91   110   108    1
    92   112   111    1
    93   109   108    1
    94    77    78    1
    95    78    79    1
    96    59    58    1
    97    59    60    1
    98    97    98    2
    99    52    51    2
   100    49    50    1
   101   108   107    1
   102    58    51   am
   103    51    50    1
   104    39    38    1
   105    80    79    2
   106    73    72    2
   107    50    53    1
   108    70    60   am
   109    70    71    1
   110    40    38    1
   111    60    61    2
   112    38    35    1
   113   107   104    1
   114    72    71    1
   115    71    74    1
   116    74    76    1
   117    74    75    1
   118    53    54    1
   119   103   104    1
   120   104   105    1
   121    37    36    2
   122    36    35    1
   123    35    34    1
   124    54    55    1
   125   105   106    2
   126    55    56   ar
   127    55    57   ar
