@<TRIPOS>MOLECULE
tmp/5n1pA00.pdb
 116 117 0 0 0
SMALL
GASTEIGER

@<TRIPOS>ATOM
      1  N        -32.1400   12.3470   58.0370 N.3     9  ASP9       -0.1225
      2  CA       -32.3930   13.6470   57.4130 C.3     9  ASP9        0.1805
      3  C        -33.5160   14.4410   58.0810 C.2     9  ASP9        0.2597
      4  O        -34.4380   13.8620   58.6650 O.2     9  ASP9       -0.2718
      5  CB       -32.8030   13.4730   55.9440 C.3     9  ASP9        0.1424
      6  CG       -31.6610   13.0600   55.0330 C.2     9  ASP9        0.3668
      7  OD1      -30.5350   12.8670   55.5140 O.co2   9  ASP9       -0.2456
      8  OD2      -31.9200   12.9170   53.8030 O.co2   9  ASP9       -0.2456
      9  N        -33.4250   15.7650   57.9390 N.am   10  ASP10      -0.1974
     10  CA       -34.5130   16.7420   58.1220 C.3    10  ASP10       0.1709
     11  C        -34.6140   17.2670   59.5540 C.2    10  ASP10       0.2293
     12  O        -35.4610   18.1170   59.8350 O.2    10  ASP10      -0.2864
     13  CB       -35.8990   16.2090   57.7020 C.3    10  ASP10       0.1436
     14  CG       -35.9940   15.8210   56.2200 C.2    10  ASP10       0.3671
     15  OD1      -35.1140   16.1690   55.4110 O.co2  10  ASP10      -0.2456
     16  OD2      -36.9980   15.1710   55.8500 O.co2  10  ASP10      -0.2456
     17  N        -28.2490   19.7080   55.2870 N.3    59  HIS59      -0.1241
     18  CA       -29.3700   19.2850   54.4240 C.3    59  HIS59       0.1621
     19  C        -30.1390   20.4900   53.8720 C.2    59  HIS59       0.2264
     20  O        -31.2830   20.3430   53.4620 O.2    59  HIS59      -0.2867
     21  CB       -30.3210   18.3670   55.1950 C.3    59  HIS59       0.0745
     22  CG       -31.2760   17.5840   54.3350 C.ar   59  HIS59       0.0817
     23  ND1      -30.9020   16.9730   53.1560 N.ar   59  HIS59      -0.2268
     24  CD2      -32.5780   17.2620   54.5300 C.ar   59  HIS59       0.1154
     25  CE1      -31.9390   16.3200   52.6540 C.ar   59  HIS59       0.1986
     26  NE2      -32.9710   16.4830   53.4640 N.ar   59  HIS59      -0.2212
     27  N        -34.9000   23.4750   51.8820 N.3    63  HIS63      -0.1241
     28  CA       -35.3570   22.1820   51.3700 C.3    63  HIS63       0.1621
     29  C        -36.2950   22.3840   50.1740 C.2    63  HIS63       0.2264
     30  O        -37.2410   21.6170   49.9700 O.2    63  HIS63      -0.2867
     31  CB       -36.0530   21.3780   52.4800 C.3    63  HIS63       0.0745
     32  CG       -36.0200   19.8920   52.2790 C.ar   63  HIS63       0.0817
     33  ND1      -36.8080   19.2430   51.3530 N.ar   63  HIS63      -0.2268
     34  CD2      -35.3200   18.9240   52.9200 C.ar   63  HIS63       0.1154
     35  CE1      -36.5800   17.9430   51.4150 C.ar   63  HIS63       0.1986
     36  NE2      -35.6860   17.7220   52.3630 N.ar   63  HIS63      -0.2212
     37  N        -28.2110   16.0750   49.5150 N.3    98  PRO98      -0.2103
     38  CA       -29.1530   16.9030   48.7470 C.3    98  PRO98       0.1489
     39  C        -30.6040   16.5820   49.0610 C.2    98  PRO98       0.2418
     40  O        -31.0030   15.4200   49.0160 O.2    98  PRO98      -0.2734
     41  CB       -28.8610   16.5410   47.2760 C.3    98  PRO98       0.0282
     42  CG       -27.5590   15.8080   47.2910 C.3    98  PRO98       0.0208
     43  CD       -27.4200   15.1720   48.6580 C.3    98  PRO98       0.0893
     44  N        -31.4010   17.6110   49.3640 N.am   99  PRO99      -0.2718
     45  CA       -32.8360   17.3540   49.3860 C.3    99  PRO99       0.1535
     46  C        -33.2940   16.7530   48.0490 C.2    99  PRO99       0.2598
     47  O        -32.8960   17.2350   46.9920 O.2    99  PRO99      -0.2715
     48  CB       -33.4260   18.7410   49.6120 C.3    99  PRO99       0.0310
     49  CG       -32.3780   19.4570   50.4150 C.3    99  PRO99       0.0237
     50  CD       -31.0660   18.9580   49.8570 C.3    99  PRO99       0.0939
     51  N        -34.1030   15.7000   48.1190 N.am  100  TYR100     -0.1974
     52  CA       -34.6260   14.9800   46.9490 C.3   100  TYR100      0.1639
     53  C        -33.5420   14.2070   46.1950 C.2   100  TYR100      0.2290
     54  O        -33.7970   13.6610   45.1130 O.2   100  TYR100     -0.2864
     55  CB       -35.3740   15.9330   45.9960 C.3   100  TYR100      0.0560
     56  CG       -36.3690   16.7770   46.7510 C.ar  100  TYR100     -0.0198
     57  CD1      -37.5540   16.2240   47.2460 C.ar  100  TYR100     -0.0009
     58  CD2      -36.1060   18.1060   47.0220 C.ar  100  TYR100     -0.0009
     59  CE1      -38.4520   16.9970   47.9710 C.ar  100  TYR100      0.0417
     60  CE2      -36.9920   18.8770   47.7460 C.ar  100  TYR100      0.0417
     61  CZ       -38.1590   18.3170   48.2200 C.ar  100  TYR100      0.1957
     62  OH       -39.0250   19.0990   48.9560 O.3   100  TYR100     -0.2866
     63  N        -27.5500    7.9600   48.8750 N.3   124  TRP124     -0.1241
     64  CA       -27.7160    6.7850   49.7250 C.3   124  TRP124      0.1605
     65  C        -27.7280    5.5380   48.8690 C.2   124  TRP124      0.2264
     66  O        -27.8220    5.6520   47.6500 O.2   124  TRP124     -0.2867
     67  CB       -29.0100    6.8920   50.5430 C.3   124  TRP124      0.0550
     68  CG       -30.2000    7.1760   49.6890 C.ar  124  TRP124      0.0003
     69  CD1      -31.0220    6.2520   49.0940 C.ar  124  TRP124      0.0946
     70  CD2      -30.7030    8.4630   49.3050 C.ar  124  TRP124      0.0152
     71  NE1      -32.0020    6.8850   48.3740 N.ar  124  TRP124     -0.2442
     72  CE2      -31.8280    8.2420   48.4800 C.ar  124  TRP124      0.0810
     73  CE3      -30.3040    9.7820   49.5720 C.ar  124  TRP124      0.0012
     74  CZ2      -32.5670    9.2870   47.9190 C.ar  124  TRP124      0.0191
     75  CZ3      -31.0330   10.8180   49.0140 C.ar  124  TRP124      0.0001
     76  CH2      -32.1580   10.5600   48.1990 C.ar  124  TRP124      0.0015
     77  N        -32.9220    3.0120   50.5300 N.3   127  ASP127     -0.1239
     78  CA       -34.0080    3.8980   50.9330 C.3   127  ASP127      0.1674
     79  C        -34.9780    3.1160   51.8200 C.2   127  ASP127      0.2266
     80  O        -35.5650    2.1280   51.3840 O.2   127  ASP127     -0.2867
     81  CB       -34.7000    4.4650   49.6930 C.3   127  ASP127      0.1410
     82  CG       -35.9050    5.3370   50.0130 C.2   127  ASP127      0.3668
     83  OD1      -36.1990    5.5990   51.1970 O.co2 127  ASP127     -0.2456
     84  OD2      -36.5590    5.7830   49.0430 O.co2 127  ASP127     -0.2456
     85  N        -41.2330    7.1710   54.7450 N.3   131  TRP131     -0.1241
     86  CA       -42.3340    8.0900   54.4560 C.3   131  TRP131      0.1605
     87  C        -43.6190    7.3830   54.0230 C.2   131  TRP131      0.2264
     88  O        -44.7100    7.9460   54.1320 O.2   131  TRP131     -0.2867
     89  CB       -41.9290    9.0860   53.3640 C.3   131  TRP131      0.0550
     90  CG       -41.6620    8.4460   52.0300 C.ar  131  TRP131      0.0003
     91  CD1      -40.4600    7.9680   51.5830 C.ar  131  TRP131      0.0946
     92  CD2      -42.5960    8.2470   50.9530 C.ar  131  TRP131      0.0152
     93  NE1      -40.5980    7.4600   50.3200 N.ar  131  TRP131     -0.2442
     94  CE2      -41.8920    7.6260   49.9050 C.ar  131  TRP131      0.0810
     95  CE3      -43.9600    8.5110   50.7860 C.ar  131  TRP131      0.0012
     96  CZ2      -42.5020    7.2780   48.6970 C.ar  131  TRP131      0.0191
     97  CZ3      -44.5670    8.1770   49.5780 C.ar  131  TRP131      0.0001
     98  CH2      -43.8340    7.5630   48.5490 C.ar  131  TRP131      0.0015
     99  N        -30.9490    5.6400   54.1220 N.3   161  LEU161     -0.1245
    100  CA       -31.7320    6.8670   54.2410 C.3   161  LEU161      0.1561
    101  C        -32.9170    6.6970   55.1780 C.2   161  LEU161      0.2260
    102  O        -33.8260    5.8960   54.9150 O.2   161  LEU161     -0.2867
    103  CB       -32.2440    7.3300   52.8670 C.3   161  LEU161      0.0270
    104  CG       -33.2240    8.5080   52.9100 C.3   161  LEU161      0.0019
    105  CD1      -32.5490    9.7980   53.4070 C.3   161  LEU161      0.0001
    106  CD2      -33.8900    8.7280   51.5500 C.3   161  LEU161      0.0001
    107  N        -35.2940    9.2490   58.3350 N.3   163  HIS163     -0.1241
    108  CA       -35.6490   10.6020   58.7460 C.3   163  HIS163      0.1621
    109  C        -36.0090   10.5890   60.2150 C.2   163  HIS163      0.2264
    110  O        -37.0020    9.9620   60.5950 O.2   163  HIS163     -0.2867
    111  CB       -36.8210   11.1400   57.9000 C.3   163  HIS163      0.0745
    112  CG       -36.5420   11.1660   56.4280 C.ar  163  HIS163      0.0817
    113  ND1      -36.6730   10.0550   55.6220 N.ar  163  HIS163     -0.2268
    114  CD2      -36.1230   12.1690   55.6180 C.ar  163  HIS163      0.1154
    115  CE1      -36.3560   10.3740   54.3790 C.ar  163  HIS163      0.1986
    116  NE2      -36.0140   11.6500   54.3510 N.ar  163  HIS163     -0.2212
@<TRIPOS>BOND
     1    54    53    2
     2    55    56    1
     3    55    52    1
     4    53    52    1
     5    56    58   ar
     6    56    57   ar
     7    52    51    1
     8    47    46    2
     9    58    60   ar
    10    57    59   ar
    11    41    42    1
    12    41    38    1
    13    42    43    1
    14    66    65    2
    15    60    61   ar
    16    74    76   ar
    17    74    72   ar
    18    59    61   ar
    19    46    51   am
    20    46    45    1
    21    76    75   ar
    22    61    62    1
    23    71    72   ar
    24    71    69   ar
    25    72    70   ar
    26    98    96   ar
    27    98    97   ar
    28    43    37    1
    29    96    94   ar
    30    38    39    1
    31    38    37    1
    32    65    64    1
    33    63    64    1
    34    75    73   ar
    35    40    39    2
    36    84    82   ar
    37    39    44   am
    38    69    68   ar
    39    70    73   ar
    40    70    68   ar
    41    44    45    1
    42    44    50    1
    43    45    48    1
    44    97    95   ar
    45    48    49    1
    46    68    67    1
    47    81    82    1
    48    81    78    1
    49    64    67    1
    50    50    49    1
    51    94    93   ar
    52    94    92   ar
    53    30    29    2
    54    82    83   ar
    55    29    28    1
    56    93    91   ar
    57    77    78    1
    58    95    92   ar
    59    78    79    1
    60    92    90   ar
    61    33    35   ar
    62    33    32   ar
    63    28    27    1
    64    28    31    1
    65    80    79    2
    66    35    36   ar
    67   106   104    1
    68    91    90   ar
    69    90    89    1
    70    32    31    1
    71    32    34   ar
    72    36    34   ar
    73    25    23   ar
    74    25    26   ar
    75   103   104    1
    76   103   100    1
    77   104   105    1
    78    23    22   ar
    79    89    86    1
    80    20    19    2
    81    26    24   ar
    82     8     6   ar
    83    19    18    1
    84    87    88    2
    85    87    86    1
    86    99   100    1
    87   100   101    1
    88    22    24   ar
    89    22    21    1
    90   116   115   ar
    91   116   114   ar
    92   115   113   ar
    93    18    21    1
    94    18    17    1
    95    86    85    1
    96   102   101    2
    97     6     7   ar
    98     6     5    1
    99    15    14   ar
   100   114   112   ar
   101   113   112   ar
   102    16    14   ar
   103     5     2    1
   104    14    13    1
   105   112   111    1
   106     2     1    1
   107     2     3    1
   108    13    10    1
   109   111   108    1
   110     9     3   am
   111     9    10    1
   112     3     4    2
   113    10    11    1
   114   107   108    1
   115   108   109    1
   116    11    12    2
   117   109   110    2
