@<TRIPOS>MOLECULE
tmp/5n1qA00.pdb
 95 91 0 0 0
SMALL
GASTEIGER

@<TRIPOS>ATOM
      1  N         26.8140    0.7770   28.9900 N.3   269  ARG269     -0.1245
      2  CA        26.0630    1.3460   30.1210 C.3   269  ARG269      0.1563
      3  C         25.6920    0.3280   31.1970 C.2   269  ARG269      0.2260
      4  O         25.6000    0.6810   32.3750 O.2   269  ARG269     -0.2867
      5  CB        24.8110    2.1180   29.6560 C.3   269  ARG269      0.0307
      6  CG        25.0580    3.6060   29.3350 C.3   269  ARG269      0.0489
      7  CD        25.4590    4.4500   30.5520 C.3   269  ARG269      0.2205
      8  NE        24.3590    4.6610   31.4990 N.pl3 269  ARG269     -0.0865
      9  CZ        24.4940    4.6840   32.8220 C.cat 269  ARG269      0.5346
     10  NH1       25.6840    4.4890   33.3790 N.pl3 269  ARG269      0.1354
     11  NH2       23.4390    4.8900   33.6000 N.pl3 269  ARG269      0.1354
     12  N         15.5940   -5.0230   37.2830 N.3   317  LEU317     -0.1245
     13  CA        15.1430   -3.6950   36.8330 C.3   317  LEU317      0.1561
     14  C         14.8280   -2.7340   37.9790 C.2   317  LEU317      0.2260
     15  O         15.1590   -1.5560   37.8810 O.2   317  LEU317     -0.2867
     16  CB        13.9710   -3.7900   35.8530 C.3   317  LEU317      0.0270
     17  CG        14.2800   -4.4510   34.5050 C.3   317  LEU317      0.0019
     18  CD1       13.0290   -4.6300   33.6990 C.3   317  LEU317      0.0001
     19  CD2       15.3640   -3.6840   33.7130 C.3   317  LEU317      0.0001
     20  N         19.1360   -1.7630   38.0420 N.3   321  MET321     -0.1230
     21  CA        18.9390   -0.7930   36.9610 C.3   321  MET321      0.1702
     22  C         18.1620    0.4600   37.3660 C.2   321  MET321      0.2593
     23  O         18.0040    1.3530   36.5360 O.2   321  MET321     -0.2718
     24  CB        18.2910   -1.4690   35.7340 C.3   321  MET321      0.0401
     25  CG        19.2000   -2.4780   35.0220 C.3   321  MET321      0.0596
     26  SD        20.8290   -1.8840   34.4950 S.3   321  MET321     -0.1393
     27  CE        20.3920   -0.5310   33.3820 C.3   321  MET321      0.0692
     28  N         17.6820    0.5450   38.6200 N.am  322  SER322     -0.1952
     29  CA        16.9390    1.7220   39.0850 C.3   322  SER322      0.1924
     30  C         17.0930    1.9100   40.5880 C.2   322  SER322      0.2314
     31  O         18.0510    2.5480   40.9950 O.2   322  SER322     -0.2863
     32  CB        15.4730    1.7200   38.6210 C.3   322  SER322      0.2116
     33  OG        14.6610    0.7100   39.2030 O.3   322  SER322     -0.2180
     34  N          9.7360   -2.0040   42.0470 N.3   327  PHE327     -0.1241
     35  CA         8.7110   -2.6190   41.2010 C.3   327  PHE327      0.1605
     36  C          8.0660   -3.9130   41.7310 C.2   327  PHE327      0.2264
     37  O          7.7940   -4.8250   40.9470 O.2   327  PHE327     -0.2867
     38  CB         9.3200   -2.8640   39.8000 C.3   327  PHE327      0.0534
     39  CG         9.9880   -1.6910   39.1220 C.ar  327  PHE327     -0.0203
     40  CD1        9.4060   -0.4260   39.1430 C.ar  327  PHE327     -0.0042
     41  CD2       11.1470   -1.8700   38.3670 C.ar  327  PHE327     -0.0042
     42  CE1       10.0050    0.6540   38.4800 C.ar  327  PHE327     -0.0003
     43  CE2       11.7390   -0.7910   37.6950 C.ar  327  PHE327     -0.0003
     44  CZ        11.1640    0.4640   37.7580 C.ar  327  PHE327     -0.0000
     45  N          4.5260   -4.6190   39.9840 N.3   330  TYR330     -0.1241
     46  CA         4.6570   -4.8690   38.5420 C.3   330  TYR330      0.1605
     47  C          4.9140   -6.3750   38.3600 C.2   330  TYR330      0.2264
     48  O          4.4790   -6.9690   37.3750 O.2   330  TYR330     -0.2867
     49  CB         5.8590   -4.1060   37.9430 C.3   330  TYR330      0.0534
     50  CG         5.5660   -2.7030   37.4720 C.ar  330  TYR330     -0.0201
     51  CD1        4.5080   -2.4400   36.6090 C.ar  330  TYR330     -0.0009
     52  CD2        6.3900   -1.6410   37.8350 C.ar  330  TYR330     -0.0009
     53  CE1        4.2570   -1.1490   36.1390 C.ar  330  TYR330      0.0417
     54  CE2        6.1640   -0.3510   37.3510 C.ar  330  TYR330      0.0417
     55  CZ         5.1010   -0.1120   36.4950 C.ar  330  TYR330      0.1957
     56  OH         4.8570    1.1590   36.0260 O.3   330  TYR330     -0.2866
     57  N          2.5800    1.9040   31.0970 N.3   439  PHE439     -0.1241
     58  CA         3.1780    3.1850   31.4700 C.3   439  PHE439      0.1605
     59  C          3.7330    3.8930   30.2010 C.2   439  PHE439      0.2264
     60  O          3.6800    3.3160   29.1060 O.2   439  PHE439     -0.2867
     61  CB         4.2300    2.9830   32.5820 C.3   439  PHE439      0.0534
     62  CG         5.5250    2.3490   32.1440 C.ar  439  PHE439     -0.0203
     63  CD1        5.6830    0.9710   32.1640 C.ar  439  PHE439     -0.0042
     64  CD2        6.5930    3.1310   31.7270 C.ar  439  PHE439     -0.0042
     65  CE1        6.8790    0.3840   31.7370 C.ar  439  PHE439     -0.0003
     66  CE2        7.7790    2.5440   31.2870 C.ar  439  PHE439     -0.0003
     67  CZ         7.9000    1.1740   31.2690 C.ar  439  PHE439     -0.0000
     68  N         16.2330   -4.3150   26.9950 N.3   474  ALA474     -0.1231
     69  CA        17.1860   -3.8360   27.9980 C.3   474  ALA474      0.1694
     70  C         16.6490   -2.8870   29.0900 C.2   474  ALA474      0.2592
     71  O         17.3070   -2.7660   30.1300 O.2   474  ALA474     -0.2718
     72  CB        18.3770   -3.1920   27.3080 C.3   474  ALA474      0.0304
     73  N         15.4730   -2.2590   28.9010 N.am  475  MET475     -0.1965
     74  CA        15.0190   -1.2350   29.8390 C.3   475  MET475      0.1736
     75  C         13.7490   -1.4370   30.6510 C.2   475  MET475      0.2616
     76  O         13.6540   -0.8350   31.7160 O.2   475  MET475     -0.2715
     77  CB        14.8000    0.1030   29.0690 C.3   475  MET475      0.0427
     78  CG        16.0280    0.6450   28.3400 C.3   475  MET475      0.0599
     79  SD        15.5480    1.4940   26.7870 S.3   475  MET475     -0.1393
     80  CE        15.3550    0.0740   25.6730 C.3   475  MET475      0.0692
     81  N         12.7370   -2.1440   30.1440 N.am  476  ASN476     -0.1958
     82  CA        11.4250   -2.0220   30.7720 C.3   476  ASN476      0.1819
     83  C         10.7910   -3.2210   31.4810 C.2   476  ASN476      0.2621
     84  O         10.9560   -4.3720   31.0930 O.2   476  ASN476     -0.2715
     85  CB        10.4410   -1.5040   29.7040 C.3   476  ASN476      0.1195
     86  CG        11.0120   -0.3480   28.8900 C.2   476  ASN476      0.2630
     87  OD1       11.2560   -0.4540   27.6790 O.2   476  ASN476     -0.2716
     88  ND2       11.2840    0.7750   29.5380 N.am  476  ASN476     -0.0877
     89  N         10.0120   -2.8940   32.5450 N.am  477  VAL477     -0.1977
     90  CA         9.2620   -3.8530   33.3710 C.3   477  VAL477      0.1596
     91  C          8.1350   -4.5130   32.5890 C.2   477  VAL477      0.2287
     92  O          7.7750   -4.0380   31.5150 O.2   477  VAL477     -0.2864
     93  CB         8.6990   -3.2240   34.6750 C.3   477  VAL477      0.0276
     94  CG1        9.8150   -2.8160   35.6010 C.3   477  VAL477      0.0022
     95  CG2        7.7480   -2.0480   34.3950 C.3   477  VAL477      0.0022
@<TRIPOS>BOND
     1    80    79    1
     2    79    78    1
     3    68    69    1
     4    72    69    1
     5    87    86    2
     6    69    70    1
     7    78    77    1
     8    86    88   am
     9    86    85    1
    10    73    70   am
    11    73    74    1
    12     1     2    1
    13    77    74    1
    14    70    71    2
    15    60    59    2
    16     6     5    1
    17     6     7    1
    18     5     2    1
    19    85    82    1
    20    74    75    1
    21     2     3    1
    22    81    75   am
    23    81    82    1
    24    59    58    1
    25     7     8    1
    26    75    76    2
    27    82    83    1
    28    84    83    2
    29    57    58    1
    30     3     4    2
    31    67    66   ar
    32    67    65   ar
    33    66    64   ar
    34    58    61    1
    35    83    89   am
    36     8     9    2
    37    92    91    2
    38    64    62   ar
    39    65    63   ar
    40    62    63   ar
    41    62    61    1
    42    89    90    1
    43    91    90    1
    44     9    10    1
    45     9    11    1
    46    90    93    1
    47    27    26    1
    48    18    17    1
    49    19    17    1
    50    95    93    1
    51    26    25    1
    52    17    16    1
    53    93    94    1
    54    25    24    1
    55    24    21    1
    56    16    13    1
    57    56    55    1
    58    53    55   ar
    59    53    51   ar
    60    55    54   ar
    61    23    22    2
    62    51    50   ar
    63    13    12    1
    64    13    14    1
    65    21    22    1
    66    21    20    1
    67    54    52   ar
    68    22    28   am
    69    48    47    2
    70    50    52   ar
    71    50    49    1
    72    43    44   ar
    73    43    41   ar
    74    44    42   ar
    75    15    14    2
    76    49    46    1
    77    47    46    1
    78    41    39   ar
    79    42    40   ar
    80    46    45    1
    81    28    29    1
    82    32    29    1
    83    32    33    1
    84    29    30    1
    85    39    40   ar
    86    39    38    1
    87    38    35    1
    88    30    31    2
    89    37    36    2
    90    35    36    1
    91    35    34    1
