@<TRIPOS>MOLECULE
tmp/5n1qA01.pdb
 122 116 0 0 0
SMALL
GASTEIGER

@<TRIPOS>ATOM
      1  N         38.3010  -26.8720   51.2000 N.3   139  SER139     -0.1217
      2  CA        38.9380  -25.7340   50.5360 C.3   139  SER139      0.1889
      3  C         37.9650  -24.6410   50.0360 C.2   139  SER139      0.2288
      4  O         38.2220  -23.4610   50.2810 O.2   139  SER139     -0.2866
      5  CB        39.8310  -26.2300   49.3980 C.3   139  SER139      0.2089
      6  OG        40.4400  -25.1720   48.6790 O.3   139  SER139     -0.2183
      7  N         38.9260  -23.1440   53.8530 N.3   143  GLY143     -0.1210
      8  CA        39.8670  -23.9060   54.6740 C.3   143  GLY143      0.1956
      9  C         41.1870  -24.0460   53.9320 C.2   143  GLY143      0.2612
     10  O         41.1880  -24.0950   52.7030 O.2   143  GLY143     -0.2717
     11  N         42.3220  -24.0990   54.6500 N.am  144  ALA144     -0.1965
     12  CA        43.6590  -24.2000   54.0330 C.3   144  ALA144      0.1728
     13  C         44.1360  -25.6510   53.8490 C.2   144  ALA144      0.2616
     14  O         43.8450  -26.4990   54.6950 O.2   144  ALA144     -0.2715
     15  CB        44.6670  -23.4160   54.8500 C.3   144  ALA144      0.0334
     16  N         44.8800  -25.9270   52.7490 N.am  145  VAL145     -0.1963
     17  CA        45.3490  -27.2830   52.4040 C.3   145  VAL145      0.1727
     18  C         46.8730  -27.4230   52.1060 C.2   145  VAL145      0.2616
     19  O         47.3630  -28.5540   52.1480 O.2   145  VAL145     -0.2715
     20  CB        44.5230  -27.9020   51.2380 C.3   145  VAL145      0.0290
     21  CG1       43.1130  -28.2720   51.6860 C.3   145  VAL145      0.0023
     22  CG2       44.4760  -26.9920   50.0050 C.3   145  VAL145      0.0023
     23  N         47.6180  -26.3270   51.8140 N.am  146  VAL146     -0.1963
     24  CA        49.0480  -26.4620   51.4490 C.3   146  VAL146      0.1727
     25  C         50.0280  -25.6770   52.3480 C.2   146  VAL146      0.2616
     26  O         51.0120  -26.2510   52.8250 O.2   146  VAL146     -0.2715
     27  CB        49.2710  -26.1110   49.9320 C.3   146  VAL146      0.0290
     28  CG1       50.7440  -25.8460   49.6010 C.3   146  VAL146      0.0023
     29  CG2       48.7180  -27.2010   49.0170 C.3   146  VAL146      0.0023
     30  N         49.8100  -24.3690   52.5150 N.am  147  GLN147     -0.1963
     31  CA        50.7570  -23.5060   53.2140 C.3   147  GLN147      0.1733
     32  C         50.6570  -23.5010   54.7310 C.2   147  GLN147      0.2616
     33  O         49.5700  -23.6370   55.2870 O.2   147  GLN147     -0.2715
     34  CB        50.6490  -22.0700   52.6860 C.3   147  GLN147      0.0408
     35  CG        51.1830  -21.8740   51.2700 C.3   147  GLN147      0.0908
     36  CD        51.2410  -20.4180   50.8860 C.2   147  GLN147      0.2608
     37  OE1       50.7760  -20.0240   49.8240 O.2   147  GLN147     -0.2717
     38  NE2       51.8490  -19.5790   51.7200 N.am  147  GLN147     -0.0878
     39  N         51.8040  -23.3290   55.3960 N.am  148  GLU148     -0.1963
     40  CA        51.8630  -23.1910   56.8440 C.3   148  GLU148      0.1733
     41  C         51.5150  -21.7300   57.1720 C.2   148  GLU148      0.2616
     42  O         51.7570  -20.8370   56.3500 O.2   148  GLU148     -0.2715
     43  CB        53.2690  -23.5820   57.3760 C.3   148  GLU148      0.0429
     44  CG        53.5600  -23.2580   58.8410 C.3   148  GLU148      0.1163
     45  CD        52.7270  -23.9620   59.8980 C.2   148  GLU148      0.3649
     46  OE1       51.5020  -23.7120   59.9740 O.co2 148  GLU148     -0.2457
     47  OE2       53.3220  -24.7000   60.7130 O.co2 148  GLU148     -0.2457
     48  N         50.9310  -21.4990   58.3650 N.am  149  HIS149     -0.1959
     49  CA        50.5440  -20.1870   58.9070 C.3   149  HIS149      0.1787
     50  C         49.4250  -19.5000   58.0960 C.2   149  HIS149      0.2620
     51  O         49.4070  -18.2700   57.9740 O.2   149  HIS149     -0.2715
     52  CB        51.7660  -19.2540   59.0990 C.3   149  HIS149      0.0785
     53  CG        51.6280  -18.3300   60.2660 C.ar  149  HIS149      0.0821
     54  ND1       50.8960  -17.1580   60.1760 N.ar  149  HIS149     -0.2267
     55  CD2       52.1220  -18.4430   61.5230 C.ar  149  HIS149      0.1154
     56  CE1       50.9720  -16.5960   61.3750 C.ar  149  HIS149      0.1986
     57  NE2       51.7060  -17.3290   62.2150 N.ar  149  HIS149     -0.2212
     58  N         48.4610  -20.2910   57.6030 N.am  150  MET150     -0.1963
     59  CA        47.3150  -19.7560   56.8640 C.3   150  MET150      0.1736
     60  C         46.1710  -19.4490   57.8150 C.2   150  MET150      0.2616
     61  O         45.9140  -20.2240   58.7360 O.2   150  MET150     -0.2715
     62  CB        46.8170  -20.7570   55.8090 C.3   150  MET150      0.0427
     63  CG        47.7540  -20.9670   54.6310 C.3   150  MET150      0.0599
     64  SD        48.0270  -19.5070   53.5830 S.3   150  MET150     -0.1393
     65  CE        49.5880  -18.8730   54.3040 C.3   150  MET150      0.0692
     66  N         45.4720  -18.3370   57.5720 N.am  151  VAL151     -0.1977
     67  CA        44.2600  -17.9730   58.3180 C.3   151  VAL151      0.1596
     68  C         43.0920  -18.6200   57.5630 C.2   151  VAL151      0.2287
     69  O         43.2750  -19.0140   56.4110 O.2   151  VAL151     -0.2864
     70  CB        44.0840  -16.4450   58.5520 C.3   151  VAL151      0.0276
     71  CG1       45.3070  -15.8440   59.2300 C.3   151  VAL151      0.0022
     72  CG2       43.7700  -15.7020   57.2590 C.3   151  VAL151      0.0022
     73  N         40.1310  -20.8590   41.9290 N.3   229  MET229     -0.1230
     74  CA        41.2500  -20.8540   42.8860 C.3   229  MET229      0.1702
     75  C         41.2500  -22.1240   43.7250 C.2   229  MET229      0.2592
     76  O         42.2880  -22.7780   43.8560 O.2   229  MET229     -0.2718
     77  CB        41.2160  -19.6280   43.8430 C.3   229  MET229      0.0401
     78  CG        41.2050  -18.2660   43.1670 C.3   229  MET229      0.0596
     79  SD        42.5300  -17.9590   41.9980 S.3   229  MET229     -0.1393
     80  CE        41.6260  -18.1220   40.3950 C.3   229  MET229      0.0692
     81  N         40.0750  -22.4790   44.2870 N.am  230  GLN230     -0.1979
     82  CA        39.9750  -23.6100   45.1940 C.3   230  GLN230      0.1601
     83  C         39.9890  -24.9580   44.4690 C.2   230  GLN230      0.2287
     84  O         40.4700  -25.9230   45.0540 O.2   230  GLN230     -0.2864
     85  CB        38.8020  -23.4440   46.1720 C.3   230  GLN230      0.0394
     86  CG        38.8980  -22.1210   46.9960 C.3   230  GLN230      0.0908
     87  CD        40.2530  -21.8880   47.6450 C.2   230  GLN230      0.2608
     88  OE1       41.2020  -21.3910   47.0230 O.2   230  GLN230     -0.2717
     89  NE2       40.3600  -22.1950   48.9250 N.am  230  GLN230     -0.0878
     90  N         43.7560  -25.4890   44.1100 N.3   233  MET233     -0.1245
     91  CA        44.3030  -25.8760   45.4130 C.3   233  MET233      0.1570
     92  C         43.9820  -27.3420   45.7590 C.2   233  MET233      0.2261
     93  O         44.8570  -28.0730   46.2280 O.2   233  MET233     -0.2867
     94  CB        43.8080  -24.9280   46.5310 C.3   233  MET233      0.0387
     95  CG        44.3860  -23.5160   46.4710 C.3   233  MET233      0.0595
     96  SD        46.2030  -23.3970   46.2440 S.3   233  MET233     -0.1393
     97  CE        46.7960  -24.3160   47.6300 C.3   233  MET233      0.0692
     98  N         46.1470  -29.8380   43.5460 N.3   236  ILE236     -0.1245
     99  CA        47.5310  -29.8490   44.0580 C.3   236  ILE236      0.1561
    100  C         47.6320  -30.7910   45.2780 C.2   236  ILE236      0.2260
    101  O         48.5190  -31.6470   45.3260 O.2   236  ILE236     -0.2867
    102  CB        48.0340  -28.4060   44.3960 C.3   236  ILE236      0.0252
    103  CG1       48.2620  -27.5720   43.1190 C.3   236  ILE236      0.0019
    104  CG2       49.3140  -28.4420   45.2800 C.3   236  ILE236      0.0019
    105  CD1       48.4560  -26.0020   43.3540 C.3   236  ILE236      0.0001
    106  N         53.4490  -27.6540   44.2190 N.3   243  ALA243     -0.1231
    107  CA        52.5290  -26.5680   44.5500 C.3   243  ALA243      0.1694
    108  C         52.8730  -25.2870   43.7630 C.2   243  ALA243      0.2592
    109  O         53.4010  -24.3130   44.3130 O.2   243  ALA243     -0.2718
    110  CB        52.5070  -26.3310   46.0530 C.3   243  ALA243      0.0304
    111  N         52.5640  -25.3380   42.4680 N.am  244  GLY244     -0.1957
    112  CA        52.8330  -24.2910   41.4960 C.3   244  GLY244      0.1869
    113  C         53.8560  -24.7190   40.4630 C.2   244  GLY244      0.2309
    114  O         55.0490  -24.4500   40.6170 O.2   244  GLY244     -0.2863
    115  N         49.7070  -26.6950   36.2770 N.3   248  ILE248     -0.1245
    116  CA        48.6950  -26.0170   37.1180 C.3   248  ILE248      0.1561
    117  C         47.9260  -24.9300   36.3190 C.2   248  ILE248      0.2260
    118  O         46.7060  -24.7790   36.4970 O.2   248  ILE248     -0.2867
    119  CB        49.3280  -25.4570   38.4370 C.3   248  ILE248      0.0252
    120  CG1       50.1330  -26.5500   39.2350 C.3   248  ILE248      0.0019
    121  CG2       48.3050  -24.7370   39.3360 C.3   248  ILE248      0.0019
    122  CD1       49.4290  -27.9220   39.5390 C.3   248  ILE248      0.0001
@<TRIPOS>BOND
     1   115   116    1
     2   117   118    2
     3   117   116    1
     4   116   119    1
     5   119   120    1
     6   119   121    1
     7   120   122    1
     8    80    79    1
     9   113   114    2
    10   113   112    1
    11   112   111    1
    12    73    74    1
    13    79    78    1
    14   111   108   am
    15    74    75    1
    16    74    77    1
    17   103   105    1
    18   103   102    1
    19    78    77    1
    20    98    99    1
    21    75    76    2
    22    75    81   am
    23   108   109    2
    24   108   107    1
    25    99   102    1
    26    99   100    1
    27    90    91    1
    28   106   107    1
    29    81    82    1
    30   102   104    1
    31    83    84    2
    32    83    82    1
    33   107   110    1
    34    82    85    1
    35   100   101    2
    36    91    92    1
    37    91    94    1
    38    92    93    2
    39    85    86    1
    40    96    95    1
    41    96    97    1
    42    95    94    1
    43    86    87    1
    44    88    87    2
    45    87    89   am
    46     6     5    1
    47    29    27    1
    48     5     2    1
    49    28    27    1
    50    37    36    2
    51    27    24    1
    52    22    20    1
    53     3     4    2
    54     3     2    1
    55     2     1    1
    56    36    35    1
    57    36    38   am
    58    20    21    1
    59    20    17    1
    60    35    34    1
    61    24    23    1
    62    24    25    1
    63    23    18   am
    64    18    19    2
    65    18    17    1
    66    25    30   am
    67    25    26    2
    68    17    16    1
    69    30    31    1
    70    34    31    1
    71    10     9    2
    72    16    13   am
    73    31    32    1
    74    64    65    1
    75    64    63    1
    76    13    12    1
    77    13    14    2
    78     7     8    1
    79     9    11   am
    80     9     8    1
    81    12    11    1
    82    12    15    1
    83    63    62    1
    84    32    33    2
    85    32    39   am
    86    39    40    1
    87    62    59    1
    88    42    41    2
    89    69    68    2
    90    40    41    1
    91    40    43    1
    92    59    58    1
    93    59    60    1
    94    41    48   am
    95    72    70    1
    96    43    44    1
    97    68    67    1
    98    66    60   am
    99    66    67    1
   100    58    50   am
   101    60    61    2
   102    51    50    2
   103    50    49    1
   104    67    70    1
   105    48    49    1
   106    70    71    1
   107    44    45    1
   108    49    52    1
   109    52    53    1
   110    45    46   ar
   111    45    47   ar
   112    54    53   ar
   113    54    56   ar
   114    53    55   ar
   115    56    57   ar
   116    55    57   ar
