@<TRIPOS>MOLECULE
tmp/5n1qA02.pdb
 117 118 0 0 0
SMALL
GASTEIGER

@<TRIPOS>ATOM
      1  N          2.3390   11.6770   49.7560 N.3    62  VAL62      -0.1245
      2  CA         1.0400   11.0500   49.5200 C.3    62  VAL62       0.1561
      3  C          0.4710   10.3860   50.7950 C.2    62  VAL62       0.2260
      4  O          1.1680    9.5860   51.4300 O.2    62  VAL62      -0.2867
      5  CB         1.0730   10.0710   48.3010 C.3    62  VAL62       0.0252
      6  CG1        2.0800    8.9380   48.5020 C.3    62  VAL62       0.0019
      7  CG2       -0.3090    9.5040   47.9930 C.3    62  VAL62       0.0019
      8  N         16.1880    1.3640   41.3960 N.3   323  GLY323     -0.1210
      9  CA        16.2720    1.4960   42.8460 C.3   323  GLY323      0.1956
     10  C         15.1550    2.3030   43.4720 C.2   323  GLY323      0.2612
     11  O         14.3600    2.9360   42.7700 O.2   323  GLY323     -0.2717
     12  N         15.1120    2.2730   44.8030 N.am  324  GLY324     -0.1942
     13  CA        14.1190    2.9550   45.6180 C.3   324  GLY324      0.2014
     14  C         12.9840    2.0330   45.9970 C.2   324  GLY324      0.2639
     15  O         13.1970    0.8290   46.1870 O.2   324  GLY324     -0.2714
     16  N         11.7590    2.5870   46.0910 N.am  325  VAL325     -0.1963
     17  CA        10.5340    1.8320   46.3820 C.3   325  VAL325      0.1727
     18  C         10.4290    0.6420   45.3810 C.2   325  VAL325      0.2617
     19  O         10.1070   -0.4650   45.7860 O.2   325  VAL325     -0.2715
     20  CB         9.2840    2.7620   46.4490 C.3   325  VAL325      0.0290
     21  CG1        7.9720    1.9820   46.3450 C.3   325  VAL325      0.0023
     22  CG2        9.3110    3.6110   47.7280 C.3   325  VAL325      0.0023
     23  N         10.8290    0.8560   44.1340 N.am  326  GLY326     -0.1940
     24  CA        10.9250   -0.2190   43.1560 C.3   326  GLY326      0.2014
     25  C          9.6580   -0.7460   42.5160 C.2   326  GLY326      0.2639
     26  O          8.6420   -0.0510   42.4350 O.2   326  GLY326     -0.2714
     27  N          9.7360   -2.0040   42.0470 N.am  327  PHE327     -0.1959
     28  CA         8.7110   -2.6190   41.2010 C.3   327  PHE327      0.1771
     29  C          8.0660   -3.9130   41.7310 C.2   327  PHE327      0.2620
     30  O          7.7940   -4.8250   40.9470 O.2   327  PHE327     -0.2715
     31  CB         9.3200   -2.8640   39.8000 C.3   327  PHE327      0.0574
     32  CG         9.9880   -1.6910   39.1220 C.ar  327  PHE327     -0.0200
     33  CD1        9.4060   -0.4260   39.1430 C.ar  327  PHE327     -0.0042
     34  CD2       11.1470   -1.8700   38.3670 C.ar  327  PHE327     -0.0042
     35  CE1       10.0050    0.6540   38.4800 C.ar  327  PHE327     -0.0003
     36  CE2       11.7390   -0.7910   37.6950 C.ar  327  PHE327     -0.0003
     37  CZ        11.1640    0.4640   37.7580 C.ar  327  PHE327     -0.0000
     38  N          7.7420   -3.9680   43.0290 N.am  328  THR328     -0.1937
     39  CA         7.1030   -5.1550   43.6200 C.3   328  THR328      0.2028
     40  C          5.8020   -5.5700   42.8950 C.2   328  THR328      0.2642
     41  O          5.6910   -6.7170   42.4590 O.2   328  THR328     -0.2714
     42  CB         6.8160   -4.9290   45.1150 C.3   328  THR328      0.1808
     43  OG1        8.0070   -4.5280   45.7830 O.3   328  THR328     -0.2208
     44  CG2        6.1910   -6.1600   45.7970 C.3   328  THR328      0.0379
     45  N          4.8330   -4.6500   42.7830 N.am  329  GLN329     -0.1963
     46  CA         3.5130   -4.9460   42.2220 C.3   329  GLN329      0.1733
     47  C          3.5120   -5.1380   40.7030 C.2   329  GLN329      0.2616
     48  O          2.6400   -5.8530   40.1980 O.2   329  GLN329     -0.2715
     49  CB         2.4690   -3.9320   42.6930 C.3   329  GLN329      0.0408
     50  CG         2.2230   -4.1110   44.1940 C.3   329  GLN329      0.0908
     51  CD         1.6160   -2.9220   44.8810 C.2   329  GLN329      0.2608
     52  OE1        0.5830   -3.0360   45.5390 O.2   329  GLN329     -0.2717
     53  NE2        2.2990   -1.7810   44.8430 N.am  329  GLN329     -0.0878
     54  N          4.5260   -4.6190   39.9840 N.am  330  TYR330     -0.1974
     55  CA         4.6570   -4.8690   38.5420 C.3   330  TYR330      0.1639
     56  C          4.9140   -6.3750   38.3600 C.2   330  TYR330      0.2290
     57  O          4.4790   -6.9690   37.3750 O.2   330  TYR330     -0.2864
     58  CB         5.8590   -4.1060   37.9430 C.3   330  TYR330      0.0560
     59  CG         5.5660   -2.7030   37.4720 C.ar  330  TYR330     -0.0198
     60  CD1        4.5080   -2.4400   36.6090 C.ar  330  TYR330     -0.0009
     61  CD2        6.3900   -1.6410   37.8350 C.ar  330  TYR330     -0.0009
     62  CE1        4.2570   -1.1490   36.1390 C.ar  330  TYR330      0.0417
     63  CE2        6.1640   -0.3510   37.3510 C.ar  330  TYR330      0.0417
     64  CZ         5.1010   -0.1120   36.4950 C.ar  330  TYR330      0.1957
     65  OH         4.8570    1.1590   36.0260 O.3   330  TYR330     -0.2866
     66  N         -4.5820   -2.6130   39.0410 N.3   393  PHE393     -0.1227
     67  CA        -4.8830   -1.1940   38.8150 C.3   393  PHE393      0.1736
     68  C         -4.0260   -0.5040   37.7520 C.2   393  PHE393      0.2596
     69  O         -4.4730    0.4790   37.1680 O.2   393  PHE393     -0.2718
     70  CB        -4.8360   -0.4040   40.1340 C.3   393  PHE393      0.0547
     71  CG        -3.5130   -0.4410   40.8670 C.ar  393  PHE393     -0.0202
     72  CD1       -2.4680    0.4080   40.5010 C.ar  393  PHE393     -0.0042
     73  CD2       -3.3240   -1.2930   41.9490 C.ar  393  PHE393     -0.0042
     74  CE1       -1.2580    0.3930   41.1970 C.ar  393  PHE393     -0.0003
     75  CE2       -2.1030   -1.3230   42.6300 C.ar  393  PHE393     -0.0003
     76  CZ        -1.0820   -0.4780   42.2530 C.ar  393  PHE393     -0.0000
     77  N         -2.8160   -1.0060   37.5270 N.am  394  GLY394     -0.1942
     78  CA        -1.8980   -0.4440   36.5380 C.3   394  GLY394      0.2014
     79  C         -2.0260   -1.1550   35.2130 C.2   394  GLY394      0.2639
     80  O         -2.0500   -2.3840   35.1740 O.2   394  GLY394     -0.2714
     81  N         -2.1050   -0.3890   34.1300 N.am  395  GLY395     -0.1939
     82  CA        -2.2370   -0.9490   32.7890 C.3   395  GLY395      0.2014
     83  C         -1.1130   -1.8860   32.3870 C.2   395  GLY395      0.2639
     84  O         -1.3620   -2.8790   31.6930 O.2   395  GLY395     -0.2714
     85  N          0.1380   -1.5870   32.8350 N.am  396  SER396     -0.1949
     86  CA         1.3020   -2.4250   32.5300 C.3   396  SER396      0.1924
     87  C          1.0920   -3.8440   33.0670 C.2   396  SER396      0.2314
     88  O          1.3920   -4.7940   32.3520 O.2   396  SER396     -0.2863
     89  CB         2.5890   -1.8390   33.1110 C.3   396  SER396      0.2116
     90  OG         2.8780   -0.5380   32.6280 O.3   396  SER396     -0.2180
     91  N          0.2140    0.3440   28.8240 N.3   438  GLY438     -0.1210
     92  CA         0.9670    0.4120   30.0720 C.3   438  GLY438      0.1956
     93  C          1.4160    1.8120   30.4360 C.2   438  GLY438      0.2612
     94  O          0.7490    2.7980   30.0960 O.2   438  GLY438     -0.2717
     95  N          2.5800    1.9040   31.0970 N.am  439  PHE439     -0.1962
     96  CA         3.1780    3.1850   31.4700 C.3   439  PHE439      0.1771
     97  C          3.7330    3.8930   30.2010 C.2   439  PHE439      0.2619
     98  O          3.6800    3.3160   29.1060 O.2   439  PHE439     -0.2715
     99  CB         4.2300    2.9830   32.5820 C.3   439  PHE439      0.0574
    100  CG         5.5250    2.3490   32.1440 C.ar  439  PHE439     -0.0200
    101  CD1        5.6830    0.9710   32.1640 C.ar  439  PHE439     -0.0042
    102  CD2        6.5930    3.1310   31.7270 C.ar  439  PHE439     -0.0042
    103  CE1        6.8790    0.3840   31.7370 C.ar  439  PHE439     -0.0003
    104  CE2        7.7790    2.5440   31.2870 C.ar  439  PHE439     -0.0003
    105  CZ         7.9000    1.1740   31.2690 C.ar  439  PHE439     -0.0000
    106  N          4.2030    5.1540   30.3420 N.am  440  TYR440     -0.1974
    107  CA         4.7260    6.0200   29.2690 C.3   440  TYR440      0.1639
    108  C          5.5940    5.2830   28.2570 C.2   440  TYR440      0.2290
    109  O          5.3860    5.4450   27.0550 O.2   440  TYR440     -0.2864
    110  CB         5.5610    7.1640   29.8800 C.3   440  TYR440      0.0560
    111  CG         5.3210    8.5580   29.3490 C.ar  440  TYR440     -0.0198
    112  CD1        5.1400    8.7920   27.9870 C.ar  440  TYR440     -0.0009
    113  CD2        5.4000    9.6630   30.1940 C.ar  440  TYR440     -0.0009
    114  CE1        4.9850   10.0860   27.4870 C.ar  440  TYR440      0.0417
    115  CE2        5.2400   10.9580   29.7070 C.ar  440  TYR440      0.0417
    116  CZ         5.0380   11.1670   28.3540 C.ar  440  TYR440      0.1957
    117  OH         4.8680   12.4530   27.9000 O.3   440  TYR440     -0.2866
@<TRIPOS>BOND
     1   109   108    2
     2   114   112   ar
     3   114   116   ar
     4   117   116    1
     5   112   111   ar
     6   108   107    1
     7   116   115   ar
     8    91    92    1
     9    98    97    2
    10   107   110    1
    11   107   106    1
    12   111   110    1
    13   111   113   ar
    14   115   113   ar
    15    92    93    1
    16    94    93    2
    17    97   106   am
    18    97    96    1
    19    93    95   am
    20    95    96    1
    21   105   104   ar
    22   105   103   ar
    23   104   102   ar
    24    96    99    1
    25    84    83    2
    26   102   100   ar
    27   103   101   ar
    28   100   101   ar
    29   100    99    1
    30    88    87    2
    31    83    82    1
    32    83    85   am
    33    86    85    1
    34    86    87    1
    35    86    89    1
    36    90    89    1
    37    82    81    1
    38    81    79   am
    39    80    79    2
    40    79    78    1
    41    65    64    1
    42    62    64   ar
    43    62    60   ar
    44    64    63   ar
    45    78    77    1
    46    60    59   ar
    47    69    68    2
    48    63    61   ar
    49    57    56    2
    50    59    61   ar
    51    59    58    1
    52    77    68   am
    53    36    37   ar
    54    36    34   ar
    55    68    67    1
    56    37    35   ar
    57    58    55    1
    58    56    55    1
    59    34    32   ar
    60    35    33   ar
    61    55    54    1
    62    67    66    1
    63    67    70    1
    64    32    33   ar
    65    32    31    1
    66    31    28    1
    67    54    47   am
    68    70    71    1
    69    48    47    2
    70    72    71   ar
    71    72    74   ar
    72    47    46    1
    73    71    73   ar
    74    30    29    2
    75    74    76   ar
    76    28    29    1
    77    28    27    1
    78     8     9    1
    79    29    38   am
    80    73    75   ar
    81    27    25   am
    82    46    49    1
    83    46    45    1
    84    76    75   ar
    85    26    25    2
    86    41    40    2
    87    25    24    1
    88    49    50    1
    89    11    10    2
    90    45    40   am
    91     9    10    1
    92    40    39    1
    93    38    39    1
    94    24    23    1
    95    10    12   am
    96    39    42    1
    97    23    18   am
    98    50    51    1
    99    12    13    1
   100    53    51   am
   101    51    52    2
   102    42    43    1
   103    42    44    1
   104    18    19    2
   105    18    17    1
   106    13    14    1
   107    14    16   am
   108    14    15    2
   109    16    17    1
   110    21    20    1
   111    17    20    1
   112    20    22    1
   113     7     5    1
   114     5     6    1
   115     5     2    1
   116     2     1    1
   117     2     3    1
   118     3     4    2
