@<TRIPOS>MOLECULE
tmp/5n1qC00.pdb
 82 82 0 0 0
SMALL
GASTEIGER

@<TRIPOS>ATOM
      1  N         -0.7820    7.2640   28.7890 N.3   119  LEU119     -0.1231
      2  CA        -0.4510    6.2600   29.8030 C.3   119  LEU119      0.1693
      3  C         -1.7710    5.6580   30.2570 C.2   119  LEU119      0.2593
      4  O         -2.8190    6.2570   30.0090 O.2   119  LEU119     -0.2718
      5  CB         0.2370    6.9400   31.0110 C.3   119  LEU119      0.0284
      6  CG         1.5910    7.6200   30.7920 C.3   119  LEU119      0.0019
      7  CD1        1.4210    9.1050   30.4360 C.3   119  LEU119      0.0001
      8  CD2        2.3980    7.5800   32.0640 C.3   119  LEU119      0.0001
      9  N         -1.7430    4.4920   30.9330 N.am  120  SER120     -0.1938
     10  CA        -2.9890    3.8840   31.3950 C.3   120  SER120      0.2055
     11  C         -3.7540    4.7750   32.3900 C.2   120  SER120      0.2644
     12  O         -4.9600    4.9060   32.2650 O.2   120  SER120     -0.2714
     13  CB        -2.7460    2.4930   31.9750 C.3   120  SER120      0.2130
     14  OG        -2.0900    2.5260   33.2350 O.3   120  SER120     -0.2179
     15  N         -3.0400    5.3940   33.3340 N.am  121  GLY121     -0.1939
     16  CA        -3.6340    6.1950   34.4000 C.3   121  GLY121      0.2014
     17  C         -3.7160    7.6950   34.2180 C.2   121  GLY121      0.2638
     18  O         -4.3410    8.3760   35.0410 O.2   121  GLY121     -0.2714
     19  N         -3.0960    8.2280   33.1510 N.am  122  ARG122     -0.1977
     20  CA        -3.1090    9.6700   32.8640 C.3   122  ARG122      0.1597
     21  C         -2.8500    9.9790   31.3960 C.2   122  ARG122      0.2287
     22  O         -2.2180    9.1880   30.6980 O.2   122  ARG122     -0.2864
     23  CB        -2.0910   10.4210   33.7470 C.3   122  ARG122      0.0334
     24  CG        -0.6540    9.9850   33.5210 C.3   122  ARG122      0.0492
     25  CD         0.2500   10.5350   34.5930 C.3   122  ARG122      0.2205
     26  NE         1.4370   11.1340   33.9930 N.pl3 122  ARG122     -0.0865
     27  CZ         2.6600   10.6340   34.1180 C.cat 122  ARG122      0.5346
     28  NH1        2.8690    9.5400   34.8380 N.pl3 122  ARG122      0.1354
     29  NH2        3.6820   11.2190   33.5230 N.pl3 122  ARG122      0.1354
     30  N         -2.2590   16.4620   38.2220 N.3   155  GLY155     -0.1210
     31  CA        -0.8500   16.5010   37.8280 C.3   155  GLY155      0.1956
     32  C          0.0500   15.4850   38.5140 C.2   155  GLY155      0.2612
     33  O          1.1110   15.1540   37.9860 O.2   155  GLY155     -0.2717
     34  N         -0.3470   15.0030   39.7100 N.am  156  ALA156     -0.1965
     35  CA         0.3980   14.0110   40.5190 C.3   156  ALA156      0.1728
     36  C         -0.5950   13.1930   41.3610 C.2   156  ALA156      0.2617
     37  O         -1.6990   13.6860   41.6130 O.2   156  ALA156     -0.2715
     38  CB         1.4120   14.7070   41.4200 C.3   156  ALA156      0.0334
     39  N         -0.2190   11.9460   41.7910 N.am  157  THR157     -0.1937
     40  CA        -1.1000   11.0270   42.5550 C.3   157  THR157      0.2028
     41  C         -2.3610   10.7960   41.6890 C.2   157  THR157      0.2642
     42  O         -3.4630   11.2470   42.0370 O.2   157  THR157     -0.2714
     43  CB        -1.3670   11.5710   43.9790 C.3   157  THR157      0.1808
     44  OG1       -0.1430   12.0650   44.5400 O.3   157  THR157     -0.2208
     45  CG2       -1.9840   10.5280   44.8900 C.3   157  THR157      0.0379
     46  N         -2.1630   10.1440   40.5260 N.am  158  VAL158     -0.1963
     47  CA        -3.1790    9.9860   39.4630 C.3   158  VAL158      0.1727
     48  C         -4.1570    8.8050   39.6260 C.2   158  VAL158      0.2616
     49  O         -5.1560    8.7540   38.9060 O.2   158  VAL158     -0.2715
     50  CB        -2.5300    9.9460   38.0560 C.3   158  VAL158      0.0290
     51  CG1       -1.6690   11.1850   37.8190 C.3   158  VAL158      0.0023
     52  CG2       -1.7210    8.6660   37.8440 C.3   158  VAL158      0.0023
     53  N         -3.8410    7.8490   40.5160 N.am  159  HIS159     -0.1959
     54  CA        -4.6170    6.6380   40.8130 C.3   159  HIS159      0.1787
     55  C         -6.1430    6.8630   40.7600 C.2   159  HIS159      0.2621
     56  O         -6.6470    7.8190   41.3540 O.2   159  HIS159     -0.2715
     57  CB        -4.1810    6.1230   42.1990 C.3   159  HIS159      0.0785
     58  CG        -4.5200    4.6950   42.4830 C.ar  159  HIS159      0.0821
     59  ND1       -3.8460    3.6590   41.8710 N.ar  159  HIS159     -0.2267
     60  CD2       -5.3910    4.1770   43.3800 C.ar  159  HIS159      0.1154
     61  CE1       -4.3370    2.5490   42.3930 C.ar  159  HIS159      0.1986
     62  NE2       -5.2700    2.8130   43.3040 N.ar  159  HIS159     -0.2212
     63  N         -6.8540    6.0390   39.9930 N.am  160  GLY160     -0.1940
     64  CA        -8.3060    6.1730   39.8940 C.3   160  GLY160      0.2014
     65  C         -8.9930    5.6650   38.6420 C.2   160  GLY160      0.2639
     66  O        -10.1630    5.2770   38.7210 O.2   160  GLY160     -0.2714
     67  N         -8.3040    5.6770   37.4750 N.am  161  HIS161     -0.1959
     68  CA        -8.9040    5.2430   36.1940 C.3   161  HIS161      0.1787
     69  C         -9.5010    3.8250   36.2270 C.2   161  HIS161      0.2620
     70  O        -10.5270    3.5790   35.5980 O.2   161  HIS161     -0.2715
     71  CB        -7.8960    5.3720   35.0250 C.3   161  HIS161      0.0785
     72  CG        -6.9030    4.2450   34.9310 C.ar  161  HIS161      0.0821
     73  ND1       -5.8130    4.1620   35.7830 N.ar  161  HIS161     -0.2267
     74  CD2       -6.8810    3.1790   34.0970 C.ar  161  HIS161      0.1154
     75  CE1       -5.1490    3.0720   35.4190 C.ar  161  HIS161      0.1986
     76  NE2       -5.7600    2.4430   34.4140 N.ar  161  HIS161     -0.2212
     77  N         -8.8410    2.9060   36.9570 N.am  162  SER162     -0.1950
     78  CA        -9.1900    1.4880   37.0530 C.3   162  SER162      0.1924
     79  C         -9.9790    1.1240   38.3200 C.2   162  SER162      0.2314
     80  O        -10.2580   -0.0520   38.5500 O.2   162  SER162     -0.2863
     81  CB        -7.9190    0.6520   36.9620 C.3   162  SER162      0.2116
     82  OG        -6.9970    1.0920   37.9440 O.3   162  SER162     -0.2180
@<TRIPOS>BOND
     1     1     2    1
     2     2     3    1
     3     2     5    1
     4     4     3    2
     5     3     9   am
     6     7     6    1
     7    22    21    2
     8     6     5    1
     9     6     8    1
    10     9    10    1
    11    10    13    1
    12    10    11    1
    13    21    20    1
    14    13    14    1
    15    12    11    2
    16    11    15   am
    17    20    19    1
    18    20    23    1
    19    19    17   am
    20    15    16    1
    21    24    23    1
    22    24    25    1
    23    29    27    1
    24    26    27    2
    25    26    25    1
    26    74    76   ar
    27    74    72   ar
    28    27    28    1
    29    17    16    1
    30    17    18    2
    31    76    75   ar
    32    72    71    1
    33    72    73   ar
    34    71    68    1
    35    75    73   ar
    36    70    69    2
    37    68    69    1
    38    68    67    1
    39    69    77   am
    40    77    78    1
    41    81    78    1
    42    81    82    1
    43    78    79    1
    44    67    65   am
    45    51    50    1
    46    31    30    1
    47    31    32    1
    48    52    50    1
    49    33    32    2
    50    50    47    1
    51    79    80    2
    52    32    34   am
    53    65    66    2
    54    65    64    1
    55    49    48    2
    56    47    48    1
    57    47    46    1
    58    48    53   am
    59    34    35    1
    60    64    63    1
    61    63    55   am
    62    53    54    1
    63    35    36    1
    64    35    38    1
    65    46    41   am
    66    55    54    1
    67    55    56    2
    68    54    57    1
    69    36    37    2
    70    36    39   am
    71    41    42    2
    72    41    40    1
    73    39    40    1
    74    59    61   ar
    75    59    58   ar
    76    57    58    1
    77    61    62   ar
    78    58    60   ar
    79    40    43    1
    80    62    60   ar
    81    43    44    1
    82    43    45    1
