@<TRIPOS>MOLECULE
tmp/5n1rA00.pdb
 133 130 0 0 0
SMALL
GASTEIGER

@<TRIPOS>ATOM
      1  N        -12.7170    6.1430   11.1580 N.3    90  GLN90      -0.1245
      2  CA       -12.4040    5.0030   10.2920 C.3    90  GLN90       0.1566
      3  C        -12.6540    3.7560   11.0460 C.2    90  GLN90       0.2260
      4  O        -12.6720    3.8020   12.2950 O.2    90  GLN90      -0.2867
      5  CB       -10.9640    5.0250    9.7520 C.3    90  GLN90       0.0367
      6  CG        -9.8770    5.2050   10.8850 C.3    90  GLN90       0.0905
      7  CD        -9.1040    3.9230   11.1640 C.2    90  GLN90       0.2608
      8  OE1       -9.6380    2.8090   11.1430 O.2    90  GLN90      -0.2717
      9  NE2       -7.8800    4.0840   11.5200 N.am   90  GLN90      -0.0878
     10  N        -11.1920   -0.5720   10.8580 N.3    92  HIS92      -0.1241
     11  CA       -10.3340   -1.5440   10.2470 C.3    92  HIS92       0.1621
     12  C        -10.3990   -2.8040   11.0590 C.2    92  HIS92       0.2264
     13  O        -11.0560   -2.8480   12.1090 O.2    92  HIS92      -0.2867
     14  CB        -8.8930   -1.0270   10.1750 C.3    92  HIS92       0.0745
     15  CG        -8.3730   -0.7160   11.5390 C.ar   92  HIS92       0.0817
     16  ND1       -8.5070    0.5300   12.1850 N.ar   92  HIS92      -0.2268
     17  CD2       -7.7140   -1.5140   12.3920 C.ar   92  HIS92       0.1154
     18  CE1       -7.9730    0.4530   13.4140 C.ar   92  HIS92       0.1986
     19  NE2       -7.5000   -0.7850   13.5640 N.ar   92  HIS92      -0.2212
     20  N         -8.0580   -6.5130   12.3840 N.3    94  HIS94      -0.1241
     21  CA        -6.8240   -7.2940   12.5330 C.3    94  HIS94       0.1621
     22  C         -7.2150   -8.7650   12.4130 C.2    94  HIS94       0.2264
     23  O         -8.3140   -9.1120   12.9250 O.2    94  HIS94      -0.2867
     24  CB        -6.1330   -7.0780   13.9110 C.3    94  HIS94       0.0745
     25  CG        -5.8680   -5.6390   14.1760 C.ar   94  HIS94       0.0817
     26  ND1       -4.6160   -5.0660   13.9230 N.ar   94  HIS94      -0.2268
     27  CD2       -6.6810   -4.6460   14.5890 C.ar   94  HIS94       0.1154
     28  CE1       -4.6830   -3.7540   14.2410 C.ar   94  HIS94       0.1986
     29  NE2       -5.9460   -3.4700   14.5610 N.ar   94  HIS94      -0.2212
     30  N        -11.9860   -2.7260   14.7980 N.3   117  HIS117     -0.1241
     31  CA       -11.7630   -1.4960   15.5410 C.3   117  HIS117      0.1621
     32  C        -12.4360   -0.2860   14.8540 C.2   117  HIS117      0.2264
     33  O        -12.0930    0.0470   13.7000 O.2   117  HIS117     -0.2867
     34  CB       -10.2560   -1.2210   15.6130 C.3   117  HIS117      0.0745
     35  CG        -9.5530   -2.1860   16.5020 C.ar  117  HIS117      0.0817
     36  ND1       -8.1770   -2.4240   16.4570 N.ar  117  HIS117     -0.2268
     37  CD2      -10.0640   -3.0320   17.4280 C.ar  117  HIS117      0.1154
     38  CE1       -7.8670   -3.2960   17.3820 C.ar  117  HIS117      0.1986
     39  NE2       -8.9880   -3.7060   17.9970 N.ar  117  HIS117     -0.2212
     40  N        -12.7190    3.4070   15.1510 N.3   119  VAL119     -0.1245
     41  CA       -11.9000    4.4790   15.7930 C.3   119  VAL119      0.1561
     42  C        -12.6460    5.8010   15.8040 C.2   119  VAL119      0.2260
     43  O        -13.0980    6.2920   14.7430 O.2   119  VAL119     -0.2867
     44  CB       -10.5800    4.5890   14.9950 C.3   119  VAL119      0.0252
     45  CG1       -9.6590    5.6450   15.6170 C.3   119  VAL119      0.0019
     46  CG2       -9.9080    3.2070   14.8820 C.3   119  VAL119      0.0019
     47  N         -8.2640   14.8230   14.6280 N.3   128  PHE128     -0.1227
     48  CA        -7.7010   13.5500   15.0210 C.3   128  PHE128      0.1736
     49  C         -6.2570   13.6670   15.4170 C.2   128  PHE128      0.2596
     50  O         -5.8620   13.0540   16.4520 O.2   128  PHE128     -0.2718
     51  CB        -7.8640   12.6020   13.8460 C.3   128  PHE128      0.0547
     52  CG        -7.2670   11.2510   14.0850 C.ar  128  PHE128     -0.0202
     53  CD1       -7.9930   10.3010   14.8340 C.ar  128  PHE128     -0.0042
     54  CD2       -6.0230   10.8870   13.5890 C.ar  128  PHE128     -0.0042
     55  CE1       -7.5230    9.0670   15.0570 C.ar  128  PHE128     -0.0003
     56  CE2       -5.5240    9.6070   13.8400 C.ar  128  PHE128     -0.0003
     57  CZ        -6.2990    8.7010   14.5940 C.ar  128  PHE128     -0.0000
     58  N         -5.3810   14.4450   14.6890 N.am  129  GLY129     -0.1957
     59  CA        -3.9910   14.5760   15.0330 C.3   129  GLY129      0.1869
     60  C         -3.7790   15.1960   16.4080 C.2   129  GLY129      0.2309
     61  O         -2.8060   14.8950   17.0760 O.2   129  GLY129     -0.2863
     62  N         -4.8710   12.4730   19.2620 N.3   132  VAL132     -0.1245
     63  CA        -3.9810   11.3820   19.6530 C.3   132  VAL132      0.1561
     64  C         -2.8620   11.8100   20.6170 C.2   132  VAL132      0.2260
     65  O         -2.1840   10.9400   21.1590 O.2   132  VAL132     -0.2867
     66  CB        -3.3480   10.6470   18.4220 C.3   132  VAL132      0.0252
     67  CG1       -4.4240   10.0420   17.5400 C.3   132  VAL132      0.0019
     68  CG2       -2.3900   11.5620   17.6070 C.3   132  VAL132      0.0019
     69  N         -8.9890    9.4570   22.0630 N.3   138  LEU138     -0.1245
     70  CA        -9.6800    8.4980   21.1940 C.3   138  LEU138      0.1561
     71  C        -10.5420    7.5330   21.9950 C.2   138  LEU138      0.2260
     72  O        -10.2390    7.2710   23.1700 O.2   138  LEU138     -0.2867
     73  CB        -8.6430    7.6080   20.4820 C.3   138  LEU138      0.0270
     74  CG        -7.8230    8.2170   19.3570 C.3   138  LEU138      0.0019
     75  CD1       -7.0700    7.1930   18.5080 C.3   138  LEU138      0.0001
     76  CD2       -8.2710    9.4140   18.5600 C.3   138  LEU138      0.0001
     77  N        -11.8760    3.6870   21.0330 N.3   140  VAL140     -0.1245
     78  CA       -11.9220    2.6340   20.0000 C.3   140  VAL140      0.1561
     79  C        -12.8850    1.5170   20.4850 C.2   140  VAL140      0.2260
     80  O        -12.7410    1.0340   21.6170 O.2   140  VAL140     -0.2867
     81  CB       -10.5340    2.0360   19.6500 C.3   140  VAL140      0.0252
     82  CG1      -10.7070    1.0800   18.4650 C.3   140  VAL140      0.0019
     83  CG2       -9.6140    3.1200   19.2050 C.3   140  VAL140      0.0019
     84  N         -2.9520    3.0820   21.1430 N.3   195  LEU195     -0.1231
     85  CA        -2.9520    2.5380   19.7920 C.3   195  LEU195      0.1693
     86  C         -2.2590    1.2160   19.8410 C.2   195  LEU195      0.2593
     87  O         -1.2090    1.0370   20.5240 O.2   195  LEU195     -0.2718
     88  CB        -2.2190    3.4710   18.8380 C.3   195  LEU195      0.0284
     89  CG        -2.7100    4.9000   18.8470 C.3   195  LEU195      0.0019
     90  CD1       -1.8580    5.7260   17.8450 C.3   195  LEU195      0.0001
     91  CD2       -4.1890    5.0950   18.4910 C.3   195  LEU195      0.0001
     92  N         -2.6900    0.2270   19.0380 N.am  196  THR196     -0.1939
     93  CA        -2.0330   -1.0970   19.0330 C.3   196  THR196      0.2028
     94  C         -1.0200   -1.1760   17.8700 C.2   196  THR196      0.2643
     95  O         -0.4260   -2.2220   17.7400 O.2   196  THR196     -0.2714
     96  CB        -3.0550   -2.2430   18.8680 C.3   196  THR196      0.1808
     97  OG1       -3.6160   -2.1590   17.5530 O.3   196  THR196     -0.2208
     98  CG2       -4.1020   -2.2030   19.9950 C.3   196  THR196      0.0379
     99  N         -0.8200   -0.1180   17.1080 N.am  197  THR197     -0.1937
    100  CA         0.3380   -0.0580   16.1410 C.3   197  THR197      0.2013
    101  C          1.1030    1.2110   16.4160 C.2   197  THR197      0.2484
    102  O          0.6010    2.1270   17.0390 O.2   197  THR197     -0.2729
    103  CB        -0.0890   -0.0070   14.6620 C.3   197  THR197      0.1807
    104  OG1       -0.5750    1.3040   14.3430 O.3   197  THR197     -0.2208
    105  CG2       -1.1660   -1.0100   14.3250 C.3   197  THR197      0.0379
    106  N          2.3850    1.2340   15.9830 N.am  198  PRO198     -0.2715
    107  CA         3.0680    2.5160   16.0480 C.3   198  PRO198      0.1521
    108  C          2.1820    3.6170   15.5080 C.2   198  PRO198      0.2440
    109  O          1.5100    3.3930   14.4550 O.2   198  PRO198     -0.2731
    110  CB         4.3180    2.2400   15.1440 C.3   198  PRO198      0.0310
    111  CG         4.6050    0.7820   15.4080 C.3   198  PRO198      0.0237
    112  CD         3.2110    0.1630   15.3710 C.3   198  PRO198      0.0939
    113  N          2.1990    4.8180   16.0540 N.am  199  PRO199     -0.2727
    114  CA         3.1140    5.2470   17.1500 C.3   199  PRO199      0.1402
    115  C          2.7800    4.8090   18.5970 C.2   199  PRO199      0.2269
    116  O          3.4220    5.2990   19.5220 O.2   199  PRO199     -0.2865
    117  CB         3.0300    6.7870   17.0140 C.3   199  PRO199      0.0296
    118  CG         1.6450    7.1060   16.4610 C.3   199  PRO199      0.0237
    119  CD         1.3120    5.9180   15.5440 C.3   199  PRO199      0.0939
    120  N        -10.4950    2.2700   25.5770 N.3   206  TRP206     -0.1241
    121  CA       -10.8950    1.0440   24.8820 C.3   206  TRP206      0.1605
    122  C        -12.2770    0.6020   25.3810 C.2   206  TRP206      0.2264
    123  O        -12.5000    0.5320   26.6210 O.2   206  TRP206     -0.2867
    124  CB        -9.8850   -0.1810   25.1110 C.3   206  TRP206      0.0550
    125  CG        -8.7580   -0.0430   24.1390 C.ar  206  TRP206      0.0003
    126  CD1       -7.5210    0.5850   24.3350 C.ar  206  TRP206      0.0946
    127  CD2       -8.8190   -0.4150   22.7350 C.ar  206  TRP206      0.0152
    128  NE1       -6.8710    0.5620   23.1650 N.ar  206  TRP206     -0.2442
    129  CE2       -7.5720   -0.0300   22.1600 C.ar  206  TRP206      0.0810
    130  CE3       -9.8230   -1.0840   21.9670 C.ar  206  TRP206      0.0012
    131  CZ2       -7.3090   -0.2430   20.7940 C.ar  206  TRP206      0.0191
    132  CZ3       -9.5550   -1.3370   20.6310 C.ar  206  TRP206      0.0001
    133  CH2       -8.2820   -0.9610   20.0700 C.ar  206  TRP206      0.0015
@<TRIPOS>BOND
     1     5     2    1
     2     5     6    1
     3    14    11    1
     4    14    15    1
     5    11    10    1
     6    11    12    1
     7     2     3    1
     8     2     1    1
     9     6     7    1
    10     3     4    2
    11    12    13    2
    12     8     7    2
    13     7     9   am
    14    15    16   ar
    15    15    17   ar
    16    16    18   ar
    17    20    21    1
    18    17    19   ar
    19    22    21    1
    20    22    23    2
    21    21    24    1
    22    18    19   ar
    23    54    56   ar
    24    54    52   ar
    25    33    32    2
    26    56    57   ar
    27    51    52    1
    28    51    48    1
    29    24    25    1
    30    26    25   ar
    31    26    28   ar
    32    52    53   ar
    33    25    27   ar
    34    28    29   ar
    35   105   103    1
    36   104   103    1
    37   109   108    2
    38    29    27   ar
    39    57    55   ar
    40    47    48    1
    41   103   100    1
    42    58    59    1
    43    58    49   am
    44    43    42    2
    45    30    31    1
    46    53    55   ar
    47    32    31    1
    48    46    44    1
    49    44    45    1
    50    44    41    1
    51    48    49    1
    52    59    60    1
    53   110   111    1
    54   110   107    1
    55    40    41    1
    56   112   111    1
    57   112   106    1
    58    49    50    2
    59   108   107    1
    60   108   113   am
    61    31    34    1
    62   119   113    1
    63   119   118    1
    64    34    35    1
    65    41    42    1
    66   106   107    1
    67   106   101   am
    68   113   114    1
    69   100   101    1
    70   100    99    1
    71    60    61    2
    72   101   102    2
    73    36    35   ar
    74    36    38   ar
    75   118   117    1
    76    35    37   ar
    77   117   114    1
    78    99    94   am
    79   114   115    1
    80    38    39   ar
    81    37    39   ar
    82    67    66    1
    83    97    96    1
    84    68    66    1
    85    95    94    2
    86    90    89    1
    87    94    93    1
    88    66    63    1
    89    82    81    1
    90    91    89    1
    91    75    74    1
    92    76    74    1
    93   115   116    2
    94    88    89    1
    95    88    85    1
    96    96    93    1
    97    96    98    1
    98    93    92    1
    99    92    86   am
   100    83    81    1
   101    62    63    1
   102    74    73    1
   103    81    78    1
   104    63    64    1
   105    85    86    1
   106    85    84    1
   107    86    87    2
   108    78    79    1
   109    78    77    1
   110   133   132   ar
   111   133   131   ar
   112    73    70    1
   113    79    80    2
   114    64    65    2
   115   132   130   ar
   116   131   129   ar
   117    70    71    1
   118    70    69    1
   119   130   127   ar
   120    71    72    2
   121   129   127   ar
   122   129   128   ar
   123   127   125   ar
   124   128   126   ar
   125   125   126   ar
   126   125   124    1
   127   121   124    1
   128   121   122    1
   129   121   120    1
   130   122   123    2
