@<TRIPOS>MOLECULE
tmp/5n1sA00.pdb
 151 147 0 0 0
SMALL
GASTEIGER

@<TRIPOS>ATOM
      1  N         -0.7230   -2.1160    6.3910 N.3    62  HIS62      -0.1241
      2  CA        -0.8060   -2.9160    7.6540 C.3    62  HIS62       0.1621
      3  C         -2.2340   -3.3910    7.9060 C.2    62  HIS62       0.2264
      4  O         -2.3780   -4.3730    8.6570 O.2    62  HIS62      -0.2867
      5  CB        -0.2560   -2.2480    8.9390 C.3    62  HIS62       0.0745
      6  CG        -0.6110   -0.8210    9.0970 C.ar   62  HIS62       0.0817
      7  ND1       -1.6400   -0.3920    9.9160 N.ar   62  HIS62      -0.2268
      8  CD2       -0.0110    0.2940    8.6170 C.ar   62  HIS62       0.1154
      9  CE1       -1.6810    0.9290    9.8880 C.ar   62  HIS62       0.1986
     10  NE2       -0.7400    1.3650    9.0830 N.ar   62  HIS62      -0.2212
     11  N        -12.6550    6.1350   11.1270 N.3    90  GLN90      -0.1245
     12  CA       -12.3760    4.9810   10.2720 C.3    90  GLN90       0.1566
     13  C        -12.6300    3.7050   11.0390 C.2    90  GLN90       0.2260
     14  O        -12.6160    3.7460   12.2880 O.2    90  GLN90      -0.2867
     15  CB       -10.9060    4.9980    9.7530 C.3    90  GLN90       0.0367
     16  CG        -9.8280    5.1440   10.8630 C.3    90  GLN90       0.0905
     17  CD        -9.0960    3.8860   11.1960 C.2    90  GLN90       0.2608
     18  OE1       -9.6700    2.7790   11.1700 O.2    90  GLN90      -0.2717
     19  NE2       -7.8760    4.0250   11.6100 N.am   90  GLN90      -0.0878
     20  N        -11.1770   -0.5480   10.8670 N.3    92  HIS92      -0.1241
     21  CA       -10.3020   -1.5500   10.2710 C.3    92  HIS92       0.1621
     22  C        -10.3760   -2.7730   11.0750 C.2    92  HIS92       0.2264
     23  O        -11.0330   -2.8410   12.1190 O.2    92  HIS92      -0.2867
     24  CB        -8.8440   -1.0590   10.1790 C.3    92  HIS92       0.0745
     25  CG        -8.3170   -0.7430   11.5360 C.ar   92  HIS92       0.0817
     26  ND1       -8.5270    0.4760   12.1820 N.ar   92  HIS92      -0.2268
     27  CD2       -7.6730   -1.5580   12.4240 C.ar   92  HIS92       0.1154
     28  CE1       -7.9670    0.4170   13.3900 C.ar   92  HIS92       0.1986
     29  NE2       -7.4620   -0.8190   13.5730 N.ar   92  HIS92      -0.2212
     30  N         -8.0390   -6.5100   12.3830 N.3    94  HIS94      -0.1241
     31  CA        -6.8050   -7.2640   12.5540 C.3    94  HIS94       0.1621
     32  C         -7.2200   -8.7230   12.4840 C.2    94  HIS94       0.2264
     33  O         -8.3010   -9.0920   12.9840 O.2    94  HIS94      -0.2867
     34  CB        -6.1110   -7.0160   13.9280 C.3    94  HIS94       0.0745
     35  CG        -5.8820   -5.5850   14.1980 C.ar   94  HIS94       0.0817
     36  ND1       -4.6470   -5.0370   13.9610 N.ar   94  HIS94      -0.2268
     37  CD2       -6.6830   -4.5810   14.6100 C.ar   94  HIS94       0.1154
     38  CE1       -4.7040   -3.7230   14.2350 C.ar   94  HIS94       0.1986
     39  NE2       -5.9390   -3.4180   14.5930 N.ar   94  HIS94      -0.2212
     40  N        -11.9740   -2.7230   14.7570 N.3   117  HIS117     -0.1241
     41  CA       -11.7790   -1.5280   15.5430 C.3   117  HIS117      0.1621
     42  C        -12.4630   -0.3650   14.8440 C.2   117  HIS117      0.2264
     43  O        -12.0630    0.0260   13.7220 O.2   117  HIS117     -0.2867
     44  CB       -10.2750   -1.2240   15.6370 C.3   117  HIS117      0.0745
     45  CG        -9.5880   -2.1690   16.5260 C.ar  117  HIS117      0.0817
     46  ND1       -8.2290   -2.3870   16.4840 N.ar  117  HIS117     -0.2268
     47  CD2      -10.0680   -3.0140   17.4550 C.ar  117  HIS117      0.1154
     48  CE1       -7.9050   -3.2950   17.3910 C.ar  117  HIS117      0.1986
     49  NE2       -8.9900   -3.6690   18.0350 N.ar  117  HIS117     -0.2212
     50  N        -12.7470    3.4260   15.1330 N.3   119  VAL119     -0.1245
     51  CA       -11.8880    4.4590   15.7670 C.3   119  VAL119      0.1561
     52  C        -12.6310    5.7820   15.7690 C.2   119  VAL119      0.2260
     53  O        -13.1100    6.2820   14.7110 O.2   119  VAL119     -0.2867
     54  CB       -10.6040    4.5430   14.9420 C.3   119  VAL119      0.0252
     55  CG1       -9.6490    5.6300   15.5480 C.3   119  VAL119      0.0019
     56  CG2       -9.9100    3.1650   14.8110 C.3   119  VAL119      0.0019
     57  N         -8.1530   14.9750   14.5990 N.3   128  PHE128     -0.1227
     58  CA        -7.6570   13.6890   15.0210 C.3   128  PHE128      0.1736
     59  C         -6.2380   13.7460   15.4370 C.2   128  PHE128      0.2596
     60  O         -5.7950   13.0790   16.3960 O.2   128  PHE128     -0.2718
     61  CB        -7.8520   12.7830   13.8260 C.3   128  PHE128      0.0547
     62  CG        -7.3960   11.3550   14.0480 C.ar  128  PHE128     -0.0202
     63  CD1       -8.0800   10.5230   14.8970 C.ar  128  PHE128     -0.0042
     64  CD2       -6.2540   10.8750   13.5210 C.ar  128  PHE128     -0.0042
     65  CE1       -7.7910    9.2260   15.0320 C.ar  128  PHE128     -0.0003
     66  CE2       -5.8940    9.5250   13.7420 C.ar  128  PHE128     -0.0003
     67  CZ        -6.7050    8.7130   14.4750 C.ar  128  PHE128     -0.0000
     68  N         -5.3350   14.4870   14.6970 N.am  129  GLY129     -0.1957
     69  CA        -3.9630   14.6120   15.0640 C.3   129  GLY129      0.1869
     70  C         -3.7140   15.2400   16.4300 C.2   129  GLY129      0.2309
     71  O         -2.7900   14.8960   17.1310 O.2   129  GLY129     -0.2863
     72  N         -4.8540   12.4920   19.2440 N.3   132  VAL132     -0.1245
     73  CA        -4.0070   11.3790   19.6540 C.3   132  VAL132      0.1561
     74  C         -2.8910   11.7900   20.6120 C.2   132  VAL132      0.2260
     75  O         -2.2140   10.9460   21.1510 O.2   132  VAL132     -0.2867
     76  CB        -3.3520   10.6330   18.4430 C.3   132  VAL132      0.0252
     77  CG1       -4.4280   10.0670   17.5450 C.3   132  VAL132      0.0019
     78  CG2       -2.4250   11.5660   17.6140 C.3   132  VAL132      0.0019
     79  N         -8.9980    9.4580   22.0590 N.3   138  LEU138     -0.1197
     80  CA        -9.6960    8.4910   21.1760 C.3   138  LEU138      0.1775
     81  C        -10.5540    7.5340   21.9820 C.2   138  LEU138      0.2305
     82  O        -10.2490    7.2610   23.1430 O.2   138  LEU138     -0.2863
     83  CB        -8.6550    7.6350   20.4410 C.2   138  LEU138     -0.0081
     84  CG        -7.9470    8.2050   19.2800 C.2   138  LEU138     -0.0460
     85  CD1       -7.2070    7.1670   18.4380 C.3   138  LEU138      0.0261
     86  CD2       -8.1450    9.5160   18.6180 C.3   138  LEU138      0.0261
     87  N        -11.8870    3.6410   20.9980 N.3   140  VAL140     -0.1245
     88  CA       -11.9220    2.6500   19.9510 C.3   140  VAL140      0.1561
     89  C        -12.8720    1.5660   20.4510 C.2   140  VAL140      0.2260
     90  O        -12.7260    1.0450   21.6000 O.2   140  VAL140     -0.2867
     91  CB       -10.5210    2.0370   19.6260 C.3   140  VAL140      0.0252
     92  CG1      -10.6930    1.0310   18.4820 C.3   140  VAL140      0.0019
     93  CG2       -9.5620    3.0990   19.1610 C.3   140  VAL140      0.0019
     94  N         -2.9830    3.0980   21.1470 N.3   195  LEU195     -0.1231
     95  CA        -2.9810    2.5710   19.7860 C.3   195  LEU195      0.1693
     96  C         -2.3060    1.2370   19.8120 C.2   195  LEU195      0.2593
     97  O         -1.2280    1.0720   20.4750 O.2   195  LEU195     -0.2718
     98  CB        -2.2590    3.5190   18.8280 C.3   195  LEU195      0.0284
     99  CG        -2.7060    4.9780   18.8700 C.3   195  LEU195      0.0019
    100  CD1       -1.8850    5.7670   17.8460 C.3   195  LEU195      0.0001
    101  CD2       -4.1910    5.1100   18.5390 C.3   195  LEU195      0.0001
    102  N         -2.7010    0.2790   19.0040 N.am  196  THR196     -0.1939
    103  CA        -2.0480   -1.0530   18.9600 C.3   196  THR196      0.2028
    104  C         -1.0250   -1.1420   17.8310 C.2   196  THR196      0.2643
    105  O         -0.4480   -2.2120   17.6780 O.2   196  THR196     -0.2714
    106  CB        -3.0050   -2.2030   18.8450 C.3   196  THR196      0.1808
    107  OG1       -3.6320   -2.1140   17.5520 O.3   196  THR196     -0.2208
    108  CG2       -4.0930   -2.1600   19.9570 C.3   196  THR196      0.0379
    109  N         -0.8630   -0.0700   17.0350 N.am  197  THR197     -0.1937
    110  CA         0.2650   -0.0100   16.0630 C.3   197  THR197      0.2013
    111  C          1.0240    1.2600   16.3680 C.2   197  THR197      0.2484
    112  O          0.4910    2.2140   16.9360 O.2   197  THR197     -0.2729
    113  CB        -0.2360    0.0470   14.6110 C.3   197  THR197      0.1807
    114  OG1       -1.0950    1.1610   14.4070 O.3   197  THR197     -0.2208
    115  CG2       -0.9990   -1.1650   14.2350 C.3   197  THR197      0.0379
    116  N          2.3030    1.2890   15.9220 N.am  198  PRO198     -0.2715
    117  CA         3.0380    2.5590   16.0160 C.3   198  PRO198      0.1521
    118  C          2.2510    3.7000   15.4710 C.2   198  PRO198      0.2440
    119  O          1.5930    3.5430   14.3920 O.2   198  PRO198     -0.2731
    120  CB         4.3120    2.2270   15.1440 C.3   198  PRO198      0.0310
    121  CG         4.5350    0.7800   15.4470 C.3   198  PRO198      0.0237
    122  CD         3.1130    0.1850   15.3660 C.3   198  PRO198      0.0939
    123  N          2.1820    4.8740   16.0700 N.am  199  PRO199     -0.2727
    124  CA         3.1000    5.2920   17.1560 C.3   199  PRO199      0.1402
    125  C          2.7320    4.8550   18.5930 C.2   199  PRO199      0.2269
    126  O          3.3950    5.3170   19.5140 O.2   199  PRO199     -0.2865
    127  CB         3.0750    6.8350   17.0230 C.3   199  PRO199      0.0296
    128  CG         1.6950    7.1190   16.5100 C.3   199  PRO199      0.0237
    129  CD         1.3690    6.0190   15.5090 C.3   199  PRO199      0.0939
    130  N          0.5270    5.4530   20.7420 N.3   201  LEU201     -0.1245
    131  CA         0.2640    6.5360   21.6820 C.3   201  LEU201      0.1561
    132  C         -0.7440    6.1160   22.7080 C.2   201  LEU201      0.2260
    133  O         -1.7870    5.4550   22.3980 O.2   201  LEU201     -0.2867
    134  CB        -0.1490    7.8050   20.9210 C.3   201  LEU201      0.0270
    135  CG         0.8860    8.3780   19.9350 C.3   201  LEU201      0.0019
    136  CD1        0.3030    9.4300   19.0540 C.3   201  LEU201      0.0001
    137  CD2        2.0720    8.9750   20.6670 C.3   201  LEU201      0.0001
    138  N        -10.4930    2.2630   25.5760 N.3   206  TRP206     -0.1241
    139  CA       -10.9070    1.0560   24.8650 C.3   206  TRP206      0.1605
    140  C        -12.2520    0.5840   25.3730 C.2   206  TRP206      0.2264
    141  O        -12.4990    0.5620   26.5920 O.2   206  TRP206     -0.2867
    142  CB        -9.8910   -0.1000   25.1120 C.3   206  TRP206      0.0550
    143  CG        -8.7990   -0.0050   24.1090 C.ar  206  TRP206      0.0003
    144  CD1       -7.5630    0.5830   24.2950 C.ar  206  TRP206      0.0946
    145  CD2       -8.8470   -0.4210   22.7310 C.ar  206  TRP206      0.0152
    146  NE1       -6.8740    0.5760   23.1060 N.ar  206  TRP206     -0.2442
    147  CE2       -7.6380   -0.0140   22.1280 C.ar  206  TRP206      0.0810
    148  CE3       -9.8070   -1.0840   21.9650 C.ar  206  TRP206      0.0012
    149  CZ2       -7.3650   -0.2880   20.8020 C.ar  206  TRP206      0.0191
    150  CZ3       -9.5530   -1.3350   20.6480 C.ar  206  TRP206      0.0001
    151  CH2       -8.3150   -0.9610   20.0860 C.ar  206  TRP206      0.0015
@<TRIPOS>BOND
     1     1     2    1
     2     2     3    1
     3     2     5    1
     4     3     4    2
     5     8    10   ar
     6     8     6   ar
     7     5     6    1
     8    10     9   ar
     9     6     7   ar
    10    15    12    1
    11    15    16    1
    12     9     7   ar
    13    24    21    1
    14    24    25    1
    15    21    20    1
    16    21    22    1
    17    12    13    1
    18    12    11    1
    19    16    17    1
    20    13    14    2
    21    22    23    2
    22    18    17    2
    23    17    19   am
    24    25    26   ar
    25    25    27   ar
    26    26    28   ar
    27    30    31    1
    28    27    29   ar
    29    32    31    1
    30    32    33    2
    31    31    34    1
    32    28    29   ar
    33    64    66   ar
    34    64    62   ar
    35    43    42    2
    36    66    67   ar
    37    61    62    1
    38    61    58    1
    39    34    35    1
    40    36    35   ar
    41    36    38   ar
    42    62    63   ar
    43    35    37   ar
    44   115   113    1
    45    38    39   ar
    46   119   118    2
    47   114   113    1
    48    67    65   ar
    49    39    37   ar
    50    57    58    1
    51   113   110    1
    52    68    69    1
    53    68    59   am
    54    53    52    2
    55    40    41    1
    56    56    54    1
    57    42    41    1
    58    63    65   ar
    59    54    55    1
    60    54    51    1
    61    58    59    1
    62    69    70    1
    63    50    51    1
    64   120   121    1
    65   120   117    1
    66   122   121    1
    67   122   116    1
    68    59    60    2
    69   118   117    1
    70   118   123   am
    71   129   123    1
    72   129   128    1
    73    41    44    1
    74    44    45    1
    75    51    52    1
    76   116   117    1
    77   116   111   am
    78   110   111    1
    79   110   109    1
    80   123   124    1
    81   111   112    2
    82    70    71    2
    83    46    45   ar
    84    46    48   ar
    85   128   127    1
    86    45    47   ar
    87   127   124    1
    88   109   104   am
    89   124   125    1
    90    48    49   ar
    91    47    49   ar
    92    77    76    1
    93   107   106    1
    94    78    76    1
    95   105   104    2
    96   104   103    1
    97   100    99    1
    98    85    84    1
    99    76    73    1
   100    92    91    1
   101   101    99    1
   102   125   126    2
   103    86    84    1
   104    98    99    1
   105    98    95    1
   106   106   103    1
   107   106   108    1
   108   103   102    1
   109   102    96   am
   110   136   135    1
   111    93    91    1
   112    72    73    1
   113    84    83    2
   114    91    88    1
   115    73    74    1
   116    95    96    1
   117    95    94    1
   118    96    97    2
   119   135   137    1
   120   135   134    1
   121    88    89    1
   122    88    87    1
   123   151   150   ar
   124   151   149   ar
   125    83    80    1
   126    89    90    2
   127    74    75    2
   128   150   148   ar
   129   130   131    1
   130   149   147   ar
   131   134   131    1
   132    80    81    1
   133    80    79    1
   134   131   132    1
   135   148   145   ar
   136    81    82    2
   137   147   145   ar
   138   147   146   ar
   139   133   132    2
   140   145   143   ar
   141   146   144   ar
   142   143   144   ar
   143   143   142    1
   144   139   142    1
   145   139   140    1
   146   139   138    1
   147   140   141    2
