@<TRIPOS>MOLECULE
tmp/5n1tB00.pdb
 198 189 0 0 0
SMALL
GASTEIGER

@<TRIPOS>ATOM
      1  N          9.6840   -6.5920   -5.8300 N.3     7  LEU7       -0.1245
      2  CA        10.5230   -5.5750   -6.4850 C.3     7  LEU7        0.1561
      3  C          9.7540   -4.2920   -6.6240 C.2     7  LEU7        0.2260
      4  O         10.3170   -3.2100   -6.4100 O.2     7  LEU7       -0.2867
      5  CB        11.0370   -6.0280   -7.8480 C.3     7  LEU7        0.0270
      6  CG        12.1160   -7.1140   -7.8500 C.3     7  LEU7        0.0019
      7  CD1       12.2340   -7.6640   -9.2550 C.3     7  LEU7        0.0001
      8  CD2       13.4860   -6.6590   -7.3400 C.3     7  LEU7        0.0001
      9  N          7.7300   -1.8110   -3.0070 N.3    10  ASN10      -0.1225
     10  CA         8.4380   -0.7540   -2.3310 C.3    10  ASN10       0.1785
     11  C          8.2080    0.6120   -2.9680 C.2    10  ASN10       0.2597
     12  O          8.2150    1.6390   -2.2830 O.2    10  ASN10      -0.2718
     13  CB         9.9190   -1.1240   -2.2120 C.3    10  ASN10       0.1169
     14  CG        10.1700   -2.1650   -1.1190 C.2    10  ASN10       0.2627
     15  OD1        9.9000   -1.9210    0.0560 O.2    10  ASN10      -0.2716
     16  ND2       10.6930   -3.3220   -1.5000 N.am   10  ASN10      -0.0877
     17  N          7.9530    0.6240   -4.2650 N.am   11  CYS11      -0.1970
     18  CA         7.6370    1.8700   -4.9710 C.3    11  CYS11       0.1712
     19  C          6.3770    2.4950   -4.4400 C.2    11  CYS11       0.2296
     20  O          6.2560    3.7170   -4.4240 O.2    11  CYS11      -0.2864
     21  CB         7.4680    1.6260   -6.4720 C.3    11  CYS11       0.0983
     22  SG         8.8010    0.6370   -7.1670 S.3    11  CYS11      -0.0798
     23  N          5.4860    2.4870   -1.4380 N.3    13  GLY13      -0.1210
     24  CA         5.9140    3.1030   -0.1870 C.3    13  GLY13       0.1956
     25  C          5.9910    4.6140   -0.2720 C.2    13  GLY13       0.2612
     26  O          5.4660    5.2950    0.6130 O.2    13  GLY13      -0.2717
     27  N          6.6130    5.1440   -1.3290 N.am   14  CYS14      -0.1956
     28  CA         6.5940    6.6050   -1.5980 C.3    14  CYS14       0.1843
     29  C          5.5250    7.0400   -2.5850 C.2    14  CYS14       0.2625
     30  O          5.0040    8.1550   -2.4580 O.2    14  CYS14      -0.2714
     31  CB         7.8940    7.1220   -2.1940 C.3    14  CYS14       0.0997
     32  SG         9.3960    7.0810   -1.1990 S.3    14  CYS14      -0.0797
     33  N          5.2420    6.1950   -3.5880 N.am   15  HIS15      -0.1973
     34  CA         4.4130    6.6200   -4.7210 C.3    15  HIS15       0.1656
     35  C          2.9020    6.4020   -4.4460 C.2    15  HIS15       0.2291
     36  O          2.0630    6.8210   -5.2470 O.2    15  HIS15      -0.2864
     37  CB         4.9010    6.0180   -6.0670 C.3    15  HIS15       0.0771
     38  CG         6.1110    6.7000   -6.6650 C.ar   15  HIS15       0.0820
     39  ND1        6.0380    7.9050   -7.3460 N.ar   15  HIS15      -0.2267
     40  CD2        7.4150    6.3190   -6.7290 C.ar   15  HIS15       0.1154
     41  CE1        7.2450    8.2480   -7.7790 C.ar   15  HIS15       0.1986
     42  NE2        8.1030    7.3090   -7.4090 N.ar   15  HIS15      -0.2212
     43  N          4.9670   13.7390   -4.3120 N.3    25  ILE25      -0.1231
     44  CA         5.6840   12.7720   -5.1220 C.3    25  ILE25       0.1678
     45  C          4.7090   12.5020   -6.2770 C.2    25  ILE25       0.2434
     46  O          3.5110   12.3590   -6.0350 O.2    25  ILE25      -0.2733
     47  CB         6.0790   11.4850   -4.3070 C.3    25  ILE25       0.0265
     48  CG1        6.9180   11.8320   -3.0440 C.3    25  ILE25       0.0019
     49  CG2        6.8630   10.5040   -5.1820 C.3    25  ILE25       0.0020
     50  CD1        7.3240   10.6550   -2.1550 C.3    25  ILE25       0.0001
     51  N          5.1920   12.5000   -7.5360 N.am   26  PRO26      -0.2718
     52  CA         4.2300   12.2430   -8.6260 C.3    26  PRO26       0.1535
     53  C          3.6150   10.8310   -8.5770 C.2    26  PRO26       0.2599
     54  O          4.1060    9.9630   -7.8230 O.2    26  PRO26      -0.2715
     55  CB         5.0550   12.4680   -9.8960 C.3    26  PRO26       0.0310
     56  CG         6.4730   12.3280   -9.4700 C.3    26  PRO26       0.0237
     57  CD         6.5240   12.8410   -8.0590 C.3    26  PRO26       0.0939
     58  N          2.5220   10.6670   -9.3290 N.am   27  SER27      -0.1936
     59  CA         1.7480    9.4100   -9.4300 C.3    27  SER27       0.2055
     60  C          2.4490    8.4270  -10.3700 C.2    27  SER27       0.2642
     61  O          3.3310    8.8000  -11.1480 O.2    27  SER27      -0.2714
     62  CB         0.3100    9.6500   -9.9260 C.3    27  SER27       0.2130
     63  OG        -0.5190   10.1600   -8.9070 O.3    27  SER27      -0.2179
     64  N          2.0640    7.1650  -10.3000 N.am   28  LEU28      -0.1977
     65  CA         2.7590    6.1650  -11.0780 C.3    28  LEU28       0.1596
     66  C          1.7980    5.4310  -12.0190 C.2    28  LEU28       0.2287
     67  O          2.1520    5.1100  -13.1620 O.2    28  LEU28      -0.2864
     68  CB         3.4840    5.2100  -10.1260 C.3    28  LEU28       0.0297
     69  CG         4.9450    4.9470  -10.4530 C.3    28  LEU28       0.0022
     70  CD1        5.7230    6.2560  -10.4030 C.3    28  LEU28       0.0001
     71  CD2        5.5510    3.8760   -9.5420 C.3    28  LEU28       0.0001
     72  N          0.9320    5.4550  -16.2680 N.3    31  LEU31      -0.1245
     73  CA         2.1970    5.3260  -16.9920 C.3    31  LEU31       0.1561
     74  C          2.3350    3.8780  -17.4040 C.2    31  LEU31       0.2260
     75  O          1.9380    2.9790  -16.6520 O.2    31  LEU31      -0.2867
     76  CB         3.3920    5.6450  -16.0740 C.3    31  LEU31       0.0270
     77  CG         3.8930    7.0390  -15.6690 C.3    31  LEU31       0.0019
     78  CD1        5.2170    6.9410  -14.9170 C.3    31  LEU31       0.0001
     79  CD2        4.0730    7.9280  -16.8870 C.3    31  LEU31       0.0001
     80  N          8.1130    3.8720  -17.4750 N.3    36  ILE36      -0.1245
     81  CA         8.7160    3.5900  -16.1920 C.3    36  ILE36       0.1561
     82  C         10.1470    3.1320  -16.4140 C.2    36  ILE36       0.2260
     83  O         11.0670    3.7690  -15.9130 O.2    36  ILE36      -0.2867
     84  CB         7.9220    2.6010  -15.3320 C.3    36  ILE36       0.0252
     85  CG1        6.5530    3.2240  -14.9410 C.3    36  ILE36       0.0019
     86  CG2        8.7640    2.2210  -14.1050 C.3    36  ILE36       0.0019
     87  CD1        5.5190    2.2650  -14.3210 C.3    36  ILE36       0.0001
     88  N         12.7060    5.7870  -17.7300 N.3    39  THR39      -0.1203
     89  CA        13.0890    6.8510  -16.7610 C.3    39  THR39       0.1994
     90  C         13.7840    6.3710  -15.4850 C.2    39  THR39       0.2617
     91  O         14.6200    7.0880  -14.9370 O.2    39  THR39      -0.2717
     92  CB        11.9660    7.8770  -16.4660 C.3    39  THR39       0.1784
     93  OG1       10.7570    7.1920  -16.1410 O.3    39  THR39      -0.2211
     94  CG2       11.7360    8.7940  -17.7050 C.3    39  THR39       0.0376
     95  N         13.4720    5.1490  -15.0470 N.am   40  MET40      -0.1979
     96  CA        14.2780    4.4540  -14.0460 C.3    40  MET40       0.1605
     97  C         15.7320    4.5360  -14.4720 C.2    40  MET40       0.2287
     98  O         16.5590    5.1090  -13.7580 O.2    40  MET40      -0.2864
     99  CB        13.8770    2.9850  -13.9250 C.3    40  MET40       0.0413
    100  CG        12.5680    2.7190  -13.2190 C.3    40  MET40       0.0598
    101  SD        12.6890    3.1790  -11.4960 S.3    40  MET40      -0.1393
    102  CE        13.1610    1.6060  -10.7840 C.3    40  MET40       0.0692
    103  N         17.2070    8.0150  -14.4940 N.3    43  PHE43      -0.1241
    104  CA        17.5380    8.4670  -13.1460 C.3    43  PHE43       0.1605
    105  C         18.8230    7.7820  -12.7110 C.2    43  PHE43       0.2264
    106  O         19.7370    8.4320  -12.1740 O.2    43  PHE43      -0.2867
    107  CB        16.4230    8.1090  -12.1720 C.3    43  PHE43       0.0534
    108  CG        15.2460    9.0620  -12.1720 C.ar   43  PHE43      -0.0203
    109  CD1       15.4260   10.4410  -12.1210 C.ar   43  PHE43      -0.0042
    110  CD2       13.9370    8.5620  -12.1630 C.ar   43  PHE43      -0.0042
    111  CE1       14.3270   11.3010  -12.0780 C.ar   43  PHE43      -0.0003
    112  CE2       12.8400    9.4070  -12.1210 C.ar   43  PHE43      -0.0003
    113  CZ        13.0250   10.7830  -12.0800 C.ar   43  PHE43      -0.0000
    114  N         18.5540   12.0560  -16.1120 N.3    48  ARG48      -0.1231
    115  CA        17.4650   12.7310  -15.4460 C.3    48  ARG48       0.1694
    116  C         17.8690   12.9150  -13.9650 C.2    48  ARG48       0.2592
    117  O         18.1560   11.9330  -13.2510 O.2    48  ARG48      -0.2718
    118  CB        16.1800   11.9240  -15.6280 C.3    48  ARG48       0.0321
    119  CG        15.0050   12.7900  -15.9530 C.3    48  ARG48       0.0489
    120  CD        13.7510   11.9770  -16.1010 C.3    48  ARG48       0.2205
    121  NE        12.6810   12.6560  -15.3800 N.pl3  48  ARG48      -0.0865
    122  CZ        11.3750   12.4930  -15.5810 C.cat  48  ARG48       0.5346
    123  NH1       10.9160   11.6620  -16.5110 N.pl3  48  ARG48       0.1354
    124  NH2       10.5160   13.1890  -14.8470 N.pl3  48  ARG48       0.1354
    125  N         17.9530   14.1880  -13.5570 N.am   49  GLU49      -0.1966
    126  CA        18.3010   14.6400  -12.1930 C.3    49  GLU49       0.1733
    127  C         17.2460   14.1730  -11.1900 C.2    49  GLU49       0.2617
    128  O         16.0420   14.3240  -11.4480 O.2    49  GLU49      -0.2715
    129  CB        18.3630   16.1760  -12.1620 C.3    49  GLU49       0.0429
    130  CG        19.4880   16.7840  -12.9810 C.3    49  GLU49       0.1163
    131  CD        20.7880   16.8190  -12.2120 C.2    49  GLU49       0.3649
    132  OE1       20.9670   17.7540  -11.3880 O.co2  49  GLU49      -0.2457
    133  OE2       21.6160   15.8980  -12.4240 O.co2  49  GLU49      -0.2457
    134  N         17.6690   13.6050  -10.0630 N.am   50  SER50      -0.1936
    135  CA        16.6900   13.2280   -9.0250 C.3    50  SER50       0.2055
    136  C         17.0360   13.8490   -7.6810 C.2    50  SER50       0.2644
    137  O         18.1830   14.2460   -7.4740 O.2    50  SER50      -0.2714
    138  CB        16.5770   11.7130   -8.9020 C.3    50  SER50       0.2130
    139  OG        17.7350   11.1510   -8.3300 O.3    50  SER50      -0.2179
    140  N         16.0470   13.9720   -6.7930 N.am   51  THR51      -0.1936
    141  CA        16.3400   14.1980   -5.3660 C.3    51  THR51       0.2028
    142  C         16.6550   12.8990   -4.6700 C.2    51  THR51       0.2642
    143  O         17.5200   12.8720   -3.8250 O.2    51  THR51      -0.2714
    144  CB        15.2320   14.9090   -4.5800 C.3    51  THR51       0.1808
    145  OG1       13.9480   14.4870   -5.0550 O.3    51  THR51      -0.2208
    146  CG2       15.3460   16.3880   -4.7390 C.3    51  THR51       0.0379
    147  N         15.9690   11.8260   -5.0430 N.am   52  VAL52      -0.1963
    148  CA        16.1580   10.5130   -4.4150 C.3    52  VAL52       0.1727
    149  C         16.0450    9.3430   -5.3980 C.2    52  VAL52       0.2616
    150  O         16.4480    8.2260   -5.0760 O.2    52  VAL52      -0.2715
    151  CB        15.1720   10.3170   -3.2520 C.3    52  VAL52       0.0290
    152  CG1       13.7390   10.0920   -3.7620 C.3    52  VAL52       0.0023
    153  CG2       15.6590    9.2300   -2.3090 C.3    52  VAL52       0.0023
    154  N         15.5090    9.6020   -6.5950 N.am   53  MET53      -0.1977
    155  CA        15.2960    8.5150   -7.5540 C.3    53  MET53       0.1605
    156  C         16.5230    7.7560   -8.0330 C.2    53  MET53       0.2287
    157  O         16.4330    6.5530   -8.2330 O.2    53  MET53      -0.2864
    158  CB        14.3820    8.9020   -8.7050 C.3    53  MET53       0.0413
    159  CG        12.8910    8.7690   -8.3630 C.3    53  MET53       0.0598
    160  SD        12.2100    7.1490   -7.8730 S.3    53  MET53      -0.1393
    161  CE        12.8760    6.0280   -9.0900 C.3    53  MET53       0.0692
    162  N         17.5030    5.2890   -5.3110 N.3    56  GLN56      -0.1245
    163  CA        16.6180    4.1440   -5.3860 C.3    56  GLN56       0.1566
    164  C         16.8880    3.3250   -6.6600 C.2    56  GLN56       0.2260
    165  O         17.2320    2.1370   -6.5680 O.2    56  GLN56      -0.2867
    166  CB        15.1550    4.6020   -5.3000 C.3    56  GLN56       0.0367
    167  CG        14.6460    4.9380   -3.9000 C.3    56  GLN56       0.0905
    168  CD        14.6510    3.7200   -3.0070 C.2    56  GLN56       0.2608
    169  OE1       13.9960    2.7270   -3.3080 O.2    56  GLN56      -0.2717
    170  NE2       15.4170    3.7770   -1.9060 N.am   56  GLN56      -0.0878
    171  N         18.6730   -1.1920   -8.2660 N.3    60  TYR60      -0.1241
    172  CA        18.1920   -2.2650   -9.1300 C.3    60  TYR60       0.1605
    173  C         19.0190   -2.5050  -10.3790 C.2    60  TYR60       0.2264
    174  O         19.6040   -1.5770  -10.9500 O.2    60  TYR60      -0.2867
    175  CB        16.7720   -1.9760   -9.5430 C.3    60  TYR60       0.0534
    176  CG        15.8700   -1.7230   -8.3940 C.ar   60  TYR60      -0.0201
    177  CD1       15.3960   -2.7860   -7.6050 C.ar   60  TYR60      -0.0009
    178  CD2       15.5010   -0.4320   -8.0670 C.ar   60  TYR60      -0.0009
    179  CE1       14.5650   -2.5620   -6.5300 C.ar   60  TYR60       0.0417
    180  CE2       14.6730   -0.1970   -6.9980 C.ar   60  TYR60       0.0417
    181  CZ        14.2030   -1.2550   -6.2370 C.ar   60  TYR60       0.1957
    182  OH        13.3510   -0.9940   -5.1780 O.3    60  TYR60      -0.2866
    183  N          9.8710   -4.5170  -12.6190 N.3    68  ILE68      -0.1245
    184  CA         9.1920   -3.4620  -11.8600 C.3    68  ILE68       0.1561
    185  C          8.2790   -2.6830  -12.8010 C.2    68  ILE68       0.2260
    186  O          7.0960   -2.4330  -12.4890 O.2    68  ILE68      -0.2867
    187  CB        10.2240   -2.5220  -11.1750 C.3    68  ILE68       0.0252
    188  CG1       10.8650   -3.2180  -10.0000 C.3    68  ILE68       0.0019
    189  CG2        9.6110   -1.2130  -10.6800 C.3    68  ILE68       0.0019
    190  CD1       12.2880   -2.7580   -9.7890 C.3    68  ILE68       0.0001
    191  N          4.0600   -2.6880  -12.4030 N.3    72  ILE72      -0.1245
    192  CA         3.3040   -1.4800  -12.0310 C.3    72  ILE72       0.1561
    193  C          2.2400   -1.1220  -13.0800 C.2    72  ILE72       0.2260
    194  O          1.0810   -0.9170  -12.7250 O.2    72  ILE72      -0.2867
    195  CB         4.2110   -0.2970  -11.6040 C.3    72  ILE72       0.0252
    196  CG1        4.8580   -0.6160  -10.2520 C.3    72  ILE72       0.0019
    197  CG2        3.4240    0.9960  -11.4740 C.3    72  ILE72       0.0019
    198  CD1        6.1750    0.0960  -10.0320 C.3    72  ILE72       0.0001
@<TRIPOS>BOND
     1    88    89    1
     2    94    92    1
     3    80    81    1
     4    74    73    1
     5    74    75    2
     6    73    72    1
     7    73    76    1
     8    79    77    1
     9    89    92    1
    10    89    90    1
    11   123   122    1
    12    92    93    1
    13    82    81    1
    14    82    83    2
    15    81    84    1
    16   114   115    1
    17   120   119    1
    18   120   121    1
    19    76    77    1
    20   119   118    1
    21    77    78    1
    22   118   115    1
    23   122   121    2
    24   122   124    1
    25    90    95   am
    26    90    91    2
    27   115   116    1
    28    84    85    1
    29    84    86    1
    30    95    96    1
    31    85    87    1
    32   103   104    1
    33    97    96    1
    34    97    98    2
    35    96    99    1
    36   116   125   am
    37   116   117    2
    38    99   100    1
    39   125   126    1
    40   100   101    1
    41    67    66    2
    42   104   105    1
    43   104   107    1
    44   193   194    2
    45   193   192    1
    46   130   131    1
    47   130   129    1
    48   185   186    2
    49   185   184    1
    50   105   106    2
    51   183   184    1
    52   133   131   ar
    53   191   192    1
    54   131   132   ar
    55   126   129    1
    56   126   127    1
    57   107   108    1
    58   108   110   ar
    59   108   109   ar
    60   110   112   ar
    61   109   111   ar
    62   112   113   ar
    63   113   111   ar
    64   192   195    1
    65    66    65    1
    66   184   187    1
    67   195   197    1
    68   195   196    1
    69   101   102    1
    70   128   127    2
    71   127   134   am
    72   187   189    1
    73   187   188    1
    74    61    60    2
    75    65    64    1
    76    65    68    1
    77   174   173    2
    78    69    70    1
    79    69    68    1
    80    69    71    1
    81   173   172    1
    82    60    64   am
    83    60    59    1
    84   196   198    1
    85   134   135    1
    86   188   190    1
    87    62    59    1
    88    62    63    1
    89    55    56    1
    90    55    52    1
    91   175   172    1
    92   175   176    1
    93    56    57    1
    94    59    58    1
    95    58    53   am
    96     7     6    1
    97   172   171    1
    98   161   160    1
    99   135   138    1
   100   135   136    1
   101   138   139    1
   102   158   159    1
   103   158   155    1
   104    52    53    1
   105    52    51    1
   106    53    54    2
   107   176   178   ar
   108   176   177   ar
   109   159   160    1
   110   157   156    2
   111   178   180   ar
   112    57    51    1
   113   156   155    1
   114     6     5    1
   115     6     8    1
   116     5     2    1
   117    41    42   ar
   118    41    39   ar
   119   136   137    2
   120   136   140   am
   121   177   179   ar
   122   155   154    1
   123    51    45   am
   124    42    40   ar
   125    39    38   ar
   126    22    21    1
   127   180   181   ar
   128   140   141    1
   129    40    38   ar
   130    38    37    1
   131   164   165    2
   132   164   163    1
   133     3     2    1
   134     3     4    2
   135   154   149   am
   136   179   181   ar
   137     2     1    1
   138    21    18    1
   139    45    46    2
   140    45    44    1
   141   181   182    1
   142    37    34    1
   143   149   150    2
   144   149   148    1
   145   163   162    1
   146   163   166    1
   147   141   142    1
   148   141   144    1
   149   166   167    1
   150    36    35    2
   151    49    47    1
   152    44    43    1
   153    44    47    1
   154   145   144    1
   155   147   142   am
   156   147   148    1
   157    18    19    1
   158    18    17    1
   159   146   144    1
   160    34    35    1
   161    34    33    1
   162   142   143    2
   163    19    20    2
   164   148   151    1
   165    47    48    1
   166    17    11   am
   167   167   168    1
   168   152   151    1
   169    33    29   am
   170   169   168    2
   171   151   153    1
   172    48    50    1
   173   168   170   am
   174     9    10    1
   175    11    10    1
   176    11    12    2
   177    29    30    2
   178    29    28    1
   179    10    13    1
   180    13    14    1
   181    31    28    1
   182    31    32    1
   183    28    27    1
   184    16    14   am
   185    23    24    1
   186    27    25   am
   187    14    15    2
   188    25    24    1
   189    25    26    2
