@<TRIPOS>MOLECULE
tmp/5n1vA00.pdb
 182 172 0 0 0
SMALL
GASTEIGER

@<TRIPOS>ATOM
      1  N        -78.9170   13.8990   -1.8350 N.3    42  ARG42      -0.1245
      2  CA       -77.9640   13.3980   -2.8390 C.3    42  ARG42       0.1563
      3  C        -76.5570   13.1970   -2.2790 C.2    42  ARG42       0.2260
      4  O        -76.2340   13.7280   -1.2200 O.2    42  ARG42      -0.2867
      5  CB       -77.9260   14.3090   -4.0960 C.3    42  ARG42       0.0307
      6  CG       -77.4970   15.7520   -3.8260 C.3    42  ARG42       0.0489
      7  CD       -77.9780   16.6590   -4.9340 C.3    42  ARG42       0.2205
      8  NE       -77.3650   17.9860   -4.8690 N.pl3  42  ARG42      -0.0865
      9  CZ       -76.2100   18.3120   -5.4400 C.cat  42  ARG42       0.5346
     10  NH1      -75.5120   17.4020   -6.1120 N.pl3  42  ARG42       0.1354
     11  NH2      -75.7360   19.5480   -5.3330 N.pl3  42  ARG42       0.1354
     12  N        -72.5520   13.8610   -2.2360 N.3    44  LEU44      -0.1231
     13  CA       -71.6100   14.9350   -2.5430 C.3    44  LEU44       0.1693
     14  C        -70.2110   14.3830   -2.7990 C.2    44  LEU44       0.2593
     15  O        -69.4050   15.0440   -3.4520 O.2    44  LEU44      -0.2718
     16  CB       -71.5800   16.0180   -1.4520 C.3    44  LEU44       0.0284
     17  CG       -72.8710   16.8200   -1.2370 C.3    44  LEU44       0.0019
     18  CD1      -72.7470   17.6940   -0.0310 C.3    44  LEU44       0.0001
     19  CD2      -73.2140   17.6640   -2.4370 C.3    44  LEU44       0.0001
     20  N        -69.9410   13.1710   -2.3200 N.am   45  GLY45      -0.1942
     21  CA       -68.6470   12.5210   -2.4940 C.3    45  GLY45       0.2014
     22  C        -68.4210   11.3100   -1.6120 C.2    45  GLY45       0.2639
     23  O        -69.3600   10.7820   -1.0030 O.2    45  GLY45      -0.2714
     24  N        -67.1640   10.8350   -1.5760 N.am   46  ARG46      -0.1963
     25  CA       -66.7540    9.6720   -0.7810 C.3    46  ARG46       0.1729
     26  C        -65.3550    9.9080   -0.2470 C.2    46  ARG46       0.2616
     27  O        -64.4180   10.0600   -1.0350 O.2    46  ARG46      -0.2715
     28  CB       -66.7310    8.3630   -1.6150 C.3    46  ARG46       0.0348
     29  CG       -67.9040    8.1100   -2.5630 C.3    46  ARG46       0.0492
     30  CD       -67.8030    6.7720   -3.2710 C.3    46  ARG46       0.2205
     31  NE       -66.9430    6.8410   -4.4540 N.pl3  46  ARG46      -0.0865
     32  CZ       -66.7590    5.8400   -5.3090 C.cat  46  ARG46       0.5346
     33  NH1      -67.3810    4.6790   -5.1300 N.pl3  46  ARG46       0.1354
     34  NH2      -65.9560    5.9920   -6.3540 N.pl3  46  ARG46       0.1354
     35  N        -65.2310    9.9280    1.0770 N.am   47  GLY47      -0.1955
     36  CA       -63.9600   10.0220    1.7910 C.3    47  GLY47       0.1869
     37  C        -63.3590    8.6370    2.0060 C.2    47  GLY47       0.2309
     38  O        -63.9250    7.6350    1.5320 O.2    47  GLY47      -0.2863
     39  N        -70.3370   10.9680    1.8630 N.3    52  VAL52      -0.1245
     40  CA       -70.8620   12.3140    2.1270 C.3    52  VAL52       0.1561
     41  C        -72.1220   12.6390    1.2990 C.2    52  VAL52       0.2260
     42  O        -72.1740   12.4310    0.0810 O.2    52  VAL52      -0.2867
     43  CB       -69.7560   13.3850    1.9900 C.3    52  VAL52       0.0252
     44  CG1      -70.2620   14.7590    2.3950 C.3    52  VAL52       0.0019
     45  CG2      -68.5430   13.0030    2.8320 C.3    52  VAL52       0.0019
     46  N        -75.7880   15.4240    0.9500 N.3    54  GLU54      -0.1245
     47  CA       -76.5060   16.6380    1.2300 C.3    54  GLU54       0.1567
     48  C        -77.7950   16.1010    1.7890 C.2    54  GLU54       0.2260
     49  O        -78.3850   15.1750    1.2230 O.2    54  GLU54      -0.2867
     50  CB       -76.7780   17.4420   -0.0330 C.3    54  GLU54       0.0388
     51  CG       -77.6900   18.6320    0.2040 C.3    54  GLU54       0.1160
     52  CD       -78.2670   19.2180   -1.0640 C.2    54  GLU54       0.3649
     53  OE1      -77.4760   19.6810   -1.9160 O.co2  54  GLU54      -0.2457
     54  OE2      -79.5110   19.2520   -1.1890 O.co2  54  GLU54      -0.2457
     55  N        -80.5750   22.8600    5.0260 N.3    63  LYS63      -0.1245
     56  CA       -79.5190   22.1450    4.2990 C.3    63  LYS63       0.1561
     57  C        -78.3360   21.8540    5.2040 C.2    63  LYS63       0.2260
     58  O        -77.7540   22.7720    5.7760 O.2    63  LYS63      -0.2867
     59  CB       -79.0600   23.0010    3.1010 C.3    63  LYS63       0.0271
     60  CG       -78.9770   22.2930    1.7660 C.3    63  LYS63       0.0035
     61  CD       -78.6980   23.3310    0.6680 C.3    63  LYS63       0.0206
     62  CE       -78.2400   22.7460   -0.6470 C.3    63  LYS63       0.1093
     63  NZ       -77.4540   23.7230   -1.4550 N.3    63  LYS63      -0.1314
     64  N        -74.8030   18.7620    5.7730 N.3    65  VAL65      -0.1245
     65  CA       -73.9210   17.7800    5.1370 C.3    65  VAL65       0.1561
     66  C        -73.8120   16.5530    6.0890 C.2    65  VAL65       0.2260
     67  O        -73.4510   16.7060    7.2620 O.2    65  VAL65      -0.2867
     68  CB       -72.5510   18.4030    4.7490 C.3    65  VAL65       0.0252
     69  CG1      -71.4520   17.3430    4.5910 C.3    65  VAL65       0.0019
     70  CG2      -72.6760   19.2480    3.4840 C.3    65  VAL65       0.0019
     71  N        -71.9770   13.0330    6.8820 N.3    67  LYS67      -0.1245
     72  CA       -70.7960   12.1950    6.6440 C.3    67  LYS67       0.1561
     73  C        -71.0570   10.8620    7.3490 C.2    67  LYS67       0.2260
     74  O        -70.9390   10.7850    8.5780 O.2    67  LYS67      -0.2867
     75  CB       -69.4930   12.8630    7.1490 C.3    67  LYS67       0.0271
     76  CG       -68.9430   13.9650    6.2320 C.3    67  LYS67       0.0035
     77  CD       -67.6300   14.6350    6.7150 C.3    67  LYS67       0.0206
     78  CE       -66.3830   13.7560    6.7310 C.3    67  LYS67       0.1093
     79  NZ       -65.5280   13.9830    7.9400 N.3    67  LYS67      -0.1314
     80  N        -65.6630   24.7500   10.7600 N.3    94  ILE94      -0.1245
     81  CA       -66.9350   24.0980   10.4380 C.3    94  ILE94       0.1561
     82  C        -67.6790   23.7100   11.7350 C.2    94  ILE94       0.2260
     83  O        -67.0520   23.3770   12.7480 O.2    94  ILE94      -0.2867
     84  CB       -66.7270   22.9070    9.4570 C.3    94  ILE94       0.0252
     85  CG1      -68.0470   22.4550    8.7930 C.3    94  ILE94       0.0019
     86  CG2      -65.9770   21.7280   10.1040 C.3    94  ILE94       0.0019
     87  CD1      -68.6010   23.3960    7.6590 C.3    94  ILE94       0.0001
     88  N        -72.9520   18.1230    9.6220 N.3   112  PHE112     -0.1227
     89  CA       -72.2290   19.3890    9.5860 C.3   112  PHE112      0.1736
     90  C        -73.0050   20.4850    8.9370 C.2   112  PHE112      0.2598
     91  O        -73.9220   20.2420    8.1600 O.2   112  PHE112     -0.2717
     92  CB       -70.9240   19.2380    8.7830 C.3   112  PHE112      0.0547
     93  CG       -69.8820   18.3730    9.4230 C.ar  112  PHE112     -0.0202
     94  CD1      -69.0100   18.8950   10.3690 C.ar  112  PHE112     -0.0042
     95  CD2      -69.7380   17.0420    9.0510 C.ar  112  PHE112     -0.0042
     96  CE1      -68.0360   18.0940   10.9540 C.ar  112  PHE112     -0.0003
     97  CE2      -68.7610   16.2420    9.6380 C.ar  112  PHE112     -0.0003
     98  CZ       -67.9110   16.7730   10.5800 C.ar  112  PHE112     -0.0000
     99  N        -72.5440   21.7160    9.1970 N.am  113  GLU113     -0.1920
    100  CA       -72.9760   22.9410    8.5610 C.3   113  GLU113      0.1949
    101  C        -72.6670   22.7410    7.0600 C.2   113  GLU113      0.2659
    102  O        -71.6080   22.2170    6.6960 O.2   113  GLU113     -0.2711
    103  CB       -72.1330   24.0800    9.1500 C.2   113  GLU113      0.0111
    104  CG       -72.0620   25.3540    8.3290 C.2   113  GLU113      0.0838
    105  CD       -70.9610   26.3250    8.7080 C.2   113  GLU113      0.3877
    106  OE1      -70.9670   27.4450    8.1500 O.co2 113  GLU113     -0.2406
    107  OE2      -70.1190   25.9880    9.5740 O.co2 113  GLU113     -0.2406
    108  N        -73.6280   23.0730    6.2080 N.am  114  HIS114     -0.1956
    109  CA       -73.4610   22.9580    4.7730 C.3   114  HIS114      0.1787
    110  C        -72.7710   24.2280    4.2600 C.2   114  HIS114      0.2620
    111  O        -73.0960   25.3410    4.6940 O.2   114  HIS114     -0.2715
    112  CB       -74.8300   22.7580    4.0990 C.3   114  HIS114      0.0785
    113  CG       -74.7830   22.6850    2.5990 C.ar  114  HIS114      0.0821
    114  ND1      -74.9830   23.8110    1.8120 N.ar  114  HIS114     -0.2267
    115  CD2      -74.5770   21.6200    1.7910 C.ar  114  HIS114      0.1154
    116  CE1      -74.8620   23.3980    0.5630 C.ar  114  HIS114      0.1986
    117  NE2      -74.6080   22.0900    0.4990 N.ar  114  HIS114     -0.2212
    118  N        -71.7970   24.0460    3.3590 N.am  115  VAL115     -0.1963
    119  CA       -71.0990   25.1210    2.6640 C.3   115  VAL115      0.1727
    120  C        -71.2980   24.8480    1.1640 C.2   115  VAL115      0.2616
    121  O        -70.8250   23.8230    0.6600 O.2   115  VAL115     -0.2715
    122  CB       -69.5920   25.2440    3.0380 C.3   115  VAL115      0.0290
    123  CG1      -68.9500   26.4500    2.3520 C.3   115  VAL115      0.0023
    124  CG2      -69.4090   25.3390    4.5420 C.3   115  VAL115      0.0023
    125  N        -72.0310   25.7220    0.4690 N.am  116  ASN116     -0.1958
    126  CA       -72.2290   25.5830   -0.9740 C.3   116  ASN116      0.1819
    127  C        -70.9120   26.0050   -1.6520 C.2   116  ASN116      0.2621
    128  O        -70.7140   27.1780   -1.9940 O.2   116  ASN116     -0.2715
    129  CB       -73.4200   26.4040   -1.4650 C.3   116  ASN116      0.1195
    130  CG       -73.5970   26.3810   -2.9560 C.2   116  ASN116      0.2630
    131  OD1      -73.4880   25.3330   -3.6160 O.2   116  ASN116     -0.2716
    132  ND2      -73.8350   27.5560   -3.5170 N.am  116  ASN116     -0.0877
    133  N        -69.9960   25.0340   -1.7740 N.am  117  ASN117     -0.1972
    134  CA       -68.6510   25.2160   -2.2690 C.3   117  ASN117      0.1688
    135  C        -68.5460   25.2540   -3.7890 C.2   117  ASN117      0.2292
    136  O        -69.2070   24.4910   -4.5100 O.2   117  ASN117     -0.2864
    137  CB       -67.7430   24.1510   -1.6620 C.3   117  ASN117      0.1181
    138  CG       -66.2900   24.1600   -2.0660 C.2   117  ASN117      0.2629
    139  OD1      -65.5010   25.0140   -1.6390 O.2   117  ASN117     -0.2716
    140  ND2      -65.8850   23.1410   -2.8180 N.am  117  ASN117     -0.0877
    141  N        -65.9410   24.5330   -6.4740 N.3   119  ASP119     -0.1239
    142  CA       -64.7680   23.6440   -6.5890 C.3   119  ASP119      0.1674
    143  C        -63.4470   24.4210   -6.7330 C.2   119  ASP119      0.2266
    144  O        -63.3530   25.2900   -7.6110 O.2   119  ASP119     -0.2867
    145  CB       -64.9630   22.6180   -7.7260 C.3   119  ASP119      0.1410
    146  CG       -63.8030   21.6590   -7.9670 C.2   119  ASP119      0.3668
    147  OD1      -63.1920   21.1910   -6.9670 O.co2 119  ASP119     -0.2456
    148  OD2      -63.5330   21.3400   -9.1540 O.co2 119  ASP119     -0.2456
    149  N        -58.5370   20.8070   -0.5560 N.3   159  HIS159     -0.1241
    150  CA       -59.7120   19.9320   -0.3400 C.3   159  HIS159      0.1621
    151  C        -60.4180   20.2080    1.0190 C.2   159  HIS159      0.2264
    152  O        -61.6430   20.1010    1.0830 O.2   159  HIS159     -0.2867
    153  CB       -59.3450   18.4190   -0.4710 C.3   159  HIS159      0.0745
    154  CG       -60.4330   17.4500   -0.0460 C.ar  159  HIS159      0.0817
    155  ND1      -61.1870   16.7410   -0.9810 N.ar  159  HIS159     -0.2268
    156  CD2      -60.8530   17.0960    1.2000 C.ar  159  HIS159      0.1154
    157  CE1      -62.0430   16.0040   -0.2780 C.ar  159  HIS159      0.1986
    158  NE2      -61.8860   16.1900    1.0390 N.ar  159  HIS159     -0.2212
    159  N        -63.3730   24.7750    2.5170 N.3   162  MET162     -0.1245
    160  CA       -64.6460   24.9830    1.8190 C.3   162  MET162      0.1570
    161  C        -64.9200   26.4760    1.7120 C.2   162  MET162      0.2261
    162  O        -64.9030   27.1740    2.7290 O.2   162  MET162     -0.2867
    163  CB       -65.8150   24.2720    2.5390 C.3   162  MET162      0.0387
    164  CG       -65.7470   22.7700    2.4720 C.3   162  MET162      0.0595
    165  SD       -66.3340   22.1670    0.8940 S.3   162  MET162     -0.1393
    166  CE       -65.5170   20.5820    0.8180 C.3   162  MET162      0.0692
    167  N        -62.5090   22.5290    7.2450 N.3   173  ILE173     -0.1231
    168  CA       -63.2240   21.2640    7.4950 C.3   173  ILE173      0.1692
    169  C        -62.2670   20.0700    7.7190 C.2   173  ILE173      0.2592
    170  O        -61.0510   20.2530    7.6760 O.2   173  ILE173     -0.2718
    171  CB       -64.2740   20.9770    6.3540 C.3   173  ILE173      0.0266
    172  CG1      -63.5990   20.5180    5.0290 C.3   173  ILE173      0.0019
    173  CG2      -65.2280   22.1840    6.1240 C.3   173  ILE173      0.0020
    174  CD1      -64.3600   19.6060    4.1790 C.3   173  ILE173      0.0001
    175  N        -62.8360   18.8550    7.9560 N.am  174  ASP174     -0.1974
    176  CA       -62.1700   17.5600    8.1090 C.3   174  ASP174      0.1709
    177  C        -61.0570   17.5340    9.1590 C.2   174  ASP174      0.2293
    178  O        -59.8580   17.4600    8.8420 O.2   174  ASP174     -0.2864
    179  CB       -61.6490   17.0150    6.7560 C.3   174  ASP174      0.1436
    180  CG       -62.6840   16.6390    5.7110 C.2   174  ASP174      0.3671
    181  OD1      -63.8990   16.7450    6.0030 O.co2 174  ASP174     -0.2456
    182  OD2      -62.2780   16.2150    4.6050 O.co2 174  ASP174     -0.2456
@<TRIPOS>BOND
     1   148   146   ar
     2   146   145    1
     3   146   147   ar
     4   145   142    1
     5   144   143    2
     6   143   142    1
     7   142   141    1
     8    34    32    1
     9    10     9    1
    10     9    11    1
    11     9     8    2
    12    32    33    1
    13    32    31    2
    14     7     8    1
    15     7     6    1
    16   136   135    2
    17    31    30    1
    18     5     6    1
    19     5     2    1
    20   135   134    1
    21   131   130    2
    22   132   130   am
    23    15    14    2
    24    30    29    1
    25   130   129    1
    26     2     3    1
    27     2     1    1
    28   140   138   am
    29    14    13    1
    30    14    20   am
    31    29    28    1
    32    13    12    1
    33    13    16    1
    34    21    20    1
    35    21    22    1
    36    19    17    1
    37     3     4    2
    38   134   133    1
    39   134   137    1
    40   138   137    1
    41   138   139    2
    42   128   127    2
    43    53    52   ar
    44   133   127   am
    45   127   126    1
    46    28    25    1
    47    22    24   am
    48    22    23    2
    49    24    25    1
    50   129   126    1
    51    63    62    1
    52    16    17    1
    53    17    18    1
    54    54    52   ar
    55    52    51    1
    56    27    26    2
    57   155   157   ar
    58   155   154   ar
    59   126   125    1
    60    25    26    1
    61    62    61    1
    62   149   150    1
    63   153   150    1
    64   153   154    1
    65   150   151    1
    66   157   158   ar
    67    26    35   am
    68   154   156   ar
    69    50    51    1
    70    50    47    1
    71    42    41    2
    72   125   120   am
    73   117   116   ar
    74   117   115   ar
    75   116   114   ar
    76   121   120    2
    77    61    60    1
    78   166   165    1
    79   165   164    1
    80    46    47    1
    81   151   152    2
    82   158   156   ar
    83    35    36    1
    84   120   119    1
    85    49    48    2
    86    47    48    1
    87    41    40    1
    88    38    37    2
    89   161   160    1
    90   161   162    2
    91    60    59    1
    92    36    37    1
    93   115   113   ar
    94   114   113   ar
    95   160   159    1
    96   160   163    1
    97    39    40    1
    98    43    40    1
    99    43    44    1
   100    43    45    1
   101   123   122    1
   102   164   163    1
   103   113   112    1
   104   119   122    1
   105   119   118    1
   106   122   124    1
   107    59    56    1
   108   118   110   am
   109    70    68    1
   110   112   109    1
   111   174   172    1
   112   110   111    2
   113   110   109    1
   114    56    55    1
   115    56    57    1
   116    69    68    1
   117   182   180   ar
   118    68    65    1
   119   109   108    1
   120   172   171    1
   121    65    64    1
   122    65    66    1
   123    57    58    2
   124   180   181   ar
   125   180   179    1
   126    66    67    2
   127   173   171    1
   128   108   101   am
   129    76    77    1
   130    76    75    1
   131   171   168    1
   132    72    71    1
   133    72    75    1
   134    72    73    1
   135   102   101    2
   136    77    78    1
   137    78    79    1
   138   179   176    1
   139   101   100    1
   140   167   168    1
   141    73    74    2
   142   168   169    1
   143    87    85    1
   144   170   169    2
   145   169   175   am
   146   175   176    1
   147   176   177    1
   148   106   105   ar
   149    91    90    2
   150   104   105    1
   151   104   103    2
   152   100   103    1
   153   100    99    1
   154   105   107   ar
   155    92    93    1
   156    92    89    1
   157    85    84    1
   158   178   177    2
   159    90    99   am
   160    90    89    1
   161    95    93   ar
   162    95    97   ar
   163    93    94   ar
   164    84    86    1
   165    84    81    1
   166    89    88    1
   167    97    98   ar
   168    94    96   ar
   169    81    80    1
   170    81    82    1
   171    98    96   ar
   172    82    83    2
