@<TRIPOS>MOLECULE
tmp/5n1wA00.pdb
 215 214 0 0 0
SMALL
GASTEIGER

@<TRIPOS>ATOM
      1  N          9.3050   -2.4680  -35.2270 N.3    39  GLU39      -0.1231
      2  CA         8.4550   -1.8230  -34.2330 C.3    39  GLU39       0.1699
      3  C          7.6590   -0.6970  -34.8800 C.2    39  GLU39       0.2592
      4  O          6.4420   -0.5700  -34.6570 O.2    39  GLU39      -0.2718
      5  CB         9.3210   -1.2930  -33.0790 C.3    39  GLU39       0.0402
      6  CG         8.7460   -1.5070  -31.6110 C.3    39  GLU39       0.1161
      7  CD         8.8710   -2.9580  -31.1700 C.2    39  GLU39       0.3649
      8  OE1        9.5710   -3.7030  -31.8820 O.co2  39  GLU39      -0.2457
      9  OE2        8.2490   -3.3740  -30.1660 O.co2  39  GLU39      -0.2457
     10  N          8.3270    0.1080  -35.7240 N.am   40  LEU40      -0.1980
     11  CA         7.6840    1.1920  -36.4620 C.3    40  LEU40       0.1596
     12  C          6.7660    0.6950  -37.5840 C.2    40  LEU40       0.2287
     13  O          6.1130    1.5160  -38.2400 O.2    40  LEU40      -0.2864
     14  CB         8.7350    2.1290  -37.0770 C.3    40  LEU40       0.0297
     15  CG         9.7360    2.8910  -36.2020 C.3    40  LEU40       0.0022
     16  CD1       10.6080    3.7630  -37.1030 C.3    40  LEU40       0.0001
     17  CD2        9.0320    3.7360  -35.1940 C.3    40  LEU40       0.0001
     18  N         18.7450   12.7180  -36.7620 N.3   104  ILE104     -0.1231
     19  CA        18.3910   11.5460  -35.9860 C.3   104  ILE104      0.1692
     20  C         17.4310   10.7220  -36.8220 C.2   104  ILE104      0.2593
     21  O         16.2420   11.0290  -36.9190 O.2   104  ILE104     -0.2718
     22  CB        17.7960   11.9160  -34.6260 C.3   104  ILE104      0.0266
     23  CG1       18.8380   12.6320  -33.7990 C.3   104  ILE104      0.0019
     24  CG2       17.3010   10.6570  -33.9480 C.3   104  ILE104      0.0020
     25  CD1       18.2840   13.3780  -32.6580 C.3   104  ILE104      0.0001
     26  N         17.9520    9.6290  -37.3470 N.am  105  SER105     -0.1938
     27  CA        17.2860    8.8480  -38.3800 C.3   105  SER105      0.2055
     28  C         16.2830    7.9000  -37.7700 C.2   105  SER105      0.2643
     29  O         15.2060    7.6860  -38.3250 O.2   105  SER105     -0.2714
     30  CB        18.3270    8.0900  -39.2240 C.3   105  SER105      0.2130
     31  OG        17.7230    7.0200  -39.9080 O.3   105  SER105     -0.2179
     32  N         16.6290    7.3230  -36.6360 N.am  106  ARG106     -0.1963
     33  CA        15.7520    6.4480  -35.8590 C.3   106  ARG106      0.1729
     34  C         16.0150    6.6960  -34.3940 C.2   106  ARG106      0.2616
     35  O         17.1810    6.8270  -34.0020 O.2   106  ARG106     -0.2715
     36  CB        16.0660    5.0100  -36.1400 C.3   106  ARG106      0.0348
     37  CG        15.8490    4.6040  -37.5920 C.3   106  ARG106      0.0492
     38  CD        14.3570    4.4640  -37.8570 C.3   106  ARG106      0.2205
     39  NE        14.1090    3.6970  -39.0760 N.pl3 106  ARG106     -0.0865
     40  CZ        14.1690    4.2070  -40.3040 C.cat 106  ARG106      0.5346
     41  NH1       14.4800    5.4830  -40.4970 N.pl3 106  ARG106      0.1354
     42  NH2       13.9210    3.4390  -41.3520 N.pl3 106  ARG106      0.1354
     43  N         14.9680    6.7420  -33.5780 N.am  107  ILE107     -0.1963
     44  CA        15.1330    6.7860  -32.1170 C.3   107  ILE107      0.1727
     45  C         14.0200    5.9770  -31.4800 C.2   107  ILE107      0.2616
     46  O         12.8510    6.0800  -31.8660 O.2   107  ILE107     -0.2715
     47  CB        15.1710    8.2280  -31.5730 C.3   107  ILE107      0.0290
     48  CG1       15.5640    8.2540  -30.1110 C.3   107  ILE107      0.0022
     49  CG2       13.8310    8.9310  -31.8180 C.3   107  ILE107      0.0023
     50  CD1       15.8700    9.6590  -29.5770 C.3   107  ILE107      0.0001
     51  N         14.4010    5.1010  -30.5680 N.am  108  TRP108     -0.1960
     52  CA        13.5010    4.0980  -30.0240 C.3   108  TRP108      0.1771
     53  C         13.8950    3.7550  -28.6000 C.2   108  TRP108      0.2619
     54  O         15.0850    3.6470  -28.2800 O.2   108  TRP108     -0.2715
     55  CB        13.5380    2.8150  -30.8770 C.3   108  TRP108      0.0590
     56  CG        12.8550    1.6400  -30.2620 C.ar  108  TRP108      0.0006
     57  CD1       11.5320    1.2910  -30.3890 C.ar  108  TRP108      0.0946
     58  CD2       13.4510    0.6480  -29.4240 C.ar  108  TRP108      0.0152
     59  NE1       11.2830    0.1240  -29.7030 N.ar  108  TRP108     -0.2442
     60  CE2       12.4380   -0.2820  -29.0940 C.ar  108  TRP108      0.0810
     61  CE3       14.7530    0.4430  -28.9260 C.ar  108  TRP108      0.0012
     62  CZ2       12.6750   -1.3830  -28.2870 C.ar  108  TRP108      0.0191
     63  CZ3       14.9980   -0.6520  -28.1650 C.ar  108  TRP108      0.0001
     64  CH2       13.9560   -1.5530  -27.8250 C.ar  108  TRP108      0.0015
     65  N         12.8880    3.5360  -27.7630 N.am  109  VAL109     -0.1977
     66  CA        13.1010    3.0910  -26.3790 C.3   109  VAL109      0.1596
     67  C         12.0890    1.9980  -26.1020 C.2   109  VAL109      0.2287
     68  O         10.9010    2.1630  -26.4030 O.2   109  VAL109     -0.2864
     69  CB        12.9440    4.2260  -25.3350 C.3   109  VAL109      0.0276
     70  CG1       12.9890    3.6970  -23.8780 C.3   109  VAL109      0.0022
     71  CG2       13.9960    5.2690  -25.4930 C.3   109  VAL109      0.0022
     72  N          9.8400    3.5460  -21.2040 N.3   114  ARG114     -0.1231
     73  CA         9.6770    4.9060  -21.6720 C.3   114  ARG114      0.1694
     74  C          9.4040    5.8460  -20.4930 C.2   114  ARG114      0.2592
     75  O          9.1220    5.4220  -19.3640 O.2   114  ARG114     -0.2718
     76  CB         8.5740    4.9640  -22.7230 C.3   114  ARG114      0.0321
     77  CG         9.0330    4.2930  -23.9600 C.3   114  ARG114      0.0489
     78  CD         8.0270    4.3260  -25.1660 C.3   114  ARG114      0.2205
     79  NE         8.5090    3.3340  -26.0980 N.pl3 114  ARG114     -0.0865
     80  CZ         7.7760    2.7720  -27.0420 C.cat 114  ARG114      0.5346
     81  NH1        6.5120    3.1300  -27.1820 N.pl3 114  ARG114      0.1354
     82  NH2        8.3110    1.8400  -27.8220 N.pl3 114  ARG114      0.1354
     83  N          9.5760    7.1420  -20.7740 N.am  115  ARG115     -0.1966
     84  CA         9.4320    8.2300  -19.8020 C.3   115  ARG115      0.1729
     85  C         10.4170    8.1140  -18.6380 C.2   115  ARG115      0.2616
     86  O         10.1430    8.5700  -17.5350 O.2   115  ARG115     -0.2715
     87  CB         7.9830    8.3090  -19.3050 C.3   115  ARG115      0.0348
     88  CG         6.9730    8.2790  -20.4890 C.3   115  ARG115      0.0492
     89  CD         7.1360    9.5300  -21.4020 C.3   115  ARG115      0.2205
     90  NE         6.8200   10.7860  -20.6990 N.pl3 115  ARG115     -0.0865
     91  CZ         5.6160   11.3760  -20.6670 C.cat 115  ARG115      0.5346
     92  NH1        4.6010   10.8600  -21.3110 N.pl3 115  ARG115      0.1354
     93  NH2        5.4370   12.5250  -20.0260 N.pl3 115  ARG115      0.1354
     94  N         11.6390    7.6550  -18.9350 N.am  116  LYS116     -0.1963
     95  CA        12.7330    7.5950  -17.9780 C.3   116  LYS116      0.1728
     96  C         13.9540    8.3460  -18.4480 C.2   116  LYS116      0.2616
     97  O         15.0860    8.0360  -18.0630 O.2   116  LYS116     -0.2715
     98  CB        13.0550    6.1330  -17.7010 C.3   116  LYS116      0.0311
     99  CG        11.8090    5.5050  -17.0650 C.3   116  LYS116      0.0038
    100  CD        11.9990    4.0960  -16.5940 C.3   116  LYS116      0.0206
    101  CE        10.6840    3.6230  -15.9910 C.3   116  LYS116      0.1093
    102  NZ        10.8640    3.1690  -14.6500 N.3   116  LYS116     -0.1314
    103  N         13.7450    9.3190  -19.3090 N.am  117  ALA117     -0.1963
    104  CA        14.8220   10.1420  -19.8520 C.3   117  ALA117      0.1728
    105  C         15.8620    9.3570  -20.6580 C.2   117  ALA117      0.2616
    106  O         16.9570    9.8760  -20.9170 O.2   117  ALA117     -0.2715
    107  CB        15.5050   10.9230  -18.7490 C.3   117  ALA117      0.0334
    108  N         15.5790    8.1230  -21.0660 N.am  118  ILE118     -0.1963
    109  CA        16.5500    7.4110  -21.9060 C.3   118  ILE118      0.1727
    110  C         16.7460    8.1400  -23.2290 C.2   118  ILE118      0.2616
    111  O         17.8740    8.4010  -23.6530 O.2   118  ILE118     -0.2715
    112  CB        16.1020    5.9640  -22.1620 C.3   118  ILE118      0.0290
    113  CG1       16.0720    5.2030  -20.8090 C.3   118  ILE118      0.0022
    114  CG2       17.0180    5.2890  -23.1420 C.3   118  ILE118      0.0023
    115  CD1       15.3510    3.8860  -20.8940 C.3   118  ILE118      0.0001
    116  N         15.6570    8.4820  -23.9000 N.am  119  ALA119     -0.1963
    117  CA        15.8270    9.1270  -25.1910 C.3   119  ALA119      0.1728
    118  C         16.5690   10.4400  -25.0150 C.2   119  ALA119      0.2616
    119  O         17.4850   10.7560  -25.7750 O.2   119  ALA119     -0.2715
    120  CB        14.4860    9.3190  -25.8940 C.3   119  ALA119      0.0334
    121  N         16.2040   11.2090  -23.9940 N.am  120  SER120     -0.1950
    122  CA        16.8940   12.4640  -23.7420 C.3   120  SER120      0.1924
    123  C         18.3870   12.2360  -23.5330 C.2   120  SER120      0.2314
    124  O         19.2060   13.0650  -23.9260 O.2   120  SER120     -0.2863
    125  CB        16.2880   13.1650  -22.5390 C.3   120  SER120      0.2116
    126  OG        14.9300   13.4530  -22.7930 O.3   120  SER120     -0.2180
    127  N         15.2480   15.7860  -36.8250 N.3   143  PHE143     -0.1227
    128  CA        14.6530   14.4620  -36.7880 C.3   143  PHE143      0.1736
    129  C         13.9920   14.1440  -38.1100 C.2   143  PHE143      0.2596
    130  O         13.2820   14.9770  -38.6760 O.2   143  PHE143     -0.2718
    131  CB        13.6100   14.3810  -35.6950 C.3   143  PHE143      0.0547
    132  CG        14.1320   14.7200  -34.3700 C.ar  143  PHE143     -0.0202
    133  CD1       14.3220   16.0440  -34.0240 C.ar  143  PHE143     -0.0042
    134  CD2       14.4270   13.7380  -33.4550 C.ar  143  PHE143     -0.0042
    135  CE1       14.8060   16.4000  -32.7510 C.ar  143  PHE143     -0.0003
    136  CE2       14.9110   14.0610  -32.2280 C.ar  143  PHE143     -0.0003
    137  CZ        15.1070   15.4160  -31.8650 C.ar  143  PHE143     -0.0000
    138  N         14.1890   12.9300  -38.5980 N.am  144  SER144     -0.1938
    139  CA        13.5250   12.5640  -39.8250 C.3   144  SER144      0.2055
    140  C         12.0520   12.2740  -39.5480 C.2   144  SER144      0.2643
    141  O         11.7060   11.6040  -38.5670 O.2   144  SER144     -0.2714
    142  CB        14.1610   11.3310  -40.4520 C.3   144  SER144      0.2130
    143  OG        13.6720   10.1790  -39.7940 O.3   144  SER144     -0.2179
    144  N         11.1980   12.7980  -40.4340 N.am  145  ASP145     -0.1957
    145  CA         9.7830   12.4770  -40.5920 C.3   145  ASP145      0.1825
    146  C          9.1530   11.9710  -39.2950 C.2   145  ASP145      0.2464
    147  O          8.7460   10.8070  -39.1930 O.2   145  ASP145     -0.2730
    148  CB         9.6740   11.4440  -41.7170 C.3   145  ASP145      0.1450
    149  CG         8.3010   11.3420  -42.2920 C.2   145  ASP145      0.3671
    150  OD1        7.4180   12.1360  -41.9100 O.co2 145  ASP145     -0.2456
    151  OD2        8.0820   10.4120  -43.0890 O.co2 145  ASP145     -0.2456
    152  N          9.0380   12.8220  -38.2920 N.am  146  PRO146     -0.2715
    153  CA         8.7350   12.3220  -36.9420 C.3   146  PRO146      0.1536
    154  C          7.3620   11.6860  -36.8370 C.2   146  PRO146      0.2599
    155  O          6.3960   12.1410  -37.4560 O.2   146  PRO146     -0.2715
    156  CB         8.8330   13.5740  -36.0750 C.3   146  PRO146      0.0310
    157  CG         8.7180   14.7150  -37.0460 C.3   146  PRO146      0.0237
    158  CD         9.3250   14.2550  -38.2940 C.3   146  PRO146      0.0939
    159  N          7.3120   10.6120  -36.0470 N.am  147  THR147     -0.1951
    160  CA         6.0850   10.0100  -35.5520 C.3   147  THR147      0.1897
    161  C          5.4750   10.9010  -34.4730 C.2   147  THR147      0.2313
    162  O          6.1010   11.8610  -34.0090 O.2   147  THR147     -0.2863
    163  CB         6.3560    8.6380  -34.9430 C.3   147  THR147      0.1794
    164  OG1        7.1890    8.8120  -33.7930 O.3   147  THR147     -0.2208
    165  CG2        7.0540    7.7070  -35.9080 C.3   147  THR147      0.0378
    166  N          4.8900   10.2260  -31.2850 N.3   149  ASP149     -0.1225
    167  CA         5.8150   10.1330  -30.1490 C.3   149  ASP149      0.1805
    168  C          7.0750   10.9770  -30.3730 C.2   149  ASP149      0.2598
    169  O          7.4980   11.7250  -29.4850 O.2   149  ASP149     -0.2718
    170  CB         6.2130    8.6590  -29.9190 C.3   149  ASP149      0.1424
    171  CG         5.1190    7.8400  -29.2290 C.2   149  ASP149      0.3668
    172  OD1        4.1250    8.4560  -28.7660 O.co2 149  ASP149     -0.2456
    173  OD2        5.2870    6.5880  -29.1180 O.co2 149  ASP149     -0.2456
    174  N          7.6530   10.9190  -31.5750 N.am  150  GLY150     -0.1957
    175  CA         8.8220   11.7300  -31.8640 C.3   150  GLY150      0.1869
    176  C          8.5890   13.2190  -31.7070 C.2   150  GLY150      0.2309
    177  O          9.4430   13.9360  -31.1700 O.2   150  GLY150     -0.2863
    178  N          6.2840   14.8270  -29.8110 N.3   152  LEU152     -0.1231
    179  CA         6.1550   15.1690  -28.3980 C.3   152  LEU152      0.1693
    180  C          7.5260   15.1790  -27.7170 C.2   152  LEU152      0.2592
    181  O          7.8660   16.1190  -26.9960 O.2   152  LEU152     -0.2718
    182  CB         5.1720   14.1860  -27.7130 C.3   152  LEU152      0.0284
    183  CG         3.7150   14.1870  -28.2470 C.3   152  LEU152      0.0019
    184  CD1        2.8610   13.0150  -27.7790 C.3   152  LEU152      0.0001
    185  CD2        2.9740   15.4580  -27.8470 C.3   152  LEU152      0.0001
    186  N          8.3460   14.1570  -27.9710 N.am  153  PHE153     -0.1976
    187  CA         9.6940   14.1280  -27.4240 C.3   153  PHE153      0.1639
    188  C         10.5170   15.3320  -27.8950 C.2   153  PHE153      0.2290
    189  O         10.9530   16.1560  -27.0700 O.2   153  PHE153     -0.2864
    190  CB        10.3890   12.8180  -27.8170 C.3   153  PHE153      0.0560
    191  CG        11.8570   12.8260  -27.4810 C.ar  153  PHE153     -0.0200
    192  CD1       12.3040   12.7060  -26.1450 C.ar  153  PHE153     -0.0042
    193  CD2       12.7760   13.0030  -28.4600 C.ar  153  PHE153     -0.0042
    194  CE1       13.6500   12.7590  -25.8420 C.ar  153  PHE153     -0.0003
    195  CE2       14.1320   13.0400  -28.1690 C.ar  153  PHE153     -0.0003
    196  CZ        14.5730   12.9230  -26.8590 C.ar  153  PHE153     -0.0000
    197  N          9.7230   18.7910  -26.6100 N.3   156  THR156     -0.1203
    198  CA        10.1760   19.0020  -25.2360 C.3   156  THR156      0.1994
    199  C         11.6890   19.0660  -25.1700 C.2   156  THR156      0.2617
    200  O         12.2560   19.9470  -24.5220 O.2   156  THR156     -0.2717
    201  CB         9.6640   17.8870  -24.3200 C.3   156  THR156      0.1784
    202  OG1        8.2360   17.8980  -24.2890 O.3   156  THR156     -0.2211
    203  CG2       10.1700   18.0590  -22.9540 C.3   156  THR156      0.0376
    204  N         12.3620   18.1170  -25.8100 N.am  157  TYR157     -0.1975
    205  CA        13.8170   18.0720  -25.7150 C.3   157  TYR157      0.1639
    206  C         14.4340   19.3440  -26.2560 C.2   157  TYR157      0.2290
    207  O         15.3020   19.9420  -25.6080 O.2   157  TYR157     -0.2864
    208  CB        14.3590   16.8720  -26.4700 C.3   157  TYR157      0.0560
    209  CG        15.8350   16.7720  -26.3080 C.ar  157  TYR157     -0.0198
    210  CD1       16.3770   16.1020  -25.2520 C.ar  157  TYR157     -0.0009
    211  CD2       16.6920   17.3560  -27.2220 C.ar  157  TYR157     -0.0009
    212  CE1       17.7290   16.0200  -25.1080 C.ar  157  TYR157      0.0417
    213  CE2       18.0470   17.2910  -27.0580 C.ar  157  TYR157      0.0417
    214  CZ        18.5600   16.6190  -26.0170 C.ar  157  TYR157      0.1957
    215  OH        19.9180   16.5380  -25.8440 O.3   157  TYR157     -0.2866
@<TRIPOS>BOND
     1   151   149   ar
     2   149   150   ar
     3   149   148    1
     4   148   145    1
     5    42    40    1
     6   145   144    1
     7   145   146    1
     8    41    40    1
     9   142   139    1
    10   142   143    1
    11   144   140   am
    12    40    39    2
    13    31    30    1
    14   139   140    1
    15   139   138    1
    16   140   141    2
    17   146   147    2
    18   146   152   am
    19    30    27    1
    20    39    38    1
    21   130   129    2
    22   138   129   am
    23    27    28    1
    24    27    26    1
    25    29    28    2
    26   158   152    1
    27   158   157    1
    28   152   153    1
    29    13    12    2
    30   129   128    1
    31    38    37    1
    32    28    32   am
    33    37    36    1
    34    12    11    1
    35   155   154    2
    36    26    20   am
    37    16    15    1
    38    14    11    1
    39    14    15    1
    40   157   156    1
    41   153   154    1
    42   153   156    1
    43    21    20    2
    44   154   159   am
    45   127   128    1
    46    20    19    1
    47   128   131    1
    48    18    19    1
    49    32    33    1
    50    11    10    1
    51    15    17    1
    52    36    33    1
    53   159   160    1
    54    19    22    1
    55   165   163    1
    56    33    34    1
    57    10     3   am
    58   131   132    1
    59   160   163    1
    60   160   161    1
    61     1     2    1
    62   163   164    1
    63     3     4    2
    64     3     2    1
    65    22    24    1
    66    22    23    1
    67   161   162    2
    68    34    35    2
    69    34    43   am
    70   132   133   ar
    71   132   134   ar
    72     2     5    1
    73   133   135   ar
    74    23    25    1
    75    43    44    1
    76   134   136   ar
    77     5     6    1
    78   135   137   ar
    79   136   137   ar
    80    44    47    1
    81    44    45    1
    82     8     7   ar
    83    46    45    2
    84   175   176    1
    85   175   174    1
    86    49    47    1
    87   176   177    2
    88     6     7    1
    89   174   168   am
    90    47    48    1
    91    45    51   am
    92   166   167    1
    93     7     9   ar
    94    55    56    1
    95    55    52    1
    96    51    52    1
    97    57    56   ar
    98    57    59   ar
    99   168   167    1
   100   168   169    2
   101    56    58   ar
   102   167   170    1
   103    48    50    1
   104    52    53    1
   105   170   171    1
   106   178   179    1
   107    59    60   ar
   108    58    60   ar
   109    58    61   ar
   110   171   173   ar
   111   171   172   ar
   112    60    62   ar
   113    61    63   ar
   114    53    54    2
   115    53    65   am
   116   193   195   ar
   117   193   191   ar
   118   179   180    1
   119   179   182    1
   120    62    64   ar
   121   183   185    1
   122   183   184    1
   123   183   182    1
   124   195   196   ar
   125    63    64   ar
   126   186   180   am
   127   186   187    1
   128   188   187    1
   129   188   189    2
   130    82    80    1
   131   190   191    1
   132   190   187    1
   133    65    66    1
   134   180   181    2
   135   191   192   ar
   136   211   213   ar
   137   211   209   ar
   138    81    80    1
   139   213   214   ar
   140    80    79    2
   141   196   194   ar
   142   197   198    1
   143   208   209    1
   144   208   205    1
   145    68    67    2
   146    66    67    1
   147    66    69    1
   148   209   210   ar
   149   206   205    1
   150   206   207    2
   151   192   194   ar
   152    79    78    1
   153   214   215    1
   154   214   212   ar
   155   120   117    1
   156   204   205    1
   157   204   199   am
   158   119   118    2
   159    71    69    1
   160    69    70    1
   161   210   212   ar
   162   198   199    1
   163   198   201    1
   164   117   118    1
   165   117   116    1
   166   199   200    2
   167    78    77    1
   168   118   121   am
   169   201   202    1
   170   201   203    1
   171   121   122    1
   172    77    76    1
   173   124   123    2
   174   116   110   am
   175   122   123    1
   176   122   125    1
   177   111   110    2
   178   110   109    1
   179   114   112    1
   180   126   125    1
   181    76    73    1
   182   112   109    1
   183   112   113    1
   184   109   108    1
   185    73    72    1
   186    73    74    1
   187    89    90    1
   188    89    88    1
   189    92    91    1
   190   108   105   am
   191   106   105    2
   192   115   113    1
   193    83    74   am
   194    83    84    1
   195    90    91    2
   196    91    93    1
   197   105   104    1
   198    74    75    2
   199    88    87    1
   200   104   103    1
   201   104   107    1
   202    84    87    1
   203    84    85    1
   204   103    96   am
   205    94    85   am
   206    94    95    1
   207    85    86    2
   208    96    97    2
   209    96    95    1
   210    95    98    1
   211    98    99    1
   212    99   100    1
   213   100   101    1
   214   101   102    1
