@<TRIPOS>MOLECULE
tmp/5n1zA00.pdb
 90 88 0 0 0
SMALL
GASTEIGER

@<TRIPOS>ATOM
      1  N          0.2370    4.4970   -4.6830 N.3    43  THR43      -0.1218
      2  CA         1.2220    3.4310   -4.3850 C.3    43  THR43       0.1862
      3  C          0.6820    2.0640   -4.8360 C.2    43  THR43       0.2287
      4  O          1.4480    1.2740   -5.3730 O.2    43  THR43      -0.2866
      5  CB         1.6040    3.4140   -2.8860 C.3    43  THR43       0.1770
      6  OG1        0.4040    3.3530   -2.1190 O.3    43  THR43      -0.2211
      7  CG2        2.4240    4.6180   -2.4770 C.3    43  THR43       0.0375
      8  N          0.5490    2.0290   -8.8230 N.3    46  MET46      -0.1230
      9  CA         1.8850    1.7720   -9.3420 C.3    46  MET46       0.1702
     10  C          2.2440    0.3090   -9.1940 C.2    46  MET46       0.2592
     11  O          2.7240   -0.3070  -10.1460 O.2    46  MET46      -0.2718
     12  CB         2.9550    2.6000   -8.6040 C.3    46  MET46       0.0401
     13  CG         2.8640    4.0680   -8.8160 C.3    46  MET46       0.0596
     14  SD         4.2510    4.8770   -7.9750 S.3    46  MET46      -0.1393
     15  CE         5.4800    4.6210   -9.1240 C.3    46  MET46       0.0692
     16  N          1.9860   -0.2610   -8.0080 N.am   47  ALA47      -0.1966
     17  CA         2.3340   -1.6510   -7.6610 C.3    47  ALA47       0.1728
     18  C          1.6780   -2.6990   -8.5550 C.2    47  ALA47       0.2616
     19  O          2.1800   -3.8210   -8.6460 O.2    47  ALA47      -0.2715
     20  CB         1.9560   -1.9250   -6.2000 C.3    47  ALA47       0.0334
     21  N          0.5350   -2.3510   -9.1700 N.am   48  CYS48      -0.1954
     22  CA        -0.2620   -3.2580   -9.9950 C.3    48  CYS48       0.1843
     23  C         -0.2810   -2.9530  -11.4570 C.2    48  CYS48       0.2626
     24  O         -0.8860   -3.7250  -12.1930 O.2    48  CYS48      -0.2714
     25  CB        -1.6870   -3.2950   -9.4820 C.3    48  CYS48       0.0997
     26  SG        -1.8250   -3.7220   -7.7450 S.3    48  CYS48      -0.0797
     27  N          0.2360   -1.7910  -11.8780 N.am   49  SER49      -0.1936
     28  CA         0.0620   -1.4070  -13.2720 C.3    49  SER49       0.2055
     29  C          1.2840   -0.7480  -13.8420 C.2    49  SER49       0.2643
     30  O          1.8400    0.1590  -13.2450 O.2    49  SER49      -0.2714
     31  CB        -1.1950   -0.5250  -13.4030 C.3    49  SER49       0.2130
     32  OG        -1.2520    0.3410  -14.5250 O.3    49  SER49      -0.2179
     33  N          1.7100   -1.2490  -14.9900 N.am   50  GLY50      -0.1954
     34  CA         2.8130   -0.6840  -15.7520 C.3    50  GLY50       0.1869
     35  C          2.4930    0.7370  -16.1700 C.2    50  GLY50       0.2309
     36  O          3.3630    1.5950  -16.1050 O.2    50  GLY50      -0.2863
     37  N          2.6220    2.8350  -12.9390 N.3    53  TYR53      -0.1227
     38  CA         4.0230    2.8600  -12.5460 C.3    53  TYR53       0.1736
     39  C          4.7530    3.9430  -13.3750 C.2    53  TYR53       0.2596
     40  O          5.3850    4.8100  -12.7910 O.2    53  TYR53      -0.2718
     41  CB         4.7040    1.4960  -12.7730 C.3    53  TYR53       0.0548
     42  CG         6.2010    1.5810  -12.5700 C.ar   53  TYR53      -0.0200
     43  CD1        6.7450    1.6860  -11.2910 C.ar   53  TYR53      -0.0009
     44  CD2        7.0660    1.6960  -13.6560 C.ar   53  TYR53      -0.0009
     45  CE1        8.1190    1.8330  -11.1010 C.ar   53  TYR53       0.0417
     46  CE2        8.4350    1.8830  -13.4730 C.ar   53  TYR53       0.0417
     47  CZ         8.9560    1.9430  -12.1950 C.ar   53  TYR53       0.1957
     48  OH        10.3080    2.0980  -12.0130 O.3    53  TYR53      -0.2866
     49  N          4.6590    3.8860  -14.7250 N.am   54  SER54      -0.1952
     50  CA         5.3340    4.8310  -15.6390 C.3    54  SER54       0.1924
     51  C          4.8830    6.2960  -15.4670 C.2    54  SER54       0.2314
     52  O          5.6760    7.2020  -15.7070 O.2    54  SER54      -0.2863
     53  CB         5.1940    4.3760  -17.0890 C.3    54  SER54       0.2116
     54  OG         5.7680    3.0900  -17.2510 O.3    54  SER54      -0.2180
     55  N         -1.3530   -2.2030  -18.7180 N.3   108  GLN108     -0.1231
     56  CA        -0.0810   -2.9600  -18.6790 C.3   108  GLN108      0.1698
     57  C         -0.0530   -3.8510  -17.4110 C.2   108  GLN108      0.2592
     58  O          0.6810   -3.6080  -16.4430 O.2   108  GLN108     -0.2718
     59  CB         1.1510   -2.0480  -18.7800 C.3   108  GLN108      0.0381
     60  CG         1.1170   -1.0650  -19.9670 C.3   108  GLN108      0.0905
     61  CD         2.1700    0.0190  -19.8790 C.2   108  GLN108      0.2608
     62  OE1        1.9620    1.1500  -20.3300 O.2   108  GLN108     -0.2717
     63  NE2        3.3210   -0.2940  -19.2950 N.am  108  GLN108     -0.0878
     64  N         -0.9400   -4.8300  -17.4110 N.am  109  MET109     -0.1965
     65  CA        -1.1100   -5.8350  -16.3600 C.3   109  MET109      0.1736
     66  C         -0.9190   -7.2190  -17.0230 C.2   109  MET109      0.2616
     67  O         -1.8880   -7.9090  -17.3160 O.2   109  MET109     -0.2715
     68  CB        -2.4890   -5.6600  -15.6950 C.3   109  MET109      0.0427
     69  CG        -2.6310   -4.3260  -14.9530 C.3   109  MET109      0.0599
     70  SD        -4.3170   -3.9600  -14.4070 S.3   109  MET109     -0.1393
     71  CE        -4.4050   -4.9800  -12.9930 C.3   109  MET109      0.0692
     72  N          0.3570   -7.5980  -17.2810 N.am  110  GLU110     -0.1963
     73  CA         0.7540   -8.7870  -18.0400 C.3   110  GLU110      0.1733
     74  C          0.1670  -10.1070  -17.5400 C.2   110  GLU110      0.2616
     75  O         -0.2260  -10.9160  -18.3760 O.2   110  GLU110     -0.2715
     76  CB         2.2930   -8.8800  -18.1780 C.3   110  GLU110      0.0429
     77  CG         2.9840  -10.0090  -17.4220 C.3   110  GLU110      0.1163
     78  CD         4.0840   -9.5860  -16.4690 C.2   110  GLU110      0.3649
     79  OE1        4.7670   -8.5770  -16.7550 O.co2 110  GLU110     -0.2457
     80  OE2        4.2890  -10.2900  -15.4530 O.co2 110  GLU110     -0.2457
     81  N          0.1260  -10.3330  -16.2090 N.am  111  HIS111     -0.1973
     82  CA        -0.3960  -11.5570  -15.5990 C.3   111  HIS111      0.1656
     83  C         -1.8850  -11.6580  -15.8630 C.2   111  HIS111      0.2291
     84  O         -2.3430  -12.7150  -16.2740 O.2   111  HIS111     -0.2864
     85  CB        -0.0740  -11.6040  -14.0840 C.3   111  HIS111      0.0771
     86  CG        -0.0470  -12.9790  -13.4830 C.ar  111  HIS111      0.0820
     87  ND1       -0.1930  -13.1650  -12.1140 N.ar  111  HIS111     -0.2267
     88  CD2        0.1270  -14.1880  -14.0690 C.ar  111  HIS111      0.1154
     89  CE1       -0.1150  -14.4720  -11.9190 C.ar  111  HIS111      0.1986
     90  NE2        0.0670  -15.1300  -13.0650 N.ar  111  HIS111     -0.2212
@<TRIPOS>BOND
     1    62    61    2
     2    60    61    1
     3    60    59    1
     4    61    63   am
     5    59    56    1
     6    55    56    1
     7    56    57    1
     8    75    74    2
     9    76    73    1
    10    76    77    1
    11    73    74    1
    12    73    72    1
    13    74    81   am
    14    77    78    1
    15    57    64   am
    16    57    58    2
    17    64    65    1
    18    67    66    2
    19    72    66   am
    20    54    53    1
    21    53    50    1
    22    66    65    1
    23    79    78   ar
    24    78    80   ar
    25    65    68    1
    26    84    83    2
    27    81    82    1
    28    35    36    2
    29    35    34    1
    30    83    82    1
    31    34    33    1
    32    52    51    2
    33    68    69    1
    34    50    51    1
    35    50    49    1
    36    82    85    1
    37    33    29   am
    38    69    70    1
    39    49    39   am
    40    32    31    1
    41    70    71    1
    42    85    86    1
    43    88    86   ar
    44    88    90   ar
    45    29    28    1
    46    29    30    2
    47    44    46   ar
    48    44    42   ar
    49    86    87   ar
    50    46    47   ar
    51    31    28    1
    52    39    40    2
    53    39    38    1
    54    28    27    1
    55    90    89   ar
    56    37    38    1
    57    41    42    1
    58    41    38    1
    59    42    43   ar
    60    47    48    1
    61    47    45   ar
    62    24    23    2
    63    87    89   ar
    64    27    23   am
    65    23    22    1
    66    43    45   ar
    67    11    10    2
    68    22    25    1
    69    22    21    1
    70    25    26    1
    71     9    10    1
    72     9     8    1
    73     9    12    1
    74    10    16   am
    75    21    18   am
    76    15    14    1
    77    13    12    1
    78    13    14    1
    79    19    18    2
    80    18    17    1
    81    16    17    1
    82    17    20    1
    83     4     3    2
    84     3     2    1
    85     1     2    1
    86     2     5    1
    87     5     7    1
    88     5     6    1
