@<TRIPOS>MOLECULE
tmp/5n21B01.pdb
 91 88 0 0 0
SMALL
GASTEIGER

@<TRIPOS>ATOM
      1  N          6.1160   -4.6430  -16.1130 N.3    42  THR42      -0.1218
      2  CA         5.1840   -3.5550  -15.8170 C.3    42  THR42       0.1862
      3  C          5.7200   -2.1850  -16.2850 C.2    42  THR42       0.2287
      4  O          4.9700   -1.4150  -16.8780 O.2    42  THR42      -0.2866
      5  CB         4.8200   -3.5330  -14.3330 C.3    42  THR42       0.1770
      6  OG1        6.0310   -3.4760  -13.5870 O.3    42  THR42      -0.2211
      7  CG2        3.9850   -4.7550  -13.9180 C.3    42  THR42       0.0375
      8  N          5.7580   -2.0440  -20.2370 N.3    45  MET45      -0.1230
      9  CA         4.4150   -1.7810  -20.7730 C.3    45  MET45       0.1702
     10  C          4.0270   -0.3130  -20.5860 C.2    45  MET45       0.2592
     11  O          3.4610    0.3130  -21.4830 O.2    45  MET45      -0.2718
     12  CB         3.3650   -2.6640  -20.0770 C.3    45  MET45       0.0401
     13  CG         3.5730   -4.1490  -20.3040 C.3    45  MET45       0.0596
     14  SD         2.2860   -5.0890  -19.4190 S.3    45  MET45      -0.1393
     15  CE         1.1590   -4.9460  -20.3890 C.3    45  MET45       0.0692
     16  N          4.3480    0.2240  -19.4180 N.am   46  ALA46      -0.1966
     17  CA         4.0090    1.5980  -19.0650 C.3    46  ALA46       0.1728
     18  C          4.6580    2.6450  -19.9570 C.2    46  ALA46       0.2616
     19  O          4.1750    3.7780  -20.0200 O.2    46  ALA46      -0.2715
     20  CB         4.4120    1.8580  -17.6020 C.3    46  ALA46       0.0334
     21  N          5.7700    2.2780  -20.6120 N.am   47  CYS47      -0.1954
     22  CA         6.6380    3.1670  -21.3920 C.3    47  CYS47       0.1843
     23  C          6.7070    2.9100  -22.8550 C.2    47  CYS47       0.2626
     24  O          7.3720    3.6910  -23.5480 O.2    47  CYS47      -0.2714
     25  CB         8.0360    3.1080  -20.8180 C.3    47  CYS47       0.0997
     26  SG         8.1550    3.6480  -19.1020 S.3    47  CYS47      -0.0797
     27  N          6.1700    1.7670  -23.3260 N.am   48  SER48      -0.1936
     28  CA         6.3830    1.4150  -24.7220 C.3    48  SER48       0.2055
     29  C          5.1420    0.7930  -25.3280 C.2    48  SER48       0.2643
     30  O          4.6160   -0.1500  -24.7510 O.2    48  SER48      -0.2714
     31  CB         7.5340    0.4100  -24.7780 C.3    48  SER48       0.2130
     32  OG         7.5070   -0.3510  -25.9710 O.3    48  SER48      -0.2179
     33  N          4.7180    1.2890  -26.4980 N.am   49  GLY49      -0.1954
     34  CA         3.5650    0.7370  -27.2050 C.3    49  GLY49       0.1869
     35  C          3.8210   -0.6880  -27.6460 C.2    49  GLY49       0.2309
     36  O          2.9050   -1.5070  -27.6620 O.2    49  GLY49      -0.2863
     37  N          3.7650   -2.8320  -24.3800 N.3    52  TYR52      -0.1241
     38  CA         2.3550   -2.8750  -23.9650 C.3    52  TYR52       0.1605
     39  C          1.6000   -3.9310  -24.8030 C.2    52  TYR52       0.2264
     40  O          0.9200   -4.7900  -24.2310 O.2    52  TYR52      -0.2867
     41  CB         1.6870   -1.4980  -24.1630 C.3    52  TYR52       0.0534
     42  CG         0.1950   -1.5620  -23.9330 C.ar   52  TYR52      -0.0201
     43  CD1       -0.3330   -1.5160  -22.6490 C.ar   52  TYR52      -0.0009
     44  CD2       -0.6820   -1.7760  -24.9880 C.ar   52  TYR52      -0.0009
     45  CE1       -1.7070   -1.6190  -22.4260 C.ar   52  TYR52       0.0417
     46  CE2       -2.0510   -1.9230  -24.7750 C.ar   52  TYR52       0.0417
     47  CZ        -2.5630   -1.8370  -23.4920 C.ar   52  TYR52       0.1957
     48  OH        -3.9180   -1.9850  -23.2820 O.3    52  TYR52      -0.2866
     49  N          0.2750   -7.4050  -22.7160 N.3    56  THR56      -0.1218
     50  CA        -1.1480   -7.4020  -22.3230 C.3    56  THR56       0.1862
     51  C         -1.8420   -8.6240  -22.9060 C.2    56  THR56       0.2287
     52  O         -2.9300   -8.9890  -22.4610 O.2    56  THR56      -0.2866
     53  CB        -1.9150   -6.1630  -22.7930 C.3    56  THR56       0.1770
     54  OG1       -1.7040   -5.9450  -24.1920 O.3    56  THR56      -0.2211
     55  CG2       -1.6260   -4.9580  -21.9760 C.3    56  THR56       0.0375
     56  N          7.7630    2.1910  -30.0790 N.3   107  GLN107     -0.1231
     57  CA         6.5270    2.9700  -30.0320 C.3   107  GLN107      0.1698
     58  C          6.5210    3.8520  -28.7840 C.2   107  GLN107      0.2592
     59  O          5.8060    3.5980  -27.8170 O.2   107  GLN107     -0.2718
     60  CB         5.2860    2.0860  -30.1470 C.3   107  GLN107      0.0381
     61  CG         5.2820    1.1830  -31.3830 C.3   107  GLN107      0.0905
     62  CD         4.1820    0.1630  -31.2950 C.2   107  GLN107      0.2608
     63  OE1        3.1450    0.3890  -30.6540 O.2   107  GLN107     -0.2717
     64  NE2        4.4160   -1.0080  -31.8720 N.am  107  GLN107     -0.0878
     65  N          7.4130    4.8490  -28.7860 N.am  108  MET108     -0.1965
     66  CA         7.5730    5.8120  -27.6970 C.3   108  MET108      0.1736
     67  C          7.4310    7.1900  -28.3330 C.2   108  MET108      0.2616
     68  O          8.4230    7.8770  -28.6260 O.2   108  MET108     -0.2715
     69  CB         8.9380    5.6060  -27.0120 C.3   108  MET108      0.0427
     70  CG         9.1010    4.1750  -26.4520 C.3   108  MET108      0.0599
     71  SD        10.7470    3.8410  -25.8110 S.3   108  MET108     -0.1393
     72  CE        10.7580    4.9300  -24.3300 C.3   108  MET108      0.0692
     73  N          6.1670    7.5660  -28.6200 N.am  109  GLU109     -0.1963
     74  CA         5.8530    8.7780  -29.3590 C.3   109  GLU109      0.1733
     75  C          6.4270   10.0780  -28.7680 C.2   109  GLU109      0.2616
     76  O          6.8280   10.9290  -29.5540 O.2   109  GLU109     -0.2715
     77  CB         4.3370    8.9070  -29.6100 C.3   109  GLU109      0.0429
     78  CG         3.5080    9.2720  -28.3930 C.3   109  GLU109      0.1163
     79  CD         2.0330    8.9510  -28.5240 C.2   109  GLU109      0.3649
     80  OE1        1.4570    8.4160  -27.5500 O.co2 109  GLU109     -0.2457
     81  OE2        1.4570    9.2240  -29.6020 O.co2 109  GLU109     -0.2457
     82  N          6.5090   10.2350  -27.4290 N.am  110  HIS110     -0.1973
     83  CA         7.0490   11.4890  -26.8740 C.3   110  HIS110      0.1656
     84  C          8.5460   11.5890  -27.0980 C.2   110  HIS110      0.2291
     85  O          9.0610   12.6750  -27.3710 O.2   110  HIS110     -0.2864
     86  CB         6.6870   11.6700  -25.3950 C.3   110  HIS110      0.0771
     87  CG         5.2150   11.5600  -25.1360 C.ar  110  HIS110      0.0820
     88  ND1        4.3190   12.5000  -25.6260 N.ar  110  HIS110     -0.2267
     89  CD2        4.5260   10.6080  -24.4630 C.ar  110  HIS110      0.1154
     90  CE1        3.1220   12.0960  -25.2260 C.ar  110  HIS110      0.1986
     91  NE2        3.1980   10.9610  -24.5220 N.ar  110  HIS110     -0.2212
@<TRIPOS>BOND
     1    64    62   am
     2    61    62    1
     3    61    60    1
     4    62    63    2
     5    60    57    1
     6    56    57    1
     7    57    58    1
     8    77    74    1
     9    77    78    1
    10    81    79   ar
    11    76    75    2
    12    74    75    1
    13    74    73    1
    14    65    58   am
    15    65    66    1
    16    58    59    2
    17    75    82   am
    18    68    67    2
    19    73    67   am
    20    79    78    1
    21    79    80   ar
    22    67    66    1
    23    66    69    1
    24    36    35    2
    25    35    34    1
    26    82    83    1
    27    85    84    2
    28    34    33    1
    29    84    83    1
    30    69    70    1
    31    83    86    1
    32    33    29   am
    33    70    71    1
    34    32    31    1
    35    71    72    1
    36    88    90   ar
    37    88    87   ar
    38    86    87    1
    39    29    30    2
    40    29    28    1
    41    90    91   ar
    42    87    89   ar
    43    44    46   ar
    44    44    42   ar
    45    39    40    2
    46    39    38    1
    47    31    28    1
    48    46    47   ar
    49    28    27    1
    50    91    89   ar
    51    37    38    1
    52    54    53    1
    53    41    38    1
    54    41    42    1
    55    42    43   ar
    56    24    23    2
    57    47    48    1
    58    47    45   ar
    59    27    23   am
    60    51    52    2
    61    51    50    1
    62    23    22    1
    63    53    50    1
    64    53    55    1
    65    49    50    1
    66    43    45   ar
    67    11    10    2
    68    22    25    1
    69    22    21    1
    70    25    26    1
    71     9    10    1
    72     9     8    1
    73     9    12    1
    74    21    18   am
    75    10    16   am
    76    15    14    1
    77    13    12    1
    78    13    14    1
    79    19    18    2
    80    18    17    1
    81    16    17    1
    82    17    20    1
    83     4     3    2
    84     3     2    1
    85     1     2    1
    86     2     5    1
    87     5     7    1
    88     5     6    1
