@<TRIPOS>MOLECULE
tmp/5n22D01.pdb
 90 89 0 0 0
SMALL
GASTEIGER

@<TRIPOS>ATOM
      1  N         81.5320    3.9810   40.8430 N.3    39  LEU39      -0.1231
      2  CA        81.0490    5.2540   40.3330 C.3    39  LEU39       0.1693
      3  C         79.9490    5.1210   39.2960 C.2    39  LEU39       0.2593
      4  O         79.3320    6.1470   38.9650 O.2    39  LEU39      -0.2718
      5  CB        82.1910    6.0550   39.6930 C.3    39  LEU39       0.0284
      6  CG        83.2710    6.5460   40.6440 C.3    39  LEU39       0.0019
      7  CD1       84.4620    7.1000   39.8580 C.3    39  LEU39       0.0001
      8  CD2       82.7270    7.6080   41.5520 C.3    39  LEU39       0.0001
      9  N         79.7250    3.9230   38.7400 N.am   40  GLY40      -0.1942
     10  CA        78.8430    3.8730   37.5920 C.3    40  GLY40       0.2014
     11  C         79.4980    4.5460   36.3910 C.2    40  GLY40       0.2638
     12  O         78.8140    5.2000   35.6020 O.2    40  GLY40      -0.2714
     13  N         80.8230    4.4590   36.2700 N.am   41  PHE41      -0.1973
     14  CA        81.5450    5.1680   35.2270 C.3    41  PHE41       0.1639
     15  C         81.5410    4.3100   33.9800 C.2    41  PHE41       0.2290
     16  O         81.8230    3.1120   34.0320 O.2    41  PHE41      -0.2864
     17  CB        82.9900    5.4740   35.6570 C.3    41  PHE41       0.0560
     18  CG        83.8490    6.1350   34.5810 C.ar   41  PHE41      -0.0200
     19  CD1       84.5480    5.3660   33.6570 C.ar   41  PHE41      -0.0042
     20  CD2       83.9640    7.5030   34.5070 C.ar   41  PHE41      -0.0042
     21  CE1       85.3180    5.9560   32.6860 C.ar   41  PHE41      -0.0003
     22  CE2       84.7480    8.1040   33.5250 C.ar   41  PHE41      -0.0003
     23  CZ        85.4110    7.3290   32.6060 C.ar   41  PHE41      -0.0000
     24  N         90.1360   12.0000   35.8430 N.3   103  SER103     -0.1202
     25  CA        89.1330   11.2200   35.1430 C.3   103  SER103      0.2020
     26  C         88.2180   10.5120   36.1140 C.2   103  SER103      0.2619
     27  O         87.0060   10.4370   35.8830 O.2   103  SER103     -0.2717
     28  CB        89.8340   10.2340   34.2160 C.3   103  SER103      0.2103
     29  OG        88.9150    9.3520   33.6470 O.3   103  SER103     -0.2182
     30  N         88.7780    9.9760   37.1960 N.am  104  ARG104     -0.1965
     31  CA        87.9950    9.4090   38.2700 C.3   104  ARG104      0.1729
     32  C         88.6760    9.6780   39.5900 C.2   104  ARG104      0.2616
     33  O         89.9090    9.6990   39.6820 O.2   104  ARG104     -0.2715
     34  CB        87.7720    7.8840   38.1790 C.3   104  ARG104      0.0348
     35  CG        86.9860    7.4120   36.9500 C.3   104  ARG104      0.0492
     36  CD        87.8980    7.2310   35.7470 C.3   104  ARG104      0.2205
     37  NE        87.8360    5.8750   35.2270 N.pl3 104  ARG104     -0.0865
     38  CZ        88.3350    5.5190   34.0510 C.cat 104  ARG104      0.5346
     39  NH1       88.9250    6.4200   33.2910 N.pl3 104  ARG104      0.1354
     40  NH2       88.2580    4.2660   33.6570 N.pl3 104  ARG104      0.1354
     41  N         87.8550    9.8380   40.6240 N.am  105  ILE105     -0.1977
     42  CA        88.3780    9.9510   41.9860 C.3   105  ILE105      0.1596
     43  C         87.3740    9.3150   42.9240 C.2   105  ILE105      0.2287
     44  O         86.1560    9.5020   42.7760 O.2   105  ILE105     -0.2864
     45  CB        88.7140   11.4070   42.3910 C.3   105  ILE105      0.0276
     46  CG1       89.5200   11.4450   43.7380 C.3   105  ILE105      0.0022
     47  CG2       87.4690   12.3050   42.4290 C.3   105  ILE105      0.0022
     48  CD1       90.1350   12.8410   43.9850 C.3   105  ILE105      0.0001
     49  N         86.6010   15.4210   35.4150 N.3   142  SER142     -0.1202
     50  CA        85.6680   14.9270   34.4200 C.3   142  SER142      0.2020
     51  C         84.2880   14.7350   35.0500 C.2   142  SER142      0.2619
     52  O         84.1580   14.1070   36.1010 O.2   142  SER142     -0.2717
     53  CB        86.1620   13.6270   33.7740 C.3   142  SER142      0.2103
     54  OG        85.9090   12.5030   34.5700 O.3   142  SER142     -0.2182
     55  N         83.2550   15.2380   34.3740 N.am  143  ASP143     -0.1960
     56  CA        81.8610   15.0060   34.7430 C.3   143  ASP143      0.1825
     57  C         81.6530   14.7860   36.2410 C.2   143  ASP143      0.2464
     58  O         81.4270   13.6620   36.6750 O.2   143  ASP143     -0.2730
     59  CB        81.4170   13.7780   33.9470 C.3   143  ASP143      0.1450
     60  CG        79.9730   13.4280   34.1500 C.2   143  ASP143      0.3671
     61  OD1       79.1810   14.3420   34.4670 O.co2 143  ASP143     -0.2456
     62  OD2       79.6390   12.2390   33.9700 O.co2 143  ASP143     -0.2456
     63  N         81.7010   15.8280   37.0570 N.am  144  PRO144     -0.2715
     64  CA        81.6610   15.6470   38.5220 C.3   144  PRO144      0.1536
     65  C         80.3090   15.1640   39.0540 C.2   144  PRO144      0.2599
     66  O         79.2770   15.7890   38.8240 O.2   144  PRO144     -0.2715
     67  CB        81.9240   17.0590   39.0340 C.3   144  PRO144      0.0310
     68  CG        82.4700   17.8070   37.8890 C.3   144  PRO144      0.0237
     69  CD        81.9210   17.2240   36.6810 C.3   144  PRO144      0.0939
     70  N         80.3380   14.1540   39.9060 N.am  145  THR145     -0.1938
     71  CA        79.1790   13.8030   40.7000 C.3   145  THR145      0.2013
     72  C         78.8890   14.9030   41.7110 C.2   145  THR145      0.2484
     73  O         79.6740   15.8380   41.8850 O.2   145  THR145     -0.2729
     74  CB        79.4180   12.5120   41.4670 C.3   145  THR145      0.1807
     75  OG1       80.4720   12.7770   42.4110 O.3   145  THR145     -0.2208
     76  CG2       79.7910   11.3610   40.5030 C.3   145  THR145      0.0379
     77  N         77.7650   14.8110   42.4170 N.am  146  PRO146     -0.2726
     78  CA        77.5400   15.7590   43.5160 C.3   146  PRO146      0.1402
     79  C         78.6270   15.7340   44.5870 C.2   146  PRO146      0.2269
     80  O         79.0710   16.8080   45.0290 O.2   146  PRO146     -0.2865
     81  CB        76.1630   15.3220   44.0630 C.3   146  PRO146      0.0296
     82  CG        75.4930   14.7100   42.9170 C.3   146  PRO146      0.0237
     83  CD        76.5660   14.0080   42.1190 C.3   146  PRO146      0.0939
     84  N         79.9340   12.9400   29.6010 N.3   167  VAL167     -0.1245
     85  CA        79.3740   11.7400   28.9820 C.3   167  VAL167      0.1561
     86  C         78.2100   12.1260   28.0740 C.2   167  VAL167      0.2260
     87  O         78.3970   12.3260   26.8670 O.2   167  VAL167     -0.2867
     88  CB        78.9090   10.6940   30.0410 C.3   167  VAL167      0.0252
     89  CG1       77.9520    9.6730   29.4130 C.3   167  VAL167      0.0019
     90  CG2       80.1180    9.9570   30.6680 C.3   167  VAL167      0.0019
@<TRIPOS>BOND
     1    87    86    2
     2    86    85    1
     3    85    84    1
     4    85    88    1
     5    89    88    1
     6    88    90    1
     7    23    21   ar
     8    23    22   ar
     9    21    19   ar
    10    39    38    1
    11    22    20   ar
    12    29    28    1
    13    40    38    1
    14    19    18   ar
    15    53    50    1
    16    53    54    1
    17    59    60    1
    18    59    56    1
    19    62    60   ar
    20    15    16    2
    21    15    14    1
    22    38    37    2
    23    60    61   ar
    24    28    25    1
    25    55    56    1
    26    55    51   am
    27    50    51    1
    28    50    49    1
    29    20    18   ar
    30    18    17    1
    31    56    57    1
    32    51    52    2
    33    25    24    1
    34    25    26    1
    35    14    17    1
    36    14    13    1
    37    37    36    1
    38    12    11    2
    39    36    35    1
    40    27    26    2
    41    26    30   am
    42    57    58    2
    43    57    63   am
    44    13    11   am
    45    11    10    1
    46    69    63    1
    47    69    68    1
    48    35    34    1
    49    63    64    1
    50    30    31    1
    51    10     9    1
    52    68    67    1
    53    34    31    1
    54    31    32    1
    55    64    67    1
    56    64    65    1
    57     9     3   am
    58    66    65    2
    59     4     3    2
    60    65    70   am
    61     3     2    1
    62    32    33    2
    63    32    41   am
    64     5     2    1
    65     5     6    1
    66     7     6    1
    67    70    71    1
    68     2     1    1
    69    76    74    1
    70    41    42    1
    71     6     8    1
    72    71    74    1
    73    71    72    1
    74    74    75    1
    75    72    73    2
    76    72    77   am
    77    42    45    1
    78    42    43    1
    79    83    77    1
    80    83    82    1
    81    45    47    1
    82    45    46    1
    83    77    78    1
    84    44    43    2
    85    82    81    1
    86    78    81    1
    87    78    79    1
    88    46    48    1
    89    79    80    2
