@<TRIPOS>MOLECULE
tmp/5n23A00.pdb
 170 163 0 0 0
SMALL
GASTEIGER

@<TRIPOS>ATOM
      1  N        -27.8520   15.7640    8.6150 N.3    41  LEU41      -0.1231
      2  CA       -27.9930   14.3330    8.8440 C.3    41  LEU41       0.1693
      3  C        -26.6640   13.5980    8.7000 C.2    41  LEU41       0.2593
      4  O        -26.4270   12.6180    9.4110 O.2    41  LEU41      -0.2718
      5  CB       -29.0110   13.7460    7.8670 C.3    41  LEU41       0.0284
      6  CG       -30.4550   14.2280    7.9490 C.3    41  LEU41       0.0019
      7  CD1      -31.2460   13.6150    6.7850 C.3    41  LEU41       0.0001
      8  CD2      -31.0440   13.8120    9.2830 C.3    41  LEU41       0.0001
      9  N        -25.8110   14.0380    7.7830 N.am   42  GLY42      -0.1942
     10  CA       -24.5490   13.3600    7.5450 C.3    42  GLY42       0.2014
     11  C        -23.7400   14.1220    6.5160 C.2    42  GLY42       0.2639
     12  O        -24.0620   15.2570    6.1660 O.2    42  GLY42      -0.2714
     13  N        -22.6860   13.4850    6.0180 N.am   43  THR43      -0.1950
     14  CA       -21.8020   14.1370    5.0590 C.3    43  THR43       0.1897
     15  C        -21.4530   13.1790    3.9310 C.2    43  THR43       0.2313
     16  O        -21.3900   11.9640    4.1240 O.2    43  THR43      -0.2863
     17  CB       -20.5000   14.6190    5.7130 C.3    43  THR43       0.1794
     18  OG1      -19.9330   13.5440    6.4680 O.3    43  THR43      -0.2208
     19  CG2      -20.7590   15.8030    6.6460 C.3    43  THR43       0.0378
     20  N        -25.3890   16.4940    3.8950 N.3    49  VAL49      -0.1245
     21  CA       -26.7670   16.0900    3.6610 C.3    49  VAL49       0.1561
     22  C        -27.5870   16.6410    4.8220 C.2    49  VAL49       0.2260
     23  O        -27.3190   16.3190    5.9870 O.2    49  VAL49      -0.2867
     24  CB       -26.9090   14.5650    3.5520 C.3    49  VAL49       0.0252
     25  CG1      -28.3670   14.1810    3.3180 C.3    49  VAL49       0.0019
     26  CG2      -26.0260   14.0320    2.4320 C.3    49  VAL49       0.0019
     27  N        -34.3460   14.7260    2.8800 N.3    62  ALA62      -0.1245
     28  CA       -32.9050   14.8130    3.0660 C.3    62  ALA62       0.1562
     29  C        -32.3140   15.4930    1.8380 C.2    62  ALA62       0.2260
     30  O        -32.4060   14.9660    0.7240 O.2    62  ALA62      -0.2867
     31  CB       -32.2820   13.4330    3.2720 C.3    62  ALA62       0.0290
     32  N        -29.2480   16.5900   -0.1990 N.3    64  LYS64      -0.1245
     33  CA       -27.8350   16.3670   -0.4520 C.3    64  LYS64       0.1561
     34  C        -27.2970   17.6010   -1.1520 C.2    64  LYS64       0.2260
     35  O        -27.8110   17.9770   -2.2050 O.2    64  LYS64      -0.2867
     36  CB       -27.6800   15.1220   -1.3220 C.3    64  LYS64       0.0271
     37  CG       -26.3170   14.5020   -1.4090 C.3    64  LYS64       0.0035
     38  CD       -26.4030   13.1690   -2.1610 C.3    64  LYS64       0.0206
     39  CE       -25.2050   12.9790   -3.0690 C.3    64  LYS64       0.1093
     40  NZ       -24.7450   11.5720   -3.0910 N.3    64  LYS64      -0.1314
     41  N        -34.3550    4.9050   -2.7830 N.3    96  VAL96      -0.1245
     42  CA       -34.6550    6.2690   -2.3390 C.3    96  VAL96       0.1561
     43  C        -35.0660    7.1210   -3.5290 C.2    96  VAL96       0.2260
     44  O        -34.3560    7.1770   -4.5460 O.2    96  VAL96      -0.2867
     45  CB       -33.4390    6.9020   -1.6450 C.3    96  VAL96       0.0252
     46  CG1      -33.6860    8.4070   -1.4280 C.3    96  VAL96       0.0019
     47  CG2      -33.1420    6.2120   -0.3390 C.3    96  VAL96       0.0019
     48  N        -33.8770   14.3110   -1.4510 N.3   112  LEU112     -0.1231
     49  CA       -34.1860   12.8960   -1.3550 C.3   112  LEU112      0.1693
     50  C        -35.3320   12.6290   -0.3860 C.2   112  LEU112      0.2592
     51  O        -35.5180   13.3420    0.6030 O.2   112  LEU112     -0.2718
     52  CB       -32.9570   12.1230   -0.8910 C.3   112  LEU112      0.0284
     53  CG       -31.7080   12.3570   -1.7370 C.3   112  LEU112      0.0019
     54  CD1      -30.5450   11.6060   -1.1320 C.3   112  LEU112      0.0001
     55  CD2      -31.9630   11.9320   -3.1840 C.3   112  LEU112      0.0001
     56  N        -36.0920   11.5780   -0.6870 N.am  113  GLU113     -0.1966
     57  CA       -37.0280   11.0080    0.2720 C.3   113  GLU113      0.1733
     58  C        -36.3210   10.6940    1.5910 C.2   113  GLU113      0.2616
     59  O        -35.2250   10.1250    1.6110 O.2   113  GLU113     -0.2715
     60  CB       -37.6390    9.7450   -0.3470 C.3   113  GLU113      0.0429
     61  CG       -38.1680    8.7220    0.6050 C.3   113  GLU113      0.1163
     62  CD       -38.7810    7.5180   -0.1210 C.2   113  GLU113      0.3649
     63  OE1      -38.2040    7.0630   -1.1370 O.co2 113  GLU113     -0.2457
     64  OE2      -39.8440    7.0370    0.3330 O.co2 113  GLU113     -0.2457
     65  N        -36.9530   11.0540    2.6980 N.am  114  TYR114     -0.1960
     66  CA       -36.3260   10.9770    4.0120 C.3   114  TYR114      0.1771
     67  C        -36.6900    9.6670    4.7030 C.2   114  TYR114      0.2619
     68  O        -37.8630    9.2960    4.7820 O.2   114  TYR114     -0.2715
     69  CB       -36.7400   12.1710    4.8680 C.3   114  TYR114      0.0574
     70  CG       -36.3170   12.0850    6.3080 C.ar  114  TYR114     -0.0198
     71  CD1      -34.9840   12.2410    6.6690 C.ar  114  TYR114     -0.0009
     72  CD2      -37.2590   11.8820    7.3210 C.ar  114  TYR114     -0.0009
     73  CE1      -34.5940   12.1780    7.9900 C.ar  114  TYR114      0.0417
     74  CE2      -36.8750   11.8160    8.6570 C.ar  114  TYR114      0.0417
     75  CZ       -35.5370   11.9580    8.9820 C.ar  114  TYR114      0.1957
     76  OH       -35.1320   11.8920   10.2960 O.3   114  TYR114     -0.2866
     77  N        -35.6820    8.9690    5.1950 N.am  115  ALA115     -0.1964
     78  CA       -35.8990    7.7380    5.9380 C.3   115  ALA115      0.1713
     79  C        -35.5980    7.9980    7.4020 C.2   115  ALA115      0.2458
     80  O        -34.4250    8.1730    7.7600 O.2   115  ALA115     -0.2730
     81  CB       -35.0100    6.6170    5.3950 C.3   115  ALA115      0.0333
     82  N        -36.6040    8.0450    8.2800 N.am  116  PRO116     -0.2716
     83  CA       -36.3300    8.3930    9.6840 C.3   116  PRO116      0.1536
     84  C        -35.3520    7.4500   10.3700 C.2   116  PRO116      0.2599
     85  O        -34.6360    7.8830   11.2750 O.2   116  PRO116     -0.2715
     86  CB       -37.7190    8.3380   10.3330 C.3   116  PRO116      0.0310
     87  CG       -38.5180    7.4280    9.4420 C.3   116  PRO116      0.0237
     88  CD       -38.0190    7.6990    8.0560 C.3   116  PRO116      0.0939
     89  N        -35.2700    6.1860    9.9470 N.am  117  GLY117     -0.1941
     90  CA       -34.3420    5.2530   10.5670 C.3   117  GLY117      0.2014
     91  C        -32.8690    5.5070   10.2730 C.2   117  GLY117      0.2639
     92  O        -32.0180    4.9320   10.9570 O.2   117  GLY117     -0.2714
     93  N        -32.5440    6.3350    9.2890 N.am  118  GLY118     -0.1939
     94  CA       -31.1230    6.4900    8.9980 C.3   118  GLY118      0.2014
     95  C        -30.5100    5.2410    8.3660 C.2   118  GLY118      0.2638
     96  O        -31.1980    4.3870    7.8010 O.2   118  GLY118     -0.2714
     97  N        -29.1880    5.1240    8.5190 N.am  119  GLU119     -0.1977
     98  CA       -28.3950    4.1230    7.8080 C.3   119  GLU119      0.1602
     99  C        -28.3500    2.7880    8.5390 C.2   119  GLU119      0.2287
    100  O        -28.1500    2.7360    9.7570 O.2   119  GLU119     -0.2864
    101  CB       -26.9710    4.6390    7.5980 C.3   119  GLU119      0.0415
    102  CG       -26.9380    5.9580    6.8270 C.3   119  GLU119      0.1163
    103  CD       -25.6850    6.7810    7.0800 C.2   119  GLU119      0.3649
    104  OE1      -24.5890    6.3550    6.6370 O.co2 119  GLU119     -0.2457
    105  OE2      -25.8080    7.8570    7.7200 O.co2 119  GLU119     -0.2457
    106  N        -25.3520    2.2020   10.9740 N.3   122  SER122     -0.1202
    107  CA       -25.4080    2.5880   12.3790 C.3   122  SER122      0.2020
    108  C        -26.0070    1.4770   13.2340 C.2   122  SER122      0.2618
    109  O        -25.4480    1.1090   14.2690 O.2   122  SER122     -0.2717
    110  CB       -26.2160    3.8780   12.5300 C.3   122  SER122      0.2103
    111  OG       -25.5960    4.9360   11.8250 O.3   122  SER122     -0.2182
    112  N        -27.1550    0.9440   12.8220 N.am  123  HIS123     -0.1975
    113  CA       -27.8240   -0.0650   13.6360 C.3   123  HIS123      0.1656
    114  C        -27.0320   -1.3630   13.6540 C.2   123  HIS123      0.2291
    115  O        -26.9610   -2.0380   14.6880 O.2   123  HIS123     -0.2864
    116  CB       -29.2500   -0.3020   13.1220 C.3   123  HIS123      0.0771
    117  CG       -30.0660    0.9480   13.0230 C.ar  123  HIS123      0.0820
    118  ND1      -30.7230    1.4940   14.1040 N.ar  123  HIS123     -0.2267
    119  CD2      -30.3230    1.7650   11.9730 C.ar  123  HIS123      0.1154
    120  CE1      -31.3510    2.5950   13.7260 C.ar  123  HIS123      0.1986
    121  NE2      -31.1260    2.7790   12.4370 N.ar  123  HIS123     -0.2212
    122  N        -23.6460    1.4690    4.7160 N.3   161  GLU161     -0.1245
    123  CA       -23.7100    2.9310    4.8150 C.3   161  GLU161      0.1567
    124  C        -24.7600    3.5020    3.8700 C.2   161  GLU161      0.2260
    125  O        -25.3520    4.5460    4.1600 O.2   161  GLU161     -0.2867
    126  CB       -22.3400    3.5730    4.5070 C.3   161  GLU161      0.0388
    127  CG       -21.2140    3.3220    5.5410 C.3   161  GLU161      0.1160
    128  CD       -20.4350    2.0200    5.3060 C.2   161  GLU161      0.3649
    129  OE1      -21.0600    0.9990    4.9500 O.co2 161  GLU161     -0.2457
    130  OE2      -19.1920    2.0120    5.4880 O.co2 161  GLU161     -0.2457
    131  N        -30.8470    2.7290    3.7790 N.3   164  LEU164     -0.1245
    132  CA       -31.6120    3.4120    4.8160 C.3   164  LEU164      0.1561
    133  C        -32.7780    2.5300    5.2640 C.2   164  LEU164      0.2260
    134  O        -33.2650    1.6920    4.5030 O.2   164  LEU164     -0.2867
    135  CB       -32.1070    4.7680    4.3140 C.3   164  LEU164      0.0270
    136  CG       -30.9830    5.6540    3.7530 C.3   164  LEU164      0.0019
    137  CD1      -31.5450    6.7370    2.8700 C.3   164  LEU164      0.0001
    138  CD2      -30.1340    6.2770    4.8650 C.3   164  LEU164      0.0001
    139  N        -29.7900    4.1190   -1.0390 N.3   174  ALA174     -0.1245
    140  CA       -29.4170    5.5060   -1.2930 C.3   174  ALA174      0.1562
    141  C        -28.0870    5.5900   -2.0320 C.2   174  ALA174      0.2260
    142  O        -27.3210    4.6240   -2.1110 O.2   174  ALA174     -0.2867
    143  CB       -29.3130    6.3070    0.0140 C.3   174  ALA174      0.0290
    144  N        -32.2430   12.5410   18.2320 N.3   310  ASN310     -0.1225
    145  CA       -31.4820   11.2930   18.1960 C.3   310  ASN310      0.1785
    146  C        -30.3850   11.2880   17.1300 C.2   310  ASN310      0.2597
    147  O        -29.9000   10.2090   16.7650 O.2   310  ASN310     -0.2718
    148  CB       -32.4190   10.0970   17.9450 C.3   310  ASN310      0.1169
    149  CG       -32.8980   10.0240   16.5000 C.2   310  ASN310      0.2627
    150  OD1      -32.2370    9.4380   15.6370 O.2   310  ASN310     -0.2716
    151  ND2      -34.0490   10.6350   16.2290 N.am  310  ASN310     -0.0877
    152  N        -29.9790   12.4430   16.6240 N.am  311  PHE311     -0.1962
    153  CA       -28.9940   12.5300   15.5600 C.3   311  PHE311      0.1771
    154  C        -27.6180   12.8490   16.1380 C.2   311  PHE311      0.2619
    155  O        -27.4990   13.4650   17.2000 O.2   311  PHE311     -0.2715
    156  CB       -29.3970   13.6050   14.5460 C.3   311  PHE311      0.0574
    157  CG       -30.8390   13.5240   14.1070 C.ar  311  PHE311     -0.0200
    158  CD1      -31.8350   14.1760   14.8220 C.ar  311  PHE311     -0.0042
    159  CD2      -31.1960   12.8090   12.9730 C.ar  311  PHE311     -0.0042
    160  CE1      -33.1570   14.1080   14.4200 C.ar  311  PHE311     -0.0003
    161  CE2      -32.5190   12.7400   12.5610 C.ar  311  PHE311     -0.0003
    162  CZ       -33.5000   13.3880   13.2870 C.ar  311  PHE311     -0.0000
    163  N        -26.5750   12.4090   15.4350 N.am  312  ASP312     -0.1971
    164  CA       -25.2260   12.8400   15.7790 C.3   312  ASP312      0.1709
    165  C        -25.1260   14.3490   15.6020 C.2   312  ASP312      0.2293
    166  O        -25.5370   14.8910   14.5720 O.2   312  ASP312     -0.2864
    167  CB       -24.1830   12.1350   14.9030 C.3   312  ASP312      0.1436
    168  CG       -24.1940   10.6250   15.0690 C.2   312  ASP312      0.3671
    169  OD1      -24.8200   10.1230   16.0230 O.co2 312  ASP312     -0.2456
    170  OD2      -23.5620    9.9350   14.2450 O.co2 312  ASP312     -0.2456
@<TRIPOS>BOND
     1    44    43    2
     2    43    42    1
     3    55    53    1
     4    40    39    1
     5    39    38    1
     6    41    42    1
     7    42    45    1
     8    35    34    2
     9    38    37    1
    10   142   141    2
    11   141   140    1
    12    53    54    1
    13    53    52    1
    14    45    46    1
    15    45    47    1
    16    48    49    1
    17    37    36    1
    18    49    52    1
    19    49    50    1
    20    36    33    1
    21   140   139    1
    22   140   143    1
    23    34    33    1
    24    63    62   ar
    25    56    50   am
    26    56    57    1
    27    33    32    1
    28    50    51    2
    29    60    57    1
    30    60    61    1
    31    62    64   ar
    32    62    61    1
    33    57    58    1
    34    30    29    2
    35    58    59    2
    36    58    65   am
    37    29    28    1
    38    26    24    1
    39    65    66    1
    40   137   136    1
    41    27    28    1
    42    28    31    1
    43    25    24    1
    44    24    21    1
    45    21    20    1
    46    21    22    1
    47   136   135    1
    48   136   138    1
    49   131   132    1
    50   124   125    2
    51   124   123    1
    52    15    16    2
    53    15    14    1
    54    66    67    1
    55    66    69    1
    56   135   132    1
    57   134   133    2
    58   126   123    1
    59   126   127    1
    60    67    68    2
    61    67    77   am
    62   122   123    1
    63   132   133    1
    64    22    23    2
    65    69    70    1
    66   129   128   ar
    67    14    17    1
    68    14    13    1
    69    77    78    1
    70   128   130   ar
    71   128   127    1
    72    81    78    1
    73    17    18    1
    74    17    19    1
    75    78    79    1
    76    13    11   am
    77    12    11    2
    78    70    71   ar
    79    70    72   ar
    80    11    10    1
    81   104   103   ar
    82    71    73   ar
    83     7     6    1
    84   102   103    1
    85   102   101    1
    86   103   105   ar
    87    72    74   ar
    88    79    80    2
    89    79    82   am
    90    10     9    1
    91   101    98    1
    92     9     3   am
    93    96    95    2
    94    98    97    1
    95    98    99    1
    96     5     6    1
    97     5     2    1
    98     6     8    1
    99    73    75   ar
   100    88    82    1
   101    88    87    1
   102    82    83    1
   103    95    97   am
   104    95    94    1
   105    99   100    2
   106     1     2    1
   107    74    75   ar
   108     3     2    1
   109     3     4    2
   110    75    76    1
   111    94    93    1
   112    93    91   am
   113    87    86    1
   114    83    86    1
   115    83    84    1
   116    89    84   am
   117    89    90    1
   118    91    90    1
   119    91    92    2
   120    84    85    2
   121   106   107    1
   122   111   110    1
   123   119   121   ar
   124   119   117   ar
   125   107   110    1
   126   107   108    1
   127   121   120   ar
   128   161   159   ar
   129   161   162   ar
   130   112   108   am
   131   112   113    1
   132   159   157   ar
   133   117   116    1
   134   117   118   ar
   135   116   113    1
   136   108   109    2
   137   162   160   ar
   138   113   114    1
   139   114   115    2
   140   120   118   ar
   141   157   156    1
   142   157   158   ar
   143   170   168   ar
   144   160   158   ar
   145   156   153    1
   146   166   165    2
   147   167   168    1
   148   167   164    1
   149   168   169   ar
   150   163   164    1
   151   163   154   am
   152   153   154    1
   153   153   152    1
   154   165   164    1
   155   150   149    2
   156   154   155    2
   157   151   149   am
   158   149   148    1
   159   152   146   am
   160   147   146    2
   161   146   145    1
   162   148   145    1
   163   145   144    1
