@<TRIPOS>MOLECULE
tmp/5n24A01.pdb
 104 109 0 0 0
SMALL
GASTEIGER

@<TRIPOS>ATOM
      1  N         11.6160   -0.3200    3.9490 N.3     1  HIS1       -0.1226
      2  CA        11.7000   -1.0040    5.2750 C.3     1  HIS1        0.1752
      3  C         11.2960   -0.1000    6.4370 C.2     1  HIS1        0.2596
      4  O         11.7970    1.0230    6.5800 O.2     1  HIS1       -0.2718
      5  CB        13.1100   -1.5430    5.5180 C.3     1  HIS1        0.0759
      6  CG        13.5900   -2.4910    4.4640 C.ar    1  HIS1        0.0818
      7  ND1       12.9940   -3.7130    4.2310 N.ar    1  HIS1       -0.2268
      8  CD2       14.6230   -2.4040    3.5930 C.ar    1  HIS1        0.1154
      9  CE1       13.6320   -4.3310    3.2530 C.ar    1  HIS1        0.1986
     10  NE2       14.6240   -3.5580    2.8470 N.ar    1  HIS1       -0.2212
     11  N         10.3880   -0.6130    7.2640 N.am    2  HIS2       -0.1961
     12  CA         9.8610    0.0880    8.4420 C.3     2  HIS2        0.1787
     13  C          9.1670   -0.9570    9.3050 C.2     2  HIS2        0.2620
     14  O          9.2620   -2.1540    9.0310 O.2     2  HIS2       -0.2715
     15  CB         8.8820    1.2020    8.0400 C.3     2  HIS2        0.0785
     16  CG         7.9710    0.8270    6.9130 C.ar    2  HIS2        0.0821
     17  ND1        6.7640    0.1920    7.1110 N.ar    2  HIS2       -0.2267
     18  CD2        8.1000    0.9810    5.5720 C.ar    2  HIS2        0.1154
     19  CE1        6.1830   -0.0210    5.9420 C.ar    2  HIS2        0.1986
     20  NE2        6.9750    0.4440    4.9920 N.ar    2  HIS2       -0.2212
     21  N          8.4620   -0.5170   10.3410 N.am    3  TRP3       -0.1974
     22  CA         7.7970   -1.4630   11.2360 C.3     3  TRP3        0.1640
     23  C          6.7560   -2.2880   10.4720 C.2     3  TRP3        0.2290
     24  O          6.1630   -1.8170    9.4970 O.2     3  TRP3       -0.2864
     25  CB         7.1470   -0.7390   12.4270 C.3     3  TRP3        0.0576
     26  CG         5.9270    0.0700   12.0670 C.ar    3  TRP3        0.0006
     27  CD1        5.8800    1.3870   11.6900 C.ar    3  TRP3        0.0946
     28  CD2        4.5790   -0.4030   12.0460 C.ar    3  TRP3        0.0152
     29  NE1        4.5810    1.7630   11.4380 N.ar    3  TRP3       -0.2442
     30  CE2        3.7620    0.6810   11.6500 C.ar    3  TRP3        0.0810
     31  CE3        3.9800   -1.6420   12.3350 C.ar    3  TRP3        0.0012
     32  CZ2        2.3760    0.5610   11.5190 C.ar    3  TRP3        0.0191
     33  CZ3        2.6080   -1.7620   12.1950 C.ar    3  TRP3        0.0001
     34  CH2        1.8210   -0.6620   11.8000 C.ar    3  TRP3        0.0015
     35  N         11.3480   -9.7910   11.0550 N.3     8  HIS8       -0.1226
     36  CA        12.4040   -8.8240   11.2680 C.3     8  HIS8        0.1752
     37  C         11.9410   -7.4240   11.6560 C.2     8  HIS8        0.2596
     38  O         12.7500   -6.5730   12.0050 O.2     8  HIS8       -0.2718
     39  CB        13.3030   -8.8250   10.0330 C.3     8  HIS8        0.0759
     40  CG        13.8800  -10.1770    9.7420 C.ar    8  HIS8        0.0818
     41  ND1       14.8290  -10.7630   10.5530 N.ar    8  HIS8       -0.2268
     42  CD2       13.6170  -11.0730    8.7600 C.ar    8  HIS8        0.1154
     43  CE1       15.1340  -11.9570   10.0770 C.ar    8  HIS8        0.1986
     44  NE2       14.4110  -12.1710    8.9910 N.ar    8  HIS8       -0.2212
     45  N         10.6370   -7.1870   11.6440 N.am    9  ASN9       -0.1974
     46  CA        10.1500   -5.8480   11.9160 C.3     9  ASN9        0.1688
     47  C          8.8540   -5.8650   12.7290 C.2     9  ASN9        0.2292
     48  O          8.1610   -4.8530   12.8190 O.2     9  ASN9       -0.2864
     49  CB         9.9480   -5.1080   10.5990 C.3     9  ASN9        0.1181
     50  CG         8.8830   -5.7480    9.7180 C.2     9  ASN9        0.2629
     51  OD1        8.3970   -6.8530    9.9950 O.2     9  ASN9       -0.2716
     52  ND2        8.5200   -5.0570    8.6470 N.am    9  ASN9       -0.0877
     53  N         10.1450   -5.8770   17.8600 N.3    13  HIS13      -0.1226
     54  CA        11.1230   -4.9040   17.3800 C.3    13  HIS13       0.1752
     55  C         10.6920   -3.4590   17.5720 C.2    13  HIS13       0.2596
     56  O         11.5270   -2.5430   17.5370 O.2    13  HIS13      -0.2718
     57  CB        11.3820   -5.0970   15.8840 C.3    13  HIS13       0.0759
     58  CG        12.1400   -6.3420   15.5610 C.ar   13  HIS13       0.0818
     59  ND1       13.5100   -6.4220   15.6790 N.ar   13  HIS13      -0.2268
     60  CD2       11.7270   -7.5470   15.1070 C.ar   13  HIS13       0.1154
     61  CE1       13.9100   -7.6280   15.3190 C.ar   13  HIS13       0.1986
     62  NE2       12.8480   -8.3320   14.9700 N.ar   13  HIS13      -0.2212
     63  N          9.3920   -3.2420   17.7400 N.am   14  TRP14      -0.1976
     64  CA         8.8420   -1.8900   17.6760 C.3    14  TRP14       0.1640
     65  C          9.4240   -0.9050   18.6970 C.2    14  TRP14       0.2290
     66  O          9.5440    0.2820   18.4060 O.2    14  TRP14      -0.2864
     67  CB         7.3190   -1.9250   17.8310 C.3    14  TRP14       0.0576
     68  CG         6.5740   -2.6340   16.7200 C.ar   14  TRP14       0.0006
     69  CD1        7.0670   -3.0540   15.5070 C.ar   14  TRP14       0.0946
     70  CD2        5.1790   -2.9600   16.7140 C.ar   14  TRP14       0.0152
     71  NE1        6.0670   -3.6390   14.7660 N.ar   14  TRP14      -0.2442
     72  CE2        4.8970   -3.5880   15.4820 C.ar   14  TRP14       0.0810
     73  CE3        4.1410   -2.7820   17.6360 C.ar   14  TRP14       0.0012
     74  CZ2        3.6100   -4.0360   15.1380 C.ar   14  TRP14       0.0191
     75  CZ3        2.8670   -3.2340   17.3030 C.ar   14  TRP14       0.0001
     76  CH2        2.6120   -3.8460   16.0600 C.ar   14  TRP14       0.0015
     77  N         12.2630   -0.2760   19.6120 N.3    16  LYS16      -0.1231
     78  CA        13.5190    0.3750   19.2100 C.3    16  LYS16       0.1693
     79  C         13.2900    1.7050   18.4910 C.2    16  LYS16       0.2592
     80  O         14.1440    2.5920   18.5320 O.2    16  LYS16      -0.2718
     81  CB        14.3510   -0.5560   18.3290 C.3    16  LYS16       0.0285
     82  CG        14.8970   -1.7710   19.0670 C.3    16  LYS16       0.0035
     83  CD        15.6550   -2.6890   18.1150 C.3    16  LYS16       0.0206
     84  CE        14.7310   -3.6490   17.3820 C.3    16  LYS16       0.1093
     85  NZ        15.4650   -4.3720   16.3030 N.3    16  LYS16      -0.1314
     86  N         12.1460    1.8490   17.8310 N.am   17  ASP17      -0.1960
     87  CA        11.7810    3.1380   17.2280 C.3    17  ASP17       0.1840
     88  C         10.6540    3.8480   17.9640 C.2    17  ASP17       0.2622
     89  O         10.4740    5.0480   17.8010 O.2    17  ASP17      -0.2715
     90  CB        11.4530    2.9950   15.7420 C.3    17  ASP17       0.1450
     91  CG        12.7010    2.8270   14.8980 C.2    17  ASP17       0.3671
     92  OD1       13.2800    3.8420   14.4690 O.co2  17  ASP17      -0.2456
     93  OD2       13.1300    1.6780   14.7170 O.co2  17  ASP17      -0.2456
     94  N          9.9200    3.1060   18.7920 N.am   18  PHE18      -0.1974
     95  CA         8.7550    3.6300   19.5010 C.3    18  PHE18       0.1639
     96  C          8.8540    3.1410   20.9380 C.2    18  PHE18       0.2290
     97  O          8.2210    2.1490   21.3030 O.2    18  PHE18      -0.2864
     98  CB         7.4610    3.1600   18.7980 C.3    18  PHE18       0.0560
     99  CG         7.4030    3.5350   17.3460 C.ar   18  PHE18      -0.0200
    100  CD1        6.9650    4.8000   16.9630 C.ar   18  PHE18      -0.0042
    101  CD2        7.8190    2.6390   16.3520 C.ar   18  PHE18      -0.0042
    102  CE1        6.9310    5.1530   15.6170 C.ar   18  PHE18      -0.0003
    103  CE2        7.7990    2.9980   15.0150 C.ar   18  PHE18      -0.0003
    104  CZ         7.3450    4.2540   14.6470 C.ar   18  PHE18      -0.0000
@<TRIPOS>BOND
     1    10     9   ar
     2    10     8   ar
     3     9     7   ar
     4     8     6   ar
     5     1     2    1
     6     7     6   ar
     7     6     5    1
     8    20    18   ar
     9    20    19   ar
    10     2     5    1
    11     2     3    1
    12    18    16   ar
    13    19    17   ar
    14     3     4    2
    15     3    11   am
    16    16    17   ar
    17    16    15    1
    18    11    12    1
    19    15    12    1
    20    12    13    1
    21    52    50   am
    22    42    44   ar
    23    42    40   ar
    24    44    43   ar
    25    14    13    2
    26    13    21   am
    27    24    23    2
    28    50    51    2
    29    50    49    1
    30    40    39    1
    31    40    41   ar
    32    39    36    1
    33    43    41   ar
    34    21    22    1
    35    23    22    1
    36    49    46    1
    37    35    36    1
    38    22    25    1
    39    36    37    1
    40    29    30   ar
    41    29    27   ar
    42    32    30   ar
    43    32    34   ar
    44    45    37   am
    45    45    46    1
    46    30    28   ar
    47    37    38    2
    48    27    26   ar
    49    34    33   ar
    50    46    47    1
    51    28    26   ar
    52    28    31   ar
    53    26    25    1
    54    33    31   ar
    55    47    48    2
    56    92    91   ar
    57   104   103   ar
    58   104   102   ar
    59    93    91   ar
    60    71    72   ar
    61    71    69   ar
    62    91    90    1
    63    62    60   ar
    64    62    61   ar
    65   103   101   ar
    66    60    58   ar
    67    74    72   ar
    68    74    76   ar
    69    61    59   ar
    70    72    70   ar
    71    69    68   ar
    72    58    59   ar
    73    58    57    1
    74   102   100   ar
    75    90    87    1
    76    57    54    1
    77    76    75   ar
    78    85    84    1
    79   101    99   ar
    80    70    68   ar
    81    70    73   ar
    82    68    67    1
    83   100    99   ar
    84    87    86    1
    85    87    88    1
    86    75    73   ar
    87    99    98    1
    88    54    55    1
    89    54    53    1
    90    84    83    1
    91    56    55    2
    92    55    63   am
    93    64    63    1
    94    64    67    1
    95    64    65    1
    96    89    88    2
    97    86    79   am
    98    88    94   am
    99    83    82    1
   100    81    82    1
   101    81    78    1
   102    66    65    2
   103    79    80    2
   104    79    78    1
   105    94    95    1
   106    98    95    1
   107    78    77    1
   108    95    96    1
   109    96    97    2
