@<TRIPOS>MOLECULE
tmp/5n24A00.pdb
 143 141 0 0 0
SMALL
GASTEIGER

@<TRIPOS>ATOM
      1  N          8.4620   -0.5170   10.3410 N.3     3  TRP3       -0.1241
      2  CA         7.7970   -1.4630   11.2360 C.3     3  TRP3        0.1605
      3  C          6.7560   -2.2880   10.4720 C.2     3  TRP3        0.2264
      4  O          6.1630   -1.8170    9.4970 O.2     3  TRP3       -0.2867
      5  CB         7.1470   -0.7390   12.4270 C.3     3  TRP3        0.0550
      6  CG         5.9270    0.0700   12.0670 C.ar    3  TRP3        0.0003
      7  CD1        5.8800    1.3870   11.6900 C.ar    3  TRP3        0.0946
      8  CD2        4.5790   -0.4030   12.0460 C.ar    3  TRP3        0.0152
      9  NE1        4.5810    1.7630   11.4380 N.ar    3  TRP3       -0.2442
     10  CE2        3.7620    0.6810   11.6500 C.ar    3  TRP3        0.0810
     11  CE3        3.9800   -1.6420   12.3350 C.ar    3  TRP3        0.0012
     12  CZ2        2.3760    0.5610   11.5190 C.ar    3  TRP3        0.0191
     13  CZ3        2.6080   -1.7620   12.1950 C.ar    3  TRP3        0.0001
     14  CH2        1.8210   -0.6620   11.8000 C.ar    3  TRP3        0.0015
     15  N        -12.6520    6.1640   11.0680 N.3    90  GLN90      -0.1245
     16  CA       -12.3760    5.0030   10.2130 C.3    90  GLN90       0.1566
     17  C        -12.6010    3.7400   10.9920 C.2    90  GLN90       0.2260
     18  O        -12.6440    3.7860   12.2130 O.2    90  GLN90      -0.2867
     19  CB       -10.9360    5.0340    9.6880 C.3    90  GLN90       0.0367
     20  CG        -9.8680    5.1970   10.7660 C.3    90  GLN90       0.0905
     21  CD        -9.0590    3.9440   11.0530 C.2    90  GLN90       0.2608
     22  OE1       -9.5530    2.8200   10.9680 O.2    90  GLN90      -0.2717
     23  NE2       -7.8010    4.1430   11.4000 N.am   90  GLN90      -0.0878
     24  N        -11.1670   -0.5420   10.7870 N.3    92  HIS92      -0.1241
     25  CA       -10.2780   -1.5140   10.1630 C.3    92  HIS92       0.1621
     26  C        -10.3360   -2.7900   10.9780 C.2    92  HIS92       0.2264
     27  O        -10.9920   -2.8410   12.0330 O.2    92  HIS92      -0.2867
     28  CB        -8.8340   -1.0010   10.1400 C.3    92  HIS92       0.0745
     29  CG        -8.2950   -0.7100   11.4940 C.ar   92  HIS92       0.0817
     30  ND1       -8.4510    0.5150   12.1090 N.ar   92  HIS92      -0.2268
     31  CD2       -7.6570   -1.5060   12.3830 C.ar   92  HIS92       0.1154
     32  CE1       -7.9020    0.4660   13.3130 C.ar   92  HIS92       0.1986
     33  NE2       -7.4310   -0.7520   13.5110 N.ar   92  HIS92      -0.2212
     34  N         -7.9450   -6.4560   12.2790 N.3    94  HIS94      -0.1241
     35  CA        -6.7340   -7.2620   12.4150 C.3    94  HIS94       0.1621
     36  C         -7.1660   -8.7140   12.2970 C.2    94  HIS94       0.2264
     37  O         -8.2270   -9.0750   12.8040 O.2    94  HIS94      -0.2867
     38  CB        -6.0950   -7.0250   13.7720 C.3    94  HIS94       0.0745
     39  CG        -5.8030   -5.5880   14.0320 C.ar   94  HIS94       0.0817
     40  ND1       -4.5550   -5.0410   13.8230 N.ar   94  HIS94      -0.2268
     41  CD2       -6.6010   -4.5730   14.4330 C.ar   94  HIS94       0.1154
     42  CE1       -4.5940   -3.7510   14.1140 C.ar   94  HIS94       0.1986
     43  NE2       -5.8290   -3.4400   14.4620 N.ar   94  HIS94      -0.2212
     44  N        -11.9460   -2.7090   14.6650 N.3   117  HIS117     -0.1241
     45  CA       -11.6930   -1.4900   15.4300 C.3   117  HIS117      0.1621
     46  C        -12.3760   -0.3360   14.7680 C.2   117  HIS117      0.2264
     47  O        -12.0210    0.0190   13.6350 O.2   117  HIS117     -0.2867
     48  CB       -10.1910   -1.2380   15.4960 C.3   117  HIS117      0.0745
     49  CG        -9.4960   -2.1920   16.4040 C.ar  117  HIS117      0.0817
     50  ND1       -8.1340   -2.4050   16.3860 N.ar  117  HIS117     -0.2268
     51  CD2       -9.9980   -3.0110   17.3530 C.ar  117  HIS117      0.1154
     52  CE1       -7.8280   -3.3170   17.2940 C.ar  117  HIS117      0.1986
     53  NE2       -8.9400   -3.6930   17.8990 N.ar  117  HIS117     -0.2212
     54  N        -12.6750    3.4340   15.0830 N.3   119  VAL119     -0.1245
     55  CA       -11.8440    4.4720   15.6940 C.3   119  VAL119      0.1561
     56  C        -12.5590    5.8190   15.7200 C.2   119  VAL119      0.2260
     57  O        -12.9850    6.3100   14.6750 O.2   119  VAL119     -0.2867
     58  CB       -10.5200    4.6060   14.8890 C.3   119  VAL119      0.0252
     59  CG1       -9.6260    5.6780   15.5070 C.3   119  VAL119      0.0019
     60  CG2       -9.8070    3.2530   14.7690 C.3   119  VAL119      0.0019
     61  N         -8.3800   14.6100   14.4370 N.3   128  PHE128     -0.1241
     62  CA        -7.7390   13.3650   14.7910 C.3   128  PHE128      0.1605
     63  C         -6.2600   13.5330   15.1400 C.2   128  PHE128      0.2264
     64  O         -5.7720   12.9250   16.0930 O.2   128  PHE128     -0.2867
     65  CB        -7.9180   12.3700   13.6360 C.3   128  PHE128      0.0534
     66  CG        -7.2950   11.0310   13.8910 C.ar  128  PHE128     -0.0203
     67  CD1       -7.9650   10.0680   14.6340 C.ar  128  PHE128     -0.0042
     68  CD2       -6.0270   10.7400   13.4040 C.ar  128  PHE128     -0.0042
     69  CE1       -7.3800    8.8410   14.8920 C.ar  128  PHE128     -0.0003
     70  CE2       -5.4380    9.5120   13.6480 C.ar  128  PHE128     -0.0003
     71  CZ        -6.1200    8.5570   14.3890 C.ar  128  PHE128     -0.0000
     72  N         -4.8330   12.3790   18.9140 N.3   132  VAL132     -0.1245
     73  CA        -3.8780   11.3000   19.2710 C.3   132  VAL132      0.1561
     74  C         -2.7610   11.7430   20.2230 C.2   132  VAL132      0.2260
     75  O         -2.0600   10.9090   20.8020 O.2   132  VAL132     -0.2867
     76  CB        -3.2700   10.5490   18.0580 C.3   132  VAL132      0.0252
     77  CG1       -4.3710    9.9480   17.2000 C.3   132  VAL132      0.0019
     78  CG2       -2.3480   11.4460   17.2430 C.3   132  VAL132      0.0019
     79  N         -8.8160    9.4090   21.9350 N.3   138  LEU138     -0.1245
     80  CA        -9.5120    8.4220   21.1110 C.3   138  LEU138      0.1561
     81  C        -10.3960    7.5030   21.9280 C.2   138  LEU138      0.2260
     82  O        -10.1240    7.2460   23.1010 O.2   138  LEU138     -0.2867
     83  CB        -8.5220    7.5650   20.3030 C.3   138  LEU138      0.0270
     84  CG        -7.6300    8.1980   19.2230 C.3   138  LEU138      0.0019
     85  CD1       -6.9690    7.1270   18.3630 C.3   138  LEU138      0.0001
     86  CD2       -8.3260    9.2320   18.3470 C.3   138  LEU138      0.0001
     87  N        -11.7450    3.7140   20.9310 N.3   140  VAL140     -0.1245
     88  CA       -11.8230    2.6510   19.9300 C.3   140  VAL140      0.1561
     89  C        -12.8020    1.5720   20.4060 C.2   140  VAL140      0.2260
     90  O        -12.6590    0.9970   21.5010 O.2   140  VAL140     -0.2867
     91  CB       -10.4430    2.0460   19.5650 C.3   140  VAL140      0.0252
     92  CG1      -10.6210    1.0570   18.4050 C.3   140  VAL140      0.0019
     93  CG2       -9.5040    3.1480   19.1270 C.3   140  VAL140      0.0019
     94  N         -2.8580    3.0070   21.0770 N.3   195  LEU195     -0.1231
     95  CA        -2.8720    2.4650   19.7190 C.3   195  LEU195      0.1693
     96  C         -2.1440    1.1470   19.7590 C.2   195  LEU195      0.2593
     97  O         -1.1300    1.0090   20.4580 O.2   195  LEU195     -0.2718
     98  CB        -2.1290    3.3900   18.7520 C.3   195  LEU195      0.0284
     99  CG        -2.5570    4.8540   18.7050 C.3   195  LEU195      0.0019
    100  CD1       -1.6660    5.6460   17.7570 C.3   195  LEU195      0.0001
    101  CD2       -4.0080    4.9790   18.2610 C.3   195  LEU195      0.0001
    102  N         -2.6250    0.1820   18.9840 N.am  196  THR196     -0.1939
    103  CA        -1.9650   -1.1240   18.9490 C.3   196  THR196      0.2028
    104  C         -0.9130   -1.2460   17.8450 C.2   196  THR196      0.2643
    105  O         -0.3450   -2.3150   17.6780 O.2   196  THR196     -0.2714
    106  CB        -2.9630   -2.2790   18.7630 C.3   196  THR196      0.1808
    107  OG1       -3.5580   -2.1750   17.4700 O.3   196  THR196     -0.2208
    108  CG2       -4.0300   -2.2720   19.8570 C.3   196  THR196      0.0379
    109  N         -0.6810   -0.1770   17.0910 N.am  197  THR197     -0.1937
    110  CA         0.4270   -0.1490   16.1290 C.3   197  THR197      0.2013
    111  C          1.2360    1.1010   16.4190 C.2   197  THR197      0.2484
    112  O          0.7230    2.0360   17.0360 O.2   197  THR197     -0.2729
    113  CB        -0.0210   -0.0900   14.6520 C.3   197  THR197      0.1807
    114  OG1       -0.4160    1.2450   14.2870 O.3   197  THR197     -0.2208
    115  CG2       -1.1570   -1.0750   14.3540 C.3   197  THR197      0.0379
    116  N          2.4960    1.1420   15.9480 N.am  198  PRO198     -0.2715
    117  CA         3.2020    2.4180   15.9780 C.3   198  PRO198      0.1521
    118  C          2.2980    3.5420   15.4230 C.2   198  PRO198      0.2440
    119  O          1.5940    3.3240   14.4270 O.2   198  PRO198     -0.2731
    120  CB         4.3930    2.1370   15.0620 C.3   198  PRO198      0.0310
    121  CG         4.7200    0.7050   15.3790 C.3   198  PRO198      0.0237
    122  CD         3.3540    0.0550   15.4310 C.3   198  PRO198      0.0939
    123  N          2.2880    4.7220   16.0390 N.am  199  PRO199     -0.2727
    124  CA         3.2250    5.1700   17.0870 C.3   199  PRO199      0.1402
    125  C          2.9350    4.7420   18.5440 C.2   199  PRO199      0.2269
    126  O          3.6290    5.1930   19.4750 O.2   199  PRO199     -0.2865
    127  CB         3.1500    6.6980   16.9620 C.3   199  PRO199      0.0296
    128  CG         1.7880    6.9730   16.4120 C.3   199  PRO199      0.0237
    129  CD         1.5170    5.8390   15.4570 C.3   199  PRO199      0.0939
    130  N        -10.3470    2.1950   25.4910 N.3   206  TRP206     -0.1241
    131  CA       -10.7860    0.9730   24.7980 C.3   206  TRP206      0.1605
    132  C        -12.1570    0.5590   25.2790 C.2   206  TRP206      0.2264
    133  O        -12.3970    0.5100   26.4920 O.2   206  TRP206     -0.2867
    134  CB        -9.7820   -0.1750   24.9960 C.3   206  TRP206      0.0550
    135  CG        -8.6820   -0.0510   24.0000 C.ar  206  TRP206      0.0003
    136  CD1       -7.4500    0.5200   24.1960 C.ar  206  TRP206      0.0946
    137  CD2       -8.7340   -0.4460   22.6280 C.ar  206  TRP206      0.0152
    138  NE1       -6.7340    0.4920   23.0240 N.ar  206  TRP206     -0.2442
    139  CE2       -7.4950   -0.1050   22.0490 C.ar  206  TRP206      0.0810
    140  CE3       -9.7100   -1.0710   21.8320 C.ar  206  TRP206      0.0012
    141  CZ2       -7.2010   -0.3550   20.6910 C.ar  206  TRP206      0.0191
    142  CZ3       -9.4230   -1.3380   20.5010 C.ar  206  TRP206      0.0001
    143  CH2       -8.1700   -0.9890   19.9440 C.ar  206  TRP206      0.0015
@<TRIPOS>BOND
     1     4     3    2
     2    19    16    1
     3    19    20    1
     4    28    25    1
     5    28    29    1
     6    25    24    1
     7    25    26    1
     8    16    17    1
     9    16    15    1
    10     1     2    1
    11     3     2    1
    12    20    21    1
    13    22    21    2
    14    26    27    2
    15    17    18    2
    16    21    23   am
    17     2     5    1
    18     9    10   ar
    19     9     7   ar
    20    29    30   ar
    21    29    31   ar
    22    12    10   ar
    23    12    14   ar
    24    10     8   ar
    25     7     6   ar
    26    14    13   ar
    27     8     6   ar
    28     8    11   ar
    29     6     5    1
    30    30    32   ar
    31    13    11   ar
    32    34    35    1
    33    36    35    1
    34    36    37    2
    35    31    33   ar
    36    35    38    1
    37    32    33   ar
    38    68    70   ar
    39    68    66   ar
    40    47    46    2
    41    65    66    1
    42    65    62    1
    43    70    71   ar
    44    38    39    1
    45    40    39   ar
    46    40    42   ar
    47    66    67   ar
    48    39    41   ar
    49    42    43   ar
    50   114   113    1
    51   115   113    1
    52    71    69   ar
    53   119   118    2
    54    41    43   ar
    55    61    62    1
    56    67    69   ar
    57   113   110    1
    58    44    45    1
    59    57    56    2
    60    46    45    1
    61    60    58    1
    62    62    63    1
    63    58    59    1
    64    58    55    1
    65   120   121    1
    66   120   117    1
    67    54    55    1
    68    63    64    2
    69   121   122    1
    70   118   117    1
    71   118   123   am
    72    45    48    1
    73   122   116    1
    74   129   123    1
    75   129   128    1
    76    48    49    1
    77    55    56    1
    78   116   117    1
    79   116   111   am
    80   123   124    1
    81   110   111    1
    82   110   109    1
    83    50    49   ar
    84    50    52   ar
    85    49    51   ar
    86   128   127    1
    87   111   112    2
    88   127   124    1
    89   124   125    1
    90   109   104   am
    91    77    76    1
    92    78    76    1
    93    52    53   ar
    94    51    53   ar
    95   107   106    1
    96   105   104    2
    97   100    99    1
    98   104   103    1
    99    76    73    1
   100   101    99    1
   101    86    84    1
   102    85    84    1
   103    92    91    1
   104   125   126    2
   105    99    98    1
   106    98    95    1
   107   106   103    1
   108   106   108    1
   109    72    73    1
   110   103   102    1
   111   102    96   am
   112    93    91    1
   113    84    83    1
   114    73    74    1
   115    91    88    1
   116    95    96    1
   117    95    94    1
   118    96    97    2
   119    88    89    1
   120    88    87    1
   121   143   142   ar
   122   143   141   ar
   123    74    75    2
   124    83    80    1
   125    89    90    2
   126   142   140   ar
   127   141   139   ar
   128    80    81    1
   129    80    79    1
   130   140   137   ar
   131    81    82    2
   132   139   137   ar
   133   139   138   ar
   134   137   135   ar
   135   138   136   ar
   136   135   136   ar
   137   135   134    1
   138   131   134    1
   139   131   132    1
   140   131   130    1
   141   132   133    2
