@<TRIPOS>MOLECULE
tmp/5n25A00.pdb
 143 141 0 0 0
SMALL
GASTEIGER

@<TRIPOS>ATOM
      1  N          8.2900   -0.4290   10.3780 N.3     2  TRP2       -0.1241
      2  CA         7.6350   -1.3820   11.2730 C.3     2  TRP2        0.1605
      3  C          6.5850   -2.1780   10.5050 C.2     2  TRP2        0.2264
      4  O          6.0040   -1.6860    9.5300 O.2     2  TRP2       -0.2867
      5  CB         7.0080   -0.6660   12.4750 C.3     2  TRP2        0.0550
      6  CG         5.7820    0.1280   12.1300 C.ar    2  TRP2        0.0003
      7  CD1        5.7250    1.4530   11.8100 C.ar    2  TRP2        0.0946
      8  CD2        4.4360   -0.3590   12.0820 C.ar    2  TRP2        0.0152
      9  NE1        4.4280    1.8240   11.5610 N.ar    2  TRP2       -0.2442
     10  CE2        3.6130    0.7280   11.7150 C.ar    2  TRP2        0.0810
     11  CE3        3.8460   -1.6110   12.3170 C.ar    2  TRP2        0.0012
     12  CZ2        2.2240    0.6060   11.5820 C.ar    2  TRP2        0.0191
     13  CZ3        2.4650   -1.7370   12.1750 C.ar    2  TRP2        0.0001
     14  CH2        1.6720   -0.6300   11.8120 C.ar    2  TRP2        0.0015
     15  N        -12.7720    6.1680   11.1130 N.3    89  GLN89      -0.1245
     16  CA       -12.4940    5.0080   10.2650 C.3    89  GLN89       0.1566
     17  C        -12.7190    3.7400   11.0470 C.2    89  GLN89       0.2260
     18  O        -12.7510    3.7710   12.2700 O.2    89  GLN89      -0.2867
     19  CB       -11.0430    5.0320    9.7390 C.3    89  GLN89       0.0367
     20  CG        -9.9830    5.1940   10.8290 C.3    89  GLN89       0.0905
     21  CD        -9.2000    3.9310   11.1270 C.2    89  GLN89       0.2608
     22  OE1       -9.7280    2.8230   11.0780 O.2    89  GLN89      -0.2717
     23  NE2       -7.9310    4.1040   11.4590 N.am   89  GLN89      -0.0878
     24  N        -11.2710   -0.5490   10.8020 N.3    91  HIS91      -0.1241
     25  CA       -10.3870   -1.5160   10.1780 C.3    91  HIS91       0.1621
     26  C        -10.4490   -2.7870   10.9940 C.2    91  HIS91       0.2264
     27  O        -11.1120   -2.8310   12.0250 O.2    91  HIS91      -0.2867
     28  CB        -8.9500   -0.9910   10.1600 C.3    91  HIS91       0.0745
     29  CG        -8.4210   -0.6970   11.5250 C.ar   91  HIS91       0.0817
     30  ND1       -8.5830    0.5260   12.1430 N.ar   91  HIS91      -0.2268
     31  CD2       -7.7810   -1.4920   12.4140 C.ar   91  HIS91       0.1154
     32  CE1       -8.0470    0.4720   13.3510 C.ar   91  HIS91       0.1986
     33  NE2       -7.5560   -0.7420   13.5390 N.ar   91  HIS91      -0.2212
     34  N         -8.0770   -6.4800   12.3440 N.3    93  HIS93      -0.1241
     35  CA        -6.8560   -7.2650   12.4880 C.3    93  HIS93       0.1621
     36  C         -7.2780   -8.7150   12.3790 C.2    93  HIS93       0.2264
     37  O         -8.3300   -9.0890   12.8960 O.2    93  HIS93      -0.2867
     38  CB        -6.1840   -7.0040   13.8420 C.3    93  HIS93       0.0745
     39  CG        -5.9180   -5.5560   14.1020 C.ar   93  HIS93       0.0817
     40  ND1       -4.6830   -4.9810   13.8930 N.ar   93  HIS93      -0.2268
     41  CD2       -6.7380   -4.5540   14.4950 C.ar   93  HIS93       0.1154
     42  CE1       -4.7450   -3.6920   14.1810 C.ar   93  HIS93       0.1986
     43  NE2       -5.9840   -3.4050   14.5380 N.ar   93  HIS93      -0.2212
     44  N        -12.0480   -2.7280   14.7100 N.3   116  HIS116     -0.1241
     45  CA       -11.8220   -1.5010   15.4680 C.3   116  HIS116      0.1621
     46  C        -12.5090   -0.3350   14.7840 C.2   116  HIS116      0.2264
     47  O        -12.1540    0.0200   13.6620 O.2   116  HIS116     -0.2867
     48  CB       -10.3190   -1.2150   15.5810 C.3   116  HIS116      0.0745
     49  CG        -9.6030   -2.1800   16.4660 C.ar  116  HIS116      0.0817
     50  ND1       -8.2400   -2.3820   16.4230 N.ar  116  HIS116     -0.2268
     51  CD2      -10.0820   -3.0210   17.4100 C.ar  116  HIS116      0.1154
     52  CE1       -7.9080   -3.2950   17.3190 C.ar  116  HIS116      0.1986
     53  NE2       -9.0080   -3.7000   17.9290 N.ar  116  HIS116     -0.2212
     54  N        -12.8240    3.4600   15.0830 N.3   118  VAL118     -0.1245
     55  CA       -11.9560    4.4560   15.7030 C.3   118  VAL118      0.1561
     56  C        -12.6580    5.8020   15.7440 C.2   118  VAL118      0.2260
     57  O        -13.1060    6.3010   14.7000 O.2   118  VAL118     -0.2867
     58  CB       -10.6310    4.5780   14.9250 C.3   118  VAL118      0.0252
     59  CG1       -9.7050    5.6100   15.5790 C.3   118  VAL118      0.0019
     60  CG2       -9.9280    3.2260   14.8130 C.3   118  VAL118      0.0019
     61  N         -8.2560   14.7440   14.5920 N.3   127  PHE127     -0.1241
     62  CA        -7.6710   13.4680   14.9540 C.3   127  PHE127      0.1605
     63  C         -6.2130   13.5950   15.3850 C.2   127  PHE127      0.2264
     64  O         -5.8110   12.9940   16.3820 O.2   127  PHE127     -0.2867
     65  CB        -7.8000   12.5010   13.7780 C.3   127  PHE127      0.0534
     66  CG        -7.2810   11.1270   14.0600 C.ar  127  PHE127     -0.0203
     67  CD1       -8.0550   10.2100   14.7630 C.ar  127  PHE127     -0.0042
     68  CD2       -6.0160   10.7460   13.6260 C.ar  127  PHE127     -0.0042
     69  CE1       -7.5820    8.9380   15.0220 C.ar  127  PHE127     -0.0003
     70  CE2       -5.5370    9.4730   13.8790 C.ar  127  PHE127     -0.0003
     71  CZ        -6.3220    8.5670   14.5830 C.ar  127  PHE127     -0.0000
     72  N         -4.8960   12.3830   19.2230 N.3   131  VAL131     -0.1245
     73  CA        -3.9670   11.2920   19.5660 C.3   131  VAL131      0.1561
     74  C         -2.8680   11.7250   20.5450 C.2   131  VAL131      0.2260
     75  O         -2.1670   10.8840   21.0940 O.2   131  VAL131     -0.2867
     76  CB        -3.3530   10.5770   18.3280 C.3   131  VAL131      0.0252
     77  CG1       -4.4540    9.9940   17.4530 C.3   131  VAL131      0.0019
     78  CG2       -2.4360   11.5040   17.5280 C.3   131  VAL131      0.0019
     79  N         -9.0010    9.4170   22.0410 N.3   137  LEU137     -0.1245
     80  CA        -9.6850    8.4650   21.1700 C.3   137  LEU137      0.1561
     81  C        -10.5640    7.5250   21.9710 C.2   137  LEU137      0.2260
     82  O        -10.2810    7.2330   23.1310 O.2   137  LEU137     -0.2867
     83  CB        -8.6770    7.6160   20.3780 C.3   137  LEU137      0.0270
     84  CG        -7.7220    8.2270   19.3530 C.3   137  LEU137      0.0019
     85  CD1       -7.1900    7.1130   18.4600 C.3   137  LEU137      0.0001
     86  CD2       -8.2810    9.3720   18.5280 C.3   137  LEU137      0.0001
     87  N        -11.8820    3.7000   20.9410 N.3   139  VAL139     -0.1245
     88  CA       -11.9430    2.6330   19.9450 C.3   139  VAL139      0.1561
     89  C        -12.9110    1.5620   20.4270 C.2   139  VAL139      0.2260
     90  O        -12.7770    1.0280   21.5350 O.2   139  VAL139     -0.2867
     91  CB       -10.5640    2.0350   19.5670 C.3   139  VAL139      0.0252
     92  CG1      -10.7290    1.0560   18.4080 C.3   139  VAL139      0.0019
     93  CG2       -9.6050    3.1280   19.1410 C.3   139  VAL139      0.0019
     94  N         -2.9820    3.0470   21.1130 N.3   194  LEU194     -0.1231
     95  CA        -3.0120    2.5210   19.7500 C.3   194  LEU194      0.1693
     96  C         -2.2720    1.2010   19.7820 C.2   194  LEU194      0.2593
     97  O         -1.2820    1.0480   20.5140 O.2   194  LEU194     -0.2718
     98  CB        -2.2740    3.4610   18.7970 C.3   194  LEU194      0.0284
     99  CG        -2.7530    4.9100   18.7470 C.3   194  LEU194      0.0019
    100  CD1       -1.8420    5.7330   17.8420 C.3   194  LEU194      0.0001
    101  CD2       -4.2110    5.0140   18.3040 C.3   194  LEU194      0.0001
    102  N         -2.7320    0.2380   18.9930 N.am  195  THR195     -0.1939
    103  CA        -2.0850   -1.0740   19.0000 C.3   195  THR195      0.2028
    104  C         -1.0410   -1.2170   17.8960 C.2   195  THR195      0.2643
    105  O         -0.4560   -2.2880   17.7520 O.2   195  THR195     -0.2714
    106  CB        -3.0960   -2.2160   18.8350 C.3   195  THR195      0.1808
    107  OG1       -3.6790   -2.1260   17.5310 O.3   195  THR195     -0.2208
    108  CG2       -4.1860   -2.1650   19.9090 C.3   195  THR195      0.0379
    109  N         -0.8170   -0.1560   17.1180 N.am  196  THR196     -0.1937
    110  CA         0.2990   -0.1060   16.1620 C.3   196  THR196      0.2013
    111  C          1.0960    1.1620   16.4370 C.2   196  THR196      0.2484
    112  O          0.5670    2.1040   17.0270 O.2   196  THR196     -0.2729
    113  CB        -0.1600   -0.0550   14.6790 C.3   196  THR196      0.1807
    114  OG1       -0.5440    1.2860   14.3300 O.3   196  THR196     -0.2208
    115  CG2       -1.3180   -1.0020   14.3930 C.3   196  THR196      0.0379
    116  N          2.3720    1.1950   16.0040 N.am  197  PRO197     -0.2715
    117  CA         3.0860    2.4670   16.0350 C.3   197  PRO197      0.1521
    118  C          2.1800    3.5680   15.4580 C.2   197  PRO197      0.2440
    119  O          1.4860    3.3190   14.4620 O.2   197  PRO197     -0.2731
    120  CB         4.2980    2.1810   15.1450 C.3   197  PRO197      0.0310
    121  CG         4.5790    0.7350   15.4120 C.3   197  PRO197      0.0237
    122  CD         3.2110    0.1050   15.4590 C.3   197  PRO197      0.0939
    123  N          2.1630    4.7660   16.0480 N.am  198  PRO198     -0.2727
    124  CA         3.0840    5.2080   17.1080 C.3   198  PRO198      0.1402
    125  C          2.7740    4.7840   18.5670 C.2   198  PRO198      0.2269
    126  O          3.4310    5.2720   19.4890 O.2   198  PRO198     -0.2865
    127  CB         3.0360    6.7390   16.9740 C.3   198  PRO198      0.0296
    128  CG         1.6740    7.0300   16.4300 C.3   198  PRO198      0.0237
    129  CD         1.3120    5.8670   15.5420 C.3   198  PRO198      0.0939
    130  N        -10.4900    2.2110   25.5250 N.3   205  TRP205     -0.1241
    131  CA       -10.9210    0.9970   24.8510 C.3   205  TRP205      0.1605
    132  C        -12.2810    0.5670   25.3590 C.2   205  TRP205      0.2264
    133  O        -12.5200    0.5330   26.5660 O.2   205  TRP205     -0.2867
    134  CB        -9.8970   -0.1350   25.0220 C.3   205  TRP205      0.0550
    135  CG        -8.8110   -0.0110   24.0280 C.ar  205  TRP205      0.0003
    136  CD1       -7.5770    0.5610   24.2140 C.ar  205  TRP205      0.0946
    137  CD2       -8.8720   -0.4070   22.6560 C.ar  205  TRP205      0.0152
    138  NE1       -6.8640    0.5250   23.0400 N.ar  205  TRP205     -0.2442
    139  CE2       -7.6320   -0.0720   22.0700 C.ar  205  TRP205      0.0810
    140  CE3       -9.8490   -1.0370   21.8710 C.ar  205  TRP205      0.0012
    141  CZ2       -7.3480   -0.3280   20.7230 C.ar  205  TRP205      0.0191
    142  CZ3       -9.5730   -1.3010   20.5430 C.ar  205  TRP205      0.0001
    143  CH2       -8.3290   -0.9430   19.9770 C.ar  205  TRP205      0.0015
@<TRIPOS>BOND
     1     4     3    2
     2    19    16    1
     3    19    20    1
     4    28    25    1
     5    28    29    1
     6    25    24    1
     7    25    26    1
     8    16    17    1
     9    16    15    1
    10     1     2    1
    11     3     2    1
    12    20    21    1
    13    26    27    2
    14    17    18    2
    15    22    21    2
    16    21    23   am
    17     2     5    1
    18    29    30   ar
    19    29    31   ar
    20     9    10   ar
    21     9     7   ar
    22    12    10   ar
    23    12    14   ar
    24    10     8   ar
    25     7     6   ar
    26    14    13   ar
    27     8     6   ar
    28     8    11   ar
    29     6     5    1
    30    30    32   ar
    31    13    11   ar
    32    34    35    1
    33    36    35    1
    34    36    37    2
    35    31    33   ar
    36    35    38    1
    37    32    33   ar
    38    68    70   ar
    39    68    66   ar
    40    47    46    2
    41    65    66    1
    42    65    62    1
    43    38    39    1
    44    70    71   ar
    45    40    39   ar
    46    40    42   ar
    47    66    67   ar
    48    39    41   ar
    49    42    43   ar
    50   114   113    1
    51   115   113    1
    52   119   118    2
    53    41    43   ar
    54    71    69   ar
    55    61    62    1
    56   113   110    1
    57    57    56    2
    58    44    45    1
    59    67    69   ar
    60    46    45    1
    61    60    58    1
    62    58    59    1
    63    58    55    1
    64    62    63    1
    65    54    55    1
    66   120   121    1
    67   120   117    1
    68    63    64    2
    69   121   122    1
    70   118   117    1
    71   118   123   am
    72   122   116    1
    73    45    48    1
    74   129   123    1
    75   129   128    1
    76    48    49    1
    77    55    56    1
    78   116   117    1
    79   116   111   am
    80   123   124    1
    81   110   111    1
    82   110   109    1
    83    50    49   ar
    84    50    52   ar
    85   128   127    1
    86   111   112    2
    87    49    51   ar
    88   127   124    1
    89   124   125    1
    90   109   104   am
    91    52    53   ar
    92    51    53   ar
    93    77    76    1
    94    78    76    1
    95   107   106    1
    96   105   104    2
    97   100    99    1
    98   104   103    1
    99   101    99    1
   100    76    73    1
   101    92    91    1
   102    85    84    1
   103    86    84    1
   104   125   126    2
   105    99    98    1
   106    98    95    1
   107   106   103    1
   108   106   108    1
   109   102   103    1
   110   102    96   am
   111    93    91    1
   112    72    73    1
   113    84    83    1
   114    73    74    1
   115    91    88    1
   116    95    96    1
   117    95    94    1
   118    96    97    2
   119    88    89    1
   120    88    87    1
   121   143   142   ar
   122   143   141   ar
   123    83    80    1
   124    89    90    2
   125   142   140   ar
   126    74    75    2
   127   141   139   ar
   128    80    81    1
   129    80    79    1
   130   140   137   ar
   131    81    82    2
   132   139   137   ar
   133   139   138   ar
   134   137   135   ar
   135   138   136   ar
   136   135   136   ar
   137   135   134    1
   138   131   134    1
   139   131   132    1
   140   131   130    1
   141   132   133    2
