@<TRIPOS>MOLECULE
tmp/5n2dD00.pdb
 99 93 0 0 0
SMALL
GASTEIGER

@<TRIPOS>ATOM
      1  N         -3.7500   67.3910  -12.9060 N.3    37  ILE37      -0.1245
      2  CA        -4.7540   66.3370  -12.9460 C.3    37  ILE37       0.1561
      3  C         -4.0570   65.0430  -12.5480 C.2    37  ILE37       0.2260
      4  O         -3.0310   64.6850  -13.1370 O.2    37  ILE37      -0.2867
      5  CB        -5.3940   66.2220  -14.3430 C.3    37  ILE37       0.0252
      6  CG1       -5.9670   67.5800  -14.7610 C.3    37  ILE37       0.0019
      7  CG2       -6.4540   65.1200  -14.3800 C.3    37  ILE37       0.0019
      8  CD1       -6.9870   67.5330  -15.8700 C.3    37  ILE37       0.0001
      9  N         -4.9790   60.9500  -12.0890 N.3    39  TYR39      -0.1241
     10  CA        -5.9560   59.9090  -12.3680 C.3    39  TYR39       0.1605
     11  C         -5.3500   58.5600  -11.9890 C.2    39  TYR39       0.2264
     12  O         -4.2640   58.2070  -12.4590 O.2    39  TYR39      -0.2867
     13  CB        -6.3500   59.9490  -13.8460 C.3    39  TYR39       0.0534
     14  CG        -7.5850   59.1680  -14.1850 C.ar   39  TYR39      -0.0201
     15  CD1       -8.8530   59.7020  -13.9840 C.ar   39  TYR39      -0.0009
     16  CD2       -7.4840   57.8790  -14.6850 C.ar   39  TYR39      -0.0009
     17  CE1       -9.9880   58.9740  -14.2940 C.ar   39  TYR39       0.0417
     18  CE2       -8.6040   57.1370  -14.9910 C.ar   39  TYR39       0.0417
     19  CZ        -9.8510   57.6830  -14.7980 C.ar   39  TYR39       0.1957
     20  OH       -10.9500   56.9170  -15.1160 O.3    39  TYR39      -0.2866
     21  N         -6.2490   54.4570  -11.9240 N.3    41  GLU41      -0.1245
     22  CA        -7.1850   53.4270  -12.3200 C.3    41  GLU41       0.1567
     23  C         -6.5530   52.0560  -12.1530 C.2    41  GLU41       0.2260
     24  O         -5.3710   51.9080  -11.8260 O.2    41  GLU41      -0.2867
     25  CB        -7.6670   53.6290  -13.7460 C.3    41  GLU41       0.0388
     26  CG        -6.6410   53.3320  -14.7710 C.3    41  GLU41       0.1160
     27  CD        -7.2240   53.4090  -16.1490 C.2    41  GLU41       0.3649
     28  OE1       -8.3740   53.8870  -16.2750 O.co2  41  GLU41      -0.2457
     29  OE2       -6.5430   52.9870  -17.1000 O.co2  41  GLU41      -0.2457
     30  N        -10.0580   60.4060   -9.2760 N.3    49  GLN49      -0.1245
     31  CA       -10.1360   61.4420  -10.2940 C.3    49  GLN49       0.1566
     32  C         -9.9540   62.7830   -9.5880 C.2    49  GLN49       0.2260
     33  O        -10.9040   63.3250   -9.0170 O.2    49  GLN49      -0.2867
     34  CB       -11.4590   61.3540  -11.0370 C.3    49  GLN49       0.0367
     35  CG       -11.6340   62.3830  -12.1140 C.3    49  GLN49       0.0905
     36  CD       -13.0800   62.5440  -12.5010 C.2    49  GLN49       0.2608
     37  OE1      -13.5810   61.8390  -13.3770 O.2    49  GLN49      -0.2717
     38  NE2      -13.7690   63.4720  -11.8420 N.am   49  GLN49      -0.0878
     39  N         -8.9750   66.7350   -9.6920 N.3    51  VAL51      -0.1245
     40  CA        -8.8760   67.9440  -10.5150 C.3    51  VAL51       0.1561
     41  C         -9.2420   69.1620   -9.6760 C.2    51  VAL51       0.2260
     42  O        -10.2620   69.1680   -8.9780 O.2    51  VAL51      -0.2867
     43  CB        -9.7760   67.8840  -11.7650 C.3    51  VAL51       0.0252
     44  CG1       -9.1180   67.0640  -12.8500 C.3    51  VAL51       0.0019
     45  CG2      -11.1470   67.3210  -11.4100 C.3    51  VAL51       0.0019
     46  N        -17.4960   59.1990  -10.8960 N.3    59  VAL59      -0.1245
     47  CA       -17.0520   58.1360  -11.7960 C.3    59  VAL59       0.1561
     48  C        -16.4000   56.9930  -11.0100 C.2    59  VAL59       0.2260
     49  O        -16.1810   55.9040  -11.5630 O.2    59  VAL59      -0.2867
     50  CB       -16.1520   58.7690  -12.8840 C.3    59  VAL59       0.0252
     51  CG1      -15.2220   57.7690  -13.5950 C.3    59  VAL59       0.0019
     52  CG2      -17.0110   59.4890  -13.9170 C.3    59  VAL59       0.0019
     53  N         -1.7420   58.0770  -13.7490 N.3    98  MET98      -0.1230
     54  CA        -1.6920   59.0870  -14.8100 C.3    98  MET98       0.1702
     55  C         -1.6670   60.4960  -14.2160 C.2    98  MET98       0.2592
     56  O         -2.5570   60.8630  -13.4400 O.2    98  MET98      -0.2718
     57  CB        -2.8740   58.9370  -15.7720 C.3    98  MET98       0.0401
     58  CG        -2.9310   57.6180  -16.5360 C.3    98  MET98       0.0596
     59  SD        -4.5710   56.9400  -16.8830 S.3    98  MET98      -0.1393
     60  CE        -4.9510   57.5790  -18.4970 C.3    98  MET98       0.0692
     61  N         -0.6630   61.2900  -14.5950 N.am   99  ILE99      -0.1966
     62  CA        -0.5190   62.6570  -14.0800 C.3    99  ILE99       0.1727
     63  C         -0.1830   63.6280  -15.2140 C.2    99  ILE99       0.2616
     64  O          0.7200   63.3800  -16.0220 O.2    99  ILE99      -0.2715
     65  CB         0.5390   62.7590  -12.9590 C.3    99  ILE99       0.0290
     66  CG1        0.1690   61.8450  -11.7830 C.3    99  ILE99       0.0022
     67  CG2        0.6670   64.2000  -12.4870 C.3    99  ILE99       0.0023
     68  CD1        1.2310   61.7310  -10.7120 C.3    99  ILE99       0.0001
     69  N         -0.9120   64.7430  -15.2600 N.am  100  SER100     -0.1950
     70  CA        -0.6520   65.8430  -16.1760 C.3   100  SER100      0.1924
     71  C         -0.2620   67.0710  -15.3600 C.2   100  SER100      0.2314
     72  O         -1.0580   67.5630  -14.5510 O.2   100  SER100     -0.2863
     73  CB        -1.8810   66.1260  -17.0400 C.3   100  SER100      0.2116
     74  OG        -1.6400   67.1930  -17.9290 O.3   100  SER100     -0.2180
     75  N          2.7810   65.4820  -19.5100 N.3   104  ALA104     -0.1231
     76  CA         1.9350   64.3710  -19.1080 C.3   104  ALA104      0.1694
     77  C          2.7100   63.0720  -19.2430 C.2   104  ALA104      0.2592
     78  O          3.4780   62.8960  -20.1940 O.2   104  ALA104     -0.2718
     79  CB         0.6530   64.3150  -19.9410 C.3   104  ALA104      0.0304
     80  N          2.5140   62.1810  -18.2700 N.am  105  ASP105     -0.1960
     81  CA         3.0960   60.8470  -18.3000 C.3   105  ASP105      0.1840
     82  C          2.2210   59.9320  -17.4510 C.2   105  ASP105      0.2622
     83  O          1.2270   60.3610  -16.8580 O.2   105  ASP105     -0.2715
     84  CB         4.5490   60.8470  -17.8010 C.3   105  ASP105      0.1450
     85  CG         5.3710   59.6900  -18.3680 C.2   105  ASP105      0.3671
     86  OD1        5.1030   59.2580  -19.5140 O.co2 105  ASP105     -0.2456
     87  OD2        6.2900   59.2210  -17.6670 O.co2 105  ASP105     -0.2456
     88  N          2.5980   58.6550  -17.4150 N.am  106  TYR106     -0.1974
     89  CA         1.9010   57.6680  -16.6070 C.3   106  TYR106      0.1639
     90  C          2.8160   56.4630  -16.4560 C.2   106  TYR106      0.2290
     91  O          3.6650   56.2030  -17.3120 O.2   106  TYR106     -0.2864
     92  CB         0.5550   57.2660  -17.2310 C.3   106  TYR106      0.0560
     93  CG         0.6340   56.0670  -18.1610 C.ar  106  TYR106     -0.0198
     94  CD1        0.8450   56.2320  -19.5370 C.ar  106  TYR106     -0.0009
     95  CD2        0.4960   54.7630  -17.6600 C.ar  106  TYR106     -0.0009
     96  CE1        0.9190   55.1260  -20.3870 C.ar  106  TYR106      0.0417
     97  CE2        0.5760   53.6440  -18.4940 C.ar  106  TYR106      0.0417
     98  CZ         0.7840   53.8330  -19.8530 C.ar  106  TYR106      0.1957
     99  OH         0.8650   52.7370  -20.6810 O.3   106  TYR106     -0.2866
@<TRIPOS>BOND
     1    99    98    1
     2    96    98   ar
     3    96    94   ar
     4    78    77    2
     5    79    76    1
     6    98    97   ar
     7    94    93   ar
     8    86    85   ar
     9    75    76    1
    10    77    76    1
    11    77    80   am
    12    60    59    1
    13    97    95   ar
    14    85    84    1
    15    85    87   ar
    16    81    80    1
    17    81    84    1
    18    81    82    1
    19    93    95   ar
    20    93    92    1
    21    74    73    1
    22    82    88   am
    23    82    83    2
    24    88    89    1
    25    91    90    2
    26    92    89    1
    27    29    27   ar
    28    73    70    1
    29    59    58    1
    30    89    90    1
    31    58    57    1
    32    28    27   ar
    33    70    71    1
    34    70    69    1
    35    27    26    1
    36    64    63    2
    37     8     6    1
    38    57    54    1
    39    71    72    2
    40    69    63   am
    41    63    62    1
    42    20    19    1
    43    18    19   ar
    44    18    16   ar
    45    54    55    1
    46    54    53    1
    47    19    17   ar
    48    26    25    1
    49     6     5    1
    50    16    14   ar
    51    61    55   am
    52    61    62    1
    53     7     5    1
    54     5     2    1
    55    17    15   ar
    56    55    56    2
    57    14    15   ar
    58    14    13    1
    59    62    65    1
    60    52    50    1
    61    13    10    1
    62    25    22    1
    63    51    50    1
    64    37    36    2
    65     4     3    2
    66    65    67    1
    67    65    66    1
    68     2     1    1
    69     2     3    1
    70    50    47    1
    71    44    43    1
    72    36    35    1
    73    36    38   am
    74    12    11    2
    75    10     9    1
    76    10    11    1
    77    22    23    1
    78    22    21    1
    79    23    24    2
    80    35    34    1
    81    47    48    1
    82    47    46    1
    83    66    68    1
    84    43    45    1
    85    43    40    1
    86    49    48    2
    87    34    31    1
    88    40    39    1
    89    40    41    1
    90    31    32    1
    91    31    30    1
    92    41    42    2
    93    32    33    2
