@<TRIPOS>MOLECULE
tmp/5n2fB00.pdb
 106 99 0 0 0
SMALL
GASTEIGER

@<TRIPOS>ATOM
      1  N         38.3990   17.3060  138.3470 N.3    37  ILE37      -0.1245
      2  CA        38.1100   15.9310  137.9470 C.3    37  ILE37       0.1561
      3  C         38.7660   15.6800  136.5980 C.2    37  ILE37       0.2260
      4  O         38.5380   16.4360  135.6460 O.2    37  ILE37      -0.2867
      5  CB        36.5990   15.6420  137.8420 C.3    37  ILE37       0.0252
      6  CG1       35.8960   15.8240  139.1790 C.3    37  ILE37       0.0019
      7  CG2       36.3530   14.2390  137.2760 C.3    37  ILE37       0.0019
      8  CD1       34.3870   15.9730  139.0290 C.3    37  ILE37       0.0001
      9  N         39.2420   12.5850  133.7500 N.3    39  TYR39      -0.1241
     10  CA        38.7710   11.2640  133.3690 C.3    39  TYR39       0.1605
     11  C         39.2440   10.9610  131.9620 C.2    39  TYR39       0.2264
     12  O         39.0790   11.7870  131.0610 O.2    39  TYR39      -0.2867
     13  CB        37.2470   11.1990  133.4520 C.3    39  TYR39       0.0534
     14  CG        36.6440    9.9310  132.9160 C.ar   39  TYR39      -0.0201
     15  CD1       36.5900    8.7760  133.6790 C.ar   39  TYR39      -0.0009
     16  CD2       36.1170    9.8940  131.6480 C.ar   39  TYR39      -0.0009
     17  CE1       36.0290    7.6230  133.1680 C.ar   39  TYR39       0.0417
     18  CE2       35.5410    8.7740  131.1450 C.ar   39  TYR39       0.0417
     19  CZ        35.4980    7.6420  131.8990 C.ar   39  TYR39       0.1957
     20  OH        34.9330    6.5420  131.3120 O.3    39  TYR39      -0.2866
     21  N         36.8530    2.7660  130.7950 N.3    46  ASN46      -0.1240
     22  CA        37.4430    3.6340  131.8070 C.3    46  ASN46       0.1653
     23  C         38.9360    3.3580  131.8720 C.2    46  ASN46       0.2266
     24  O         39.3330    2.2470  132.2300 O.2    46  ASN46      -0.2867
     25  CB        36.8580    3.3630  133.1960 C.3    46  ASN46       0.1155
     26  CG        35.3560    3.5640  133.2830 C.2    46  ASN46       0.2627
     27  OD1       34.7710    4.3920  132.5830 O.2    46  ASN46      -0.2716
     28  ND2       34.7240    2.8080  134.1850 N.am   46  ASN46      -0.0877
     29  N         41.1600    7.8740  136.3000 N.3    49  GLN49      -0.1245
     30  CA        40.4560    9.0570  136.7570 C.3    49  GLN49       0.1566
     31  C         41.1250    9.6000  138.0110 C.2    49  GLN49       0.2260
     32  O         41.8660    8.9050  138.7100 O.2    49  GLN49      -0.2867
     33  CB        38.9770    8.7640  137.0110 C.3    49  GLN49       0.0367
     34  CG        38.7120    7.7760  138.1060 C.3    49  GLN49       0.0905
     35  CD        37.2860    7.2660  138.0350 C.2    49  GLN49       0.2608
     36  OE1       36.8590    6.7690  136.9990 O.2    49  GLN49      -0.2717
     37  NE2       36.5430    7.3970  139.1260 N.am   49  GLN49      -0.0878
     38  N         39.5060   12.1670  140.9150 N.3    51  VAL51      -0.1245
     39  CA        38.2410   12.8160  141.2400 C.3    51  VAL51       0.1561
     40  C         38.4380   13.5350  142.5610 C.2    51  VAL51       0.2260
     41  O         38.4570   12.8970  143.6210 O.2    51  VAL51      -0.2867
     42  CB        37.0770   11.8260  141.3100 C.3    51  VAL51       0.0252
     43  CG1       35.8130   12.5390  141.7490 C.3    51  VAL51       0.0019
     44  CG2       36.8690   11.1880  139.9560 C.3    51  VAL51       0.0019
     45  N         40.4360    6.1490  141.3370 N.3    56  ASP56      -0.1239
     46  CA        39.5800    5.0220  141.7030 C.3    56  ASP56       0.1674
     47  C         39.8390    3.8810  140.7270 C.2    56  ASP56       0.2266
     48  O         39.2360    3.8200  139.6530 O.2    56  ASP56      -0.2867
     49  CB        38.1030    5.4180  141.7130 C.3    56  ASP56       0.1410
     50  CG        37.2180    4.3480  142.3320 C.2    56  ASP56       0.3668
     51  OD1       35.9880    4.5640  142.4200 O.co2  56  ASP56      -0.2456
     52  OD2       37.7520    3.2840  142.7180 O.co2  56  ASP56      -0.2456
     53  N         36.9380    1.0070  139.1160 N.3    59  VAL59      -0.1245
     54  CA        36.1510    1.1240  137.8920 C.3    59  VAL59       0.1561
     55  C         37.0060    1.0300  136.6350 C.2    59  VAL59       0.2260
     56  O         36.4710    1.1280  135.5210 O.2    59  VAL59      -0.2867
     57  CB        35.3540    2.4410  137.8890 C.3    59  VAL59       0.0252
     58  CG1       34.3540    2.4610  139.0490 C.3    59  VAL59       0.0019
     59  CG2       36.3150    3.6100  137.9970 C.3    59  VAL59       0.0019
     60  N         38.5870   14.0760  129.4920 N.3    98  MET98      -0.1230
     61  CA        37.4650   14.8460  130.0050 C.3    98  MET98       0.1702
     62  C         37.8910   15.4920  131.3100 C.2    98  MET98       0.2592
     63  O         38.3850   14.8040  132.2080 O.2    98  MET98      -0.2718
     64  CB        36.2470   13.9590  130.2400 C.3    98  MET98       0.0401
     65  CG        36.0420   12.8710  129.2070 C.3    98  MET98       0.0596
     66  SD        34.2810   12.6380  129.1050 S.3    98  MET98      -0.1393
     67  CE        33.8320   11.3230  130.1510 C.3    98  MET98       0.0692
     68  N         37.7040   16.8030  131.4210 N.am   99  ILE99      -0.1966
     69  CA        38.1670   17.5320  132.5910 C.3    99  ILE99       0.1727
     70  C         37.0710   18.4590  133.0830 C.2    99  ILE99       0.2616
     71  O         36.4630   19.1850  132.2920 O.2    99  ILE99      -0.2715
     72  CB        39.4400   18.3400  132.2820 C.3    99  ILE99       0.0290
     73  CG1       40.5230   17.3940  131.7650 C.3    99  ILE99       0.0022
     74  CG2       39.8690   19.1260  133.5230 C.3    99  ILE99       0.0023
     75  CD1       41.8930   17.9870  131.7430 C.3    99  ILE99       0.0001
     76  N         36.8370   18.4420  134.3950 N.am  100  SER100     -0.1950
     77  CA        36.0210   19.4280  135.0830 C.3   100  SER100      0.1924
     78  C         36.8970   20.2350  136.0310 C.2   100  SER100      0.2314
     79  O         37.5990   19.6590  136.8680 O.2   100  SER100     -0.2863
     80  CB        34.9010   18.7450  135.8630 C.3   100  SER100      0.2116
     81  OG        34.0900   19.7110  136.4800 O.3   100  SER100     -0.2180
     82  N         33.7280   22.6880  132.2530 N.3   104  ALA104     -0.1231
     83  CA        33.9280   21.3180  131.8030 C.3   104  ALA104      0.1694
     84  C         34.1290   21.2930  130.3020 C.2   104  ALA104      0.2592
     85  O         33.4490   22.0170  129.5720 O.2   104  ALA104     -0.2718
     86  CB        32.7520   20.3930  132.1390 C.3   104  ALA104      0.0304
     87  N         35.0340   20.4260  129.8480 N.am  105  ASP105     -0.1960
     88  CA        35.2810   20.2860  128.4170 C.3   105  ASP105      0.1840
     89  C         35.9430   18.9340  128.1900 C.2   105  ASP105      0.2622
     90  O         36.3480   18.2540  129.1390 O.2   105  ASP105     -0.2715
     91  CB        36.1610   21.4340  127.9060 C.3   105  ASP105      0.1450
     92  CG        36.2230   21.5150  126.4010 C.2   105  ASP105      0.3671
     93  OD1       35.2800   21.0490  125.7380 O.co2 105  ASP105     -0.2456
     94  OD2       37.2270   22.0490  125.8910 O.co2 105  ASP105     -0.2456
     95  N         36.0650   18.5540  126.9180 N.am  106  TYR106     -0.1974
     96  CA        36.8260   17.3610  126.5720 C.3   106  TYR106      0.1639
     97  C         37.4170   17.5080  125.1780 C.2   106  TYR106      0.2290
     98  O         36.9560   18.3110  124.3620 O.2   106  TYR106     -0.2864
     99  CB        35.9660   16.0930  126.6610 C.3   106  TYR106      0.0560
    100  CG        35.0790   15.8080  125.4560 C.ar  106  TYR106     -0.0198
    101  CD1       33.7930   16.3120  125.3840 C.ar  106  TYR106     -0.0009
    102  CD2       35.5310   15.0000  124.4240 C.ar  106  TYR106     -0.0009
    103  CE1       32.9840   16.0390  124.2860 C.ar  106  TYR106      0.0417
    104  CE2       34.7510   14.7220  123.3360 C.ar  106  TYR106      0.0417
    105  CZ        33.4760   15.2380  123.2660 C.ar  106  TYR106      0.1957
    106  OH        32.7260   14.9300  122.1520 O.3   106  TYR106     -0.2866
@<TRIPOS>BOND
     1   106   105    1
     2   105   104   ar
     3   105   103   ar
     4   104   102   ar
     5   103   101   ar
     6    98    97    2
     7   102   100   ar
     8    97    96    1
     9   101   100   ar
    10   100    99    1
    11    93    92   ar
    12    94    92   ar
    13    92    91    1
    14    96    99    1
    15    96    95    1
    16    95    89   am
    17    91    88    1
    18    89    88    1
    19    89    90    2
    20    88    87    1
    21    66    65    1
    22    66    67    1
    23    65    64    1
    24    60    61    1
    25    85    84    2
    26    87    84   am
    27    61    64    1
    28    61    62    1
    29    84    83    1
    30    21    22    1
    31    12    11    2
    32    18    16   ar
    33    18    19   ar
    34    62    68   am
    35    62    63    2
    36    20    19    1
    37    68    69    1
    38    16    14   ar
    39    75    73    1
    40    73    72    1
    41    83    86    1
    42    83    82    1
    43    22    23    1
    44    22    25    1
    45    23    24    2
    46    19    17   ar
    47    11    10    1
    48    72    69    1
    49    72    74    1
    50    71    70    2
    51    27    26    2
    52    69    70    1
    53    14    13    1
    54    14    15   ar
    55    70    76   am
    56    17    15   ar
    57    25    26    1
    58    26    28   am
    59    10    13    1
    60    10     9    1
    61    76    77    1
    62    77    80    1
    63    77    78    1
    64    56    55    2
    65     4     3    2
    66    80    81    1
    67    78    79    2
    68    29    30    1
    69     3     2    1
    70    55    54    1
    71    30    33    1
    72    30    31    1
    73    36    35    2
    74    33    34    1
    75     7     5    1
    76     5     2    1
    77     5     6    1
    78    57    54    1
    79    57    59    1
    80    57    58    1
    81    54    53    1
    82     2     1    1
    83    31    32    2
    84    35    34    1
    85    35    37   am
    86     8     6    1
    87    48    47    2
    88    44    42    1
    89    47    46    1
    90    38    39    1
    91    39    42    1
    92    39    40    1
    93    42    43    1
    94    45    46    1
    95    46    49    1
    96    49    50    1
    97    50    51   ar
    98    50    52   ar
    99    40    41    2
