@<TRIPOS>MOLECULE
tmp/5n2gA00.pdb
 106 101 0 0 0
SMALL
GASTEIGER

@<TRIPOS>ATOM
      1  N        -58.9810   43.1510   14.9450 N.3    25  LYS25      -0.1245
      2  CA       -59.7080   42.4110   13.9300 C.3    25  LYS25       0.1561
      3  C        -61.1660   42.8240   14.0300 C.2    25  LYS25       0.2260
      4  O        -61.7960   42.6490   15.0690 O.2    25  LYS25      -0.2867
      5  CB       -59.6010   40.8940   14.1430 C.3    25  LYS25       0.0271
      6  CG       -60.3030   40.0580   13.0510 C.3    25  LYS25       0.0035
      7  CD       -60.2150   38.5550   13.2990 C.3    25  LYS25       0.0206
      8  CE       -60.8060   37.7640   12.1480 C.3    25  LYS25       0.1093
      9  NZ       -60.4720   36.3170   12.2370 N.3    25  LYS25      -0.1314
     10  N        -65.0990   43.1670   11.7650 N.3    27  ARG27      -0.1245
     11  CA       -65.9750   42.5420   10.7890 C.3    27  ARG27       0.1563
     12  C        -66.9770   43.5790   10.2940 C.2    27  ARG27       0.2260
     13  O        -67.6520   44.2140   11.0940 O.2    27  ARG27      -0.2867
     14  CB       -66.7380   41.4070   11.4600 C.3    27  ARG27       0.0307
     15  CG       -67.7310   40.7060   10.5640 C.3    27  ARG27       0.0489
     16  CD       -67.0270   39.7280    9.6580 C.3    27  ARG27       0.2205
     17  NE       -66.7070   38.5620   10.4610 N.pl3  27  ARG27      -0.0865
     18  CZ       -65.4920   38.0840   10.7000 C.cat  27  ARG27       0.5346
     19  NH1      -64.3920   38.5940   10.1590 N.pl3  27  ARG27       0.1354
     20  NH2      -65.3780   37.0460   11.4850 N.pl3  27  ARG27       0.1354
     21  N        -63.7070   41.5190    6.4320 N.3    33  THR33      -0.1218
     22  CA       -62.9540   41.5850    7.6240 C.3    33  THR33       0.1862
     23  C        -61.8780   42.5960    7.4000 C.2    33  THR33       0.2287
     24  O        -61.1880   42.5480    6.3950 O.2    33  THR33      -0.2866
     25  CB       -62.3160   40.2260    7.8420 C.3    33  THR33       0.1770
     26  OG1      -63.3430   39.3250    8.2070 O.3    33  THR33      -0.2211
     27  CG2      -61.2640   40.2410    8.9240 C.3    33  THR33       0.0375
     28  N        -58.5110   44.2530    9.2570 N.3    35  PHE35      -0.1241
     29  CA       -57.5150   44.3330   10.3130 C.3    35  PHE35       0.1605
     30  C        -56.9590   45.7430   10.3320 C.2    35  PHE35       0.2264
     31  O        -56.6680   46.2950    9.2880 O.2    35  PHE35      -0.2867
     32  CB       -56.3730   43.3450   10.0800 C.3    35  PHE35       0.0534
     33  CG       -56.7460   41.9230   10.3440 C.ar   35  PHE35      -0.0203
     34  CD1      -56.6220   41.3830   11.6160 C.ar   35  PHE35      -0.0042
     35  CD2      -57.2230   41.1130    9.3260 C.ar   35  PHE35      -0.0042
     36  CE1      -56.9580   40.0520   11.8550 C.ar   35  PHE35      -0.0003
     37  CE2      -57.5700   39.7970    9.5550 C.ar   35  PHE35      -0.0003
     38  CZ       -57.4400   39.2630   10.8190 C.ar   35  PHE35      -0.0000
     39  N        -66.8720   32.8170   11.9610 N.3   165  SER165     -0.1217
     40  CA       -66.3330   31.5200   11.5490 C.3   165  SER165      0.1889
     41  C        -65.7260   30.7450   12.7290 C.2   165  SER165      0.2288
     42  O        -64.9810   31.2850   13.5560 O.2   165  SER165     -0.2866
     43  CB       -65.2780   31.7190   10.4700 C.3   165  SER165      0.2089
     44  OG       -64.3850   32.7850   10.8010 O.3   165  SER165     -0.2183
     45  N        -66.5920   22.6240   11.1650 N.3   194  TYR194     -0.1241
     46  CA       -66.3760   23.9820   10.6660 C.3   194  TYR194      0.1605
     47  C        -67.7230   24.6580   10.5490 C.2   194  TYR194      0.2264
     48  O        -68.5980   24.1200    9.8980 O.2   194  TYR194     -0.2867
     49  CB       -65.7210   23.9190    9.2870 C.3   194  TYR194      0.0534
     50  CG       -65.7600   25.2160    8.5310 C.ar  194  TYR194     -0.0201
     51  CD1      -65.0970   26.3090    9.0050 C.ar  194  TYR194     -0.0009
     52  CD2      -66.4480   25.3450    7.3370 C.ar  194  TYR194     -0.0009
     53  CE1      -65.1050   27.5070    8.3270 C.ar  194  TYR194      0.0417
     54  CE2      -66.4680   26.5480    6.6440 C.ar  194  TYR194      0.0417
     55  CZ       -65.7930   27.6220    7.1530 C.ar  194  TYR194      0.1957
     56  OH       -65.7920   28.8430    6.5270 O.3   194  TYR194     -0.2866
     57  N        -69.2330   27.9970    8.9870 N.3   196  ASP196     -0.1225
     58  CA       -68.9590   29.0780    8.0220 C.3   196  ASP196      0.1805
     59  C        -69.7730   30.3260    8.3680 C.2   196  ASP196      0.2597
     60  O        -70.8040   30.2480    9.0600 O.2   196  ASP196     -0.2718
     61  CB       -69.3620   28.5800    6.6120 C.3   196  ASP196      0.1424
     62  CG       -68.8470   29.4700    5.4750 C.2   196  ASP196      0.3668
     63  OD1      -67.6560   29.3900    5.1460 O.co2 196  ASP196     -0.2456
     64  OD2      -69.6410   30.2140    4.8700 O.co2 196  ASP196     -0.2456
     65  N        -69.3430   31.4760    7.8620 N.am  197  LEU197     -0.1979
     66  CA       -70.1670   32.7050    7.9530 C.3   197  LEU197      0.1596
     67  C        -71.6480   32.5250    7.5450 C.2   197  LEU197      0.2287
     68  O        -72.5360   33.2120    8.0660 O.2   197  LEU197     -0.2864
     69  CB       -69.5500   33.8320    7.1270 C.3   197  LEU197      0.0297
     70  CG       -68.5490   34.7230    7.8530 C.3   197  LEU197      0.0022
     71  CD1      -67.4040   33.9420    8.4670 C.3   197  LEU197      0.0001
     72  CD2      -68.0190   35.7370    6.8510 C.3   197  LEU197      0.0001
     73  N        -55.1190   28.9640    9.4680 N.3   258  LEU258     -0.1231
     74  CA       -56.1450   29.8430    8.9300 C.3   258  LEU258      0.1693
     75  C        -56.6810   30.7850    9.9910 C.2   258  LEU258      0.2593
     76  O        -56.7360   30.4570   11.1680 O.2   258  LEU258     -0.2718
     77  CB       -57.3010   29.0450    8.3640 C.3   258  LEU258      0.0284
     78  CG       -56.9680   28.1300    7.1890 C.3   258  LEU258      0.0019
     79  CD1      -58.1270   27.1980    6.8650 C.3   258  LEU258      0.0001
     80  CD2      -56.6130   28.9500    5.9780 C.3   258  LEU258      0.0001
     81  N        -57.1290   31.9460    9.5510 N.am  259  THR259     -0.1939
     82  CA       -57.5920   32.9790   10.4490 C.3   259  THR259      0.2028
     83  C        -59.0790   32.8150   10.7760 C.2   259  THR259      0.2642
     84  O        -59.8720   33.7380   10.6310 O.2   259  THR259     -0.2714
     85  CB       -57.2720   34.3960    9.8960 C.3   259  THR259      0.1808
     86  OG1      -57.7770   34.5410    8.5650 O.3   259  THR259     -0.2208
     87  CG2      -55.7930   34.6050    9.8680 C.3   259  THR259      0.0379
     88  N        -59.4440   31.6570   11.3030 N.am  260  PHE260     -0.1959
     89  CA       -60.7640   31.5040   11.8960 C.3   260  PHE260      0.1771
     90  C        -60.9420   32.5610   13.0030 C.2   260  PHE260      0.2619
     91  O        -59.9500   33.0620   13.5830 O.2   260  PHE260     -0.2715
     92  CB       -60.8980   30.1320   12.5250 C.3   260  PHE260      0.0574
     93  CG       -60.8430   28.9910   11.5500 C.ar  260  PHE260     -0.0200
     94  CD1      -61.9740   28.5830   10.8820 C.ar  260  PHE260     -0.0042
     95  CD2      -59.6680   28.2900   11.3450 C.ar  260  PHE260     -0.0042
     96  CE1      -61.9360   27.5190   10.0110 C.ar  260  PHE260     -0.0003
     97  CE2      -59.6280   27.2210   10.4770 C.ar  260  PHE260     -0.0003
     98  CZ       -60.7670   26.8390    9.8020 C.ar  260  PHE260     -0.0000
     99  N        -62.1880   32.9140   13.3050 N.am  261  ASP261     -0.1971
    100  CA       -62.4330   33.7990   14.4490 C.3   261  ASP261      0.1709
    101  C        -62.1720   33.1130   15.7820 C.2   261  ASP261      0.2293
    102  O        -61.5410   33.7010   16.6780 O.2   261  ASP261     -0.2864
    103  CB       -63.8650   34.2530   14.4750 C.3   261  ASP261      0.1436
    104  CG       -64.1970   35.1730   13.3650 C.2   261  ASP261      0.3671
    105  OD1      -63.2870   35.9090   12.8770 O.co2 261  ASP261     -0.2456
    106  OD2      -65.4120   35.1780   13.0060 O.co2 261  ASP261     -0.2456
@<TRIPOS>BOND
     1    64    62   ar
     2    63    62   ar
     3    62    61    1
     4    80    78    1
     5    24    23    2
     6    21    22    1
     7    56    55    1
     8    61    58    1
     9    54    55   ar
    10    54    52   ar
    11    72    70    1
    12    79    78    1
    13    69    70    1
    14    69    66    1
    15    55    53   ar
    16    78    77    1
    17    52    50   ar
    18    23    22    1
    19    67    66    1
    20    67    68    2
    21    22    25    1
    22    25    26    1
    23    25    27    1
    24    70    71    1
    25    65    66    1
    26    65    59   am
    27    58    59    1
    28    58    57    1
    29    53    51   ar
    30    77    74    1
    31    59    60    2
    32    50    51   ar
    33    50    49    1
    34    86    85    1
    35    74    73    1
    36    74    75    1
    37    28    29    1
    38    49    46    1
    39    31    30    2
    40    35    37   ar
    41    35    33   ar
    42    81    75   am
    43    81    82    1
    44    37    38   ar
    45    16    17    1
    46    16    15    1
    47    98    96   ar
    48    98    97   ar
    49    87    85    1
    50    85    82    1
    51    48    47    2
    52    75    76    2
    53    96    94   ar
    54    32    29    1
    55    32    33    1
    56    19    18    1
    57    12    11    1
    58    12    13    2
    59    29    30    1
    60    33    34   ar
    61    82    83    1
    62    17    18    2
    63    43    44    1
    64    43    40    1
    65    97    95   ar
    66    47    46    1
    67    15    14    1
    68    84    83    2
    69    46    45    1
    70    18    20    1
    71    83    88   am
    72    11    14    1
    73    11    10    1
    74    38    36   ar
    75    94    93   ar
    76    88    89    1
    77    95    93   ar
    78    40    39    1
    79    40    41    1
    80    93    92    1
    81    34    36   ar
    82    89    92    1
    83    89    90    1
    84     8     9    1
    85     8     7    1
    86    41    42    2
    87   105   104   ar
    88    90    99   am
    89    90    91    2
    90   106   104   ar
    91     6     7    1
    92     6     5    1
    93    99   100    1
    94   104   103    1
    95     2     3    1
    96     2     5    1
    97     2     1    1
    98     3     4    2
    99   100   103    1
   100   100   101    1
   101   101   102    2
