@<TRIPOS>MOLECULE
tmp/5n2gA03.pdb
 90 87 0 0 0
SMALL
GASTEIGER

@<TRIPOS>ATOM
      1  N        -67.8310   27.8240   36.4700 N.3   336  GLU336     -0.1245
      2  CA       -68.8660   26.9460   37.0480 C.3   336  GLU336      0.1567
      3  C        -68.2960   26.1480   38.2130 C.2   336  GLU336      0.2260
      4  O        -67.1280   25.7440   38.1810 O.2   336  GLU336     -0.2867
      5  CB       -69.3890   25.9460   36.0200 C.3   336  GLU336      0.0388
      6  CG       -69.9100   26.5360   34.7200 C.3   336  GLU336      0.1160
      7  CD       -71.3380   27.0260   34.8170 C.2   336  GLU336      0.3649
      8  OE1      -72.2360   26.1780   35.0510 O.co2 336  GLU336     -0.2457
      9  OE2      -71.5590   28.2440   34.6210 O.co2 336  GLU336     -0.2457
     10  N        -74.4600   26.4530   24.4640 N.3   469  TYR469     -0.1227
     11  CA       -75.1030   26.2950   25.7780 C.3   469  TYR469      0.1736
     12  C        -74.6110   27.2490   26.8480 C.2   469  TYR469      0.2595
     13  O        -75.4270   27.7880   27.5920 O.2   469  TYR469     -0.2718
     14  CB       -74.9830   24.8600   26.2830 C.3   469  TYR469      0.0548
     15  CG       -75.5550   24.6130   27.6580 C.ar  469  TYR469     -0.0200
     16  CD1      -76.9100   24.3570   27.8360 C.ar  469  TYR469     -0.0009
     17  CD2      -74.7330   24.6330   28.7940 C.ar  469  TYR469     -0.0009
     18  CE1      -77.4380   24.1300   29.0970 C.ar  469  TYR469      0.0417
     19  CE2      -75.2540   24.4040   30.0620 C.ar  469  TYR469      0.0417
     20  CZ       -76.6060   24.1490   30.1980 C.ar  469  TYR469      0.1957
     21  OH       -77.1150   23.9120   31.4350 O.3   469  TYR469     -0.2866
     22  N        -73.2990   27.4570   26.9270 N.am  470  TYR470     -0.1962
     23  CA       -72.6990   28.3890   27.9110 C.3   470  TYR470      0.1771
     24  C        -72.6580   29.8500   27.4410 C.2   470  TYR470      0.2620
     25  O        -72.1710   30.7010   28.1840 O.2   470  TYR470     -0.2715
     26  CB       -71.2910   27.9100   28.3230 C.3   470  TYR470      0.0574
     27  CG       -71.3510   26.7420   29.2670 C.ar  470  TYR470     -0.0198
     28  CD1      -71.8530   26.9160   30.5640 C.ar  470  TYR470     -0.0009
     29  CD2      -70.9420   25.4510   28.8840 C.ar  470  TYR470     -0.0009
     30  CE1      -71.9370   25.8640   31.4560 C.ar  470  TYR470      0.0417
     31  CE2      -71.0220   24.3780   29.7800 C.ar  470  TYR470      0.0417
     32  CZ       -71.5230   24.5960   31.0690 C.ar  470  TYR470      0.1957
     33  OH       -71.6290   23.5870   32.0050 O.3   470  TYR470     -0.2866
     34  N        -73.1580   30.1240   26.2270 N.am  471  GLY471     -0.1954
     35  CA       -73.1440   31.4550   25.6160 C.3   471  GLY471      0.1869
     36  C        -71.7930   32.1610   25.6060 C.2   471  GLY471      0.2309
     37  O        -71.7130   33.3600   25.9080 O.2   471  GLY471     -0.2863
     38  N        -70.7450   36.2310   26.1610 N.3   475  LYS475     -0.1245
     39  CA       -69.9690   36.4310   27.3780 C.3   475  LYS475      0.1561
     40  C        -68.5810   37.0020   27.1120 C.2   475  LYS475      0.2260
     41  O        -68.0990   37.8070   27.8970 O.2   475  LYS475     -0.2867
     42  CB       -69.8720   35.1360   28.1650 C.3   475  LYS475      0.0271
     43  CG       -71.1900   34.7830   28.8260 C.3   475  LYS475      0.0035
     44  CD       -71.0630   33.5660   29.6870 C.3   475  LYS475      0.0206
     45  CE       -72.4260   33.1440   30.1630 C.3   475  LYS475      0.1093
     46  NZ       -72.2530   31.8510   30.8730 N.3   475  LYS475     -0.1314
     47  N        -78.5750   39.2730   28.4770 N.3   651  ASP651     -0.1225
     48  CA       -78.3590   38.2300   29.4800 C.3   651  ASP651      0.1805
     49  C        -76.8800   38.0780   29.8180 C.2   651  ASP651      0.2598
     50  O        -76.5590   37.7820   30.9440 O.2   651  ASP651     -0.2718
     51  CB       -78.9140   36.8870   28.9940 C.3   651  ASP651      0.1424
     52  CG       -79.1430   35.9020   30.1020 C.2   651  ASP651      0.3668
     53  OD1      -79.4130   36.3000   31.2400 O.co2 651  ASP651     -0.2456
     54  OD2      -79.1210   34.6960   29.8290 O.co2 651  ASP651     -0.2456
     55  N        -75.9810   38.2780   28.8560 N.am  652  SER652     -0.1952
     56  CA       -74.5410   38.1290   29.1180 C.3   652  SER652      0.1924
     57  C        -74.0050   39.3020   29.8930 C.2   652  SER652      0.2314
     58  O        -73.1680   39.1490   30.7880 O.2   652  SER652     -0.2863
     59  CB       -73.7350   37.9850   27.8290 C.3   652  SER652      0.2116
     60  OG       -73.9560   36.7100   27.2520 O.3   652  SER652     -0.2180
     61  N        -75.6200   41.3140   31.9070 N.3   654  GLN654     -0.1231
     62  CA       -76.1640   41.1000   33.2320 C.3   654  GLN654      0.1698
     63  C        -75.3250   40.1090   34.0250 C.2   654  GLN654      0.2592
     64  O        -74.9660   40.3810   35.1620 O.2   654  GLN654     -0.2718
     65  CB       -77.6070   40.6500   33.0440 C.3   654  GLN654      0.0381
     66  CG       -78.2980   40.1000   34.2330 C.3   654  GLN654      0.0905
     67  CD       -77.9610   38.6590   34.5120 C.2   654  GLN654      0.2608
     68  OE1      -77.7990   38.2670   35.6620 O.2   654  GLN654     -0.2717
     69  NE2      -77.8470   37.8670   33.4710 N.am  654  GLN654     -0.0878
     70  N        -74.9880   38.9780   33.4170 N.am  655  TYR655     -0.1976
     71  CA       -74.1720   37.9350   34.0810 C.3   655  TYR655      0.1639
     72  C        -72.8090   38.4850   34.4210 C.2   655  TYR655      0.2290
     73  O        -72.3190   38.2870   35.5130 O.2   655  TYR655     -0.2864
     74  CB       -74.0550   36.6650   33.2050 C.3   655  TYR655      0.0560
     75  CG       -72.8390   35.7570   33.4080 C.ar  655  TYR655     -0.0198
     76  CD1      -71.6170   36.0350   32.7740 C.ar  655  TYR655     -0.0009
     77  CD2      -72.9220   34.5990   34.1680 C.ar  655  TYR655     -0.0009
     78  CE1      -70.5060   35.1990   32.9300 C.ar  655  TYR655      0.0417
     79  CE2      -71.8180   33.7560   34.3270 C.ar  655  TYR655      0.0417
     80  CZ       -70.6160   34.0580   33.7040 C.ar  655  TYR655      0.1957
     81  OH       -69.5160   33.2410   33.8400 O.3   655  TYR655     -0.2866
     82  N        -72.9030   40.5930   37.4790 N.3   658  LYS658     -0.1245
     83  CA       -72.9650   39.7270   38.6820 C.3   658  LYS658      0.1561
     84  C        -71.5840   39.2130   39.0840 C.2   658  LYS658      0.2260
     85  O        -71.1800   39.3030   40.2460 O.2   658  LYS658     -0.2867
     86  CB       -73.8850   38.5120   38.4650 C.3   658  LYS658      0.0271
     87  CG       -74.0920   37.5930   39.6750 C.3   658  LYS658      0.0035
     88  CD       -74.9960   36.4040   39.3350 C.3   658  LYS658      0.0206
     89  CE       -74.2200   35.2820   38.6510 C.3   658  LYS658      0.1093
     90  NZ       -75.0470   34.4520   37.7210 N.3   658  LYS658     -0.1314
@<TRIPOS>BOND
     1    10    11    1
     2    36    35    1
     3    36    37    2
     4    35    34    1
     5    11    14    1
     6    11    12    1
     7    38    39    1
     8    34    24   am
     9    14    15    1
    10    12    22   am
    11    12    13    2
    12    22    23    1
    13    40    39    1
    14    40    41    2
    15    60    59    1
    16    39    42    1
    17    24    23    1
    18    24    25    2
    19    15    16   ar
    20    15    17   ar
    21    59    56    1
    22    16    18   ar
    23    23    26    1
    24    42    43    1
    25    26    27    1
    26    47    48    1
    27    17    19   ar
    28    43    44    1
    29    55    56    1
    30    55    49   am
    31    29    27   ar
    32    29    31   ar
    33    51    48    1
    34    51    52    1
    35    18    20   ar
    36    56    57    1
    37    27    28   ar
    38    48    49    1
    39    44    45    1
    40    31    32   ar
    41    49    50    2
    42    54    52   ar
    43    57    58    2
    44    19    20   ar
    45    52    53   ar
    46    45    46    1
    47    20    21    1
    48    28    30   ar
    49    32    30   ar
    50    32    33    1
    51    61    62    1
    52    76    78   ar
    53    76    75   ar
    54    78    80   ar
    55    65    62    1
    56    65    66    1
    57    74    75    1
    58    74    71    1
    59    62    63    1
    60    75    77   ar
    61    70    63   am
    62    70    71    1
    63    69    67   am
    64    80    81    1
    65    80    79   ar
    66    63    64    2
    67    71    72    1
    68    77    79   ar
    69    66    67    1
    70    72    73    2
    71    67    68    2
    72     9     7   ar
    73     6     7    1
    74     6     5    1
    75     7     8   ar
    76     5     2    1
    77     1     2    1
    78     2     3    1
    79    82    83    1
    80    90    89    1
    81     4     3    2
    82    86    83    1
    83    86    87    1
    84    89    88    1
    85    83    84    1
    86    84    85    2
    87    88    87    1
