@<TRIPOS>MOLECULE
tmp/5n2gA02.pdb
 163 162 0 0 0
SMALL
GASTEIGER

@<TRIPOS>ATOM
      1  N        -55.6640   22.8180   24.4030 N.3   269  HIS269     -0.1241
      2  CA       -54.4580   23.6100   24.5520 C.3   269  HIS269      0.1621
      3  C        -53.3400   22.8060   25.2290 C.2   269  HIS269      0.2264
      4  O        -52.1720   22.9380   24.8700 O.2   269  HIS269     -0.2867
      5  CB       -54.7950   24.8840   25.3080 C.3   269  HIS269      0.0745
      6  CG       -55.7060   25.7870   24.5490 C.ar  269  HIS269      0.0817
      7  ND1      -55.8360   27.1210   24.8450 N.ar  269  HIS269     -0.2268
      8  CD2      -56.4960   25.5630   23.4700 C.ar  269  HIS269      0.1154
      9  CE1      -56.6950   27.6750   24.0070 C.ar  269  HIS269      0.1986
     10  NE2      -57.1080   26.7530   23.1570 N.ar  269  HIS269     -0.2212
     11  N        -48.2190   28.0510   26.0830 N.3   304  TYR304     -0.1241
     12  CA       -47.6660   28.6240   27.3250 C.3   304  TYR304      0.1605
     13  C        -48.6520   28.4560   28.4510 C.2   304  TYR304      0.2264
     14  O        -49.8090   28.1250   28.2030 O.2   304  TYR304     -0.2867
     15  CB       -47.2770   30.0930   27.1610 C.3   304  TYR304      0.0534
     16  CG       -48.3870   31.0640   26.8450 C.ar  304  TYR304     -0.0201
     17  CD1      -48.7460   31.3250   25.5320 C.ar  304  TYR304     -0.0009
     18  CD2      -49.0500   31.7640   27.8520 C.ar  304  TYR304     -0.0009
     19  CE1      -49.7560   32.2250   25.2220 C.ar  304  TYR304      0.0417
     20  CE2      -50.0530   32.6820   27.5520 C.ar  304  TYR304      0.0417
     21  CZ       -50.4060   32.9120   26.2280 C.ar  304  TYR304      0.1957
     22  OH       -51.4140   33.8000   25.8820 O.3   304  TYR304     -0.2866
     23  N        -53.6870   26.7010   30.0810 N.3   315  PHE315     -0.1227
     24  CA       -52.8320   26.6600   28.8990 C.3   315  PHE315      0.1736
     25  C        -53.4180   27.4450   27.7590 C.2   315  PHE315      0.2595
     26  O        -54.6280   27.4690   27.5540 O.2   315  PHE315     -0.2718
     27  CB       -52.6200   25.2210   28.5110 C.3   315  PHE315      0.0547
     28  CG       -51.9080   24.4530   29.5660 C.ar  315  PHE315     -0.0202
     29  CD1      -50.5350   24.5800   29.7100 C.ar  315  PHE315     -0.0042
     30  CD2      -52.6140   23.6590   30.4690 C.ar  315  PHE315     -0.0042
     31  CE1      -49.8680   23.8890   30.7020 C.ar  315  PHE315     -0.0003
     32  CE2      -51.9510   22.9680   31.4670 C.ar  315  PHE315     -0.0003
     33  CZ       -50.5740   23.0900   31.5880 C.ar  315  PHE315     -0.0000
     34  N        -52.5250   28.0680   27.0160 N.am  316  HIS316     -0.1961
     35  CA       -52.8510   29.1120   26.0660 C.3   316  HIS316      0.1787
     36  C        -51.9490   29.0260   24.8190 C.2   316  HIS316      0.2620
     37  O        -50.8050   28.6000   24.8960 O.2   316  HIS316     -0.2715
     38  CB       -52.6700   30.4570   26.7740 C.3   316  HIS316      0.0785
     39  CG       -53.3710   30.5230   28.0930 C.ar  316  HIS316      0.0821
     40  ND1      -54.7390   30.5890   28.2040 N.ar  316  HIS316     -0.2267
     41  CD2      -52.9000   30.4470   29.3580 C.ar  316  HIS316      0.1154
     42  CE1      -55.0850   30.5590   29.4760 C.ar  316  HIS316      0.1986
     43  NE2      -53.9860   30.4890   30.2000 N.ar  316  HIS316     -0.2212
     44  N        -52.4890   29.4240   23.6720 N.am  317  VAL317     -0.1977
     45  CA       -51.7810   29.4250   22.4030 C.3   317  VAL317      0.1596
     46  C        -51.3050   30.8360   22.1920 C.2   317  VAL317      0.2287
     47  O        -51.9990   31.7750   22.5680 O.2   317  VAL317     -0.2864
     48  CB       -52.7300   29.0410   21.2560 C.3   317  VAL317      0.0276
     49  CG1      -51.9860   28.9810   19.9330 C.3   317  VAL317      0.0022
     50  CG2      -53.4210   27.7050   21.5430 C.3   317  VAL317      0.0022
     51  N        -50.6900   32.5450   19.2340 N.3   319  ASN319     -0.1240
     52  CA       -50.9130   33.0480   17.8870 C.3   319  ASN319      0.1653
     53  C        -51.0780   34.5640   17.8680 C.2   319  ASN319      0.2266
     54  O        -51.8200   35.1220   18.6460 O.2   319  ASN319     -0.2867
     55  CB       -52.1460   32.3930   17.2710 C.3   319  ASN319      0.1155
     56  CG       -53.3930   32.5980   18.1060 C.2   319  ASN319      0.2627
     57  OD1      -53.4390   32.2240   19.2870 O.2   319  ASN319     -0.2716
     58  ND2      -54.4030   33.1930   17.5130 N.am  319  ASN319     -0.0877
     59  N        -56.9620   35.2550   15.7870 N.3   323  THR323     -0.1203
     60  CA       -57.8520   34.1140   16.0430 C.3   323  THR323      0.1994
     61  C        -57.9280   33.8730   17.5560 C.2   323  THR323      0.2618
     62  O        -56.9480   34.0670   18.2600 O.2   323  THR323     -0.2717
     63  CB       -57.3540   32.8470   15.3170 C.3   323  THR323      0.1784
     64  OG1      -57.4310   33.0460   13.8960 O.3   323  THR323     -0.2211
     65  CG2      -58.1720   31.6200   15.7050 C.3   323  THR323      0.0376
     66  N        -59.0860   33.4770   18.0660 N.am  324  ILE324     -0.1965
     67  CA       -59.2130   33.1890   19.4940 C.3   324  ILE324      0.1727
     68  C        -59.2140   31.6910   19.6480 C.2   324  ILE324      0.2616
     69  O        -60.2200   31.0460   19.3590 O.2   324  ILE324     -0.2715
     70  CB       -60.4910   33.8010   20.0960 C.3   324  ILE324      0.0290
     71  CG1      -60.4000   35.3290   20.0280 C.3   324  ILE324      0.0022
     72  CG2      -60.6790   33.3700   21.5480 C.3   324  ILE324      0.0023
     73  CD1      -61.6980   36.0720   20.3280 C.3   324  ILE324      0.0001
     74  N        -58.0830   31.1430   20.0850 N.am  325  PHE325     -0.1960
     75  CA       -57.9890   29.7190   20.3970 C.3   325  PHE325      0.1771
     76  C        -58.5620   29.6270   21.7850 C.2   325  PHE325      0.2620
     77  O        -58.0240   30.2130   22.6830 O.2   325  PHE325     -0.2715
     78  CB       -56.5370   29.1960   20.3570 C.3   325  PHE325      0.0574
     79  CG       -56.0560   28.8630   18.9700 C.ar  325  PHE325     -0.0200
     80  CD1      -55.5910   29.8720   18.1180 C.ar  325  PHE325     -0.0042
     81  CD2      -56.0960   27.5650   18.5050 C.ar  325  PHE325     -0.0042
     82  CE1      -55.1700   29.5840   16.8380 C.ar  325  PHE325     -0.0003
     83  CE2      -55.6810   27.2650   17.2270 C.ar  325  PHE325     -0.0003
     84  CZ       -55.2120   28.2690   16.3900 C.ar  325  PHE325     -0.0000
     85  N        -59.6730   28.9230   21.9350 N.am  326  PHE326     -0.1960
     86  CA       -60.4500   28.9520   23.1510 C.3   326  PHE326      0.1771
     87  C        -60.6770   27.5360   23.6590 C.2   326  PHE326      0.2619
     88  O        -61.3090   26.7380   22.9790 O.2   326  PHE326     -0.2715
     89  CB       -61.8030   29.6100   22.8760 C.3   326  PHE326      0.0574
     90  CG       -62.5430   30.0230   24.1200 C.ar  326  PHE326     -0.0200
     91  CD1      -63.2040   29.0820   24.8980 C.ar  326  PHE326     -0.0042
     92  CD2      -62.5520   31.3500   24.5180 C.ar  326  PHE326     -0.0042
     93  CE1      -63.8490   29.4650   26.0420 C.ar  326  PHE326     -0.0003
     94  CE2      -63.2000   31.7390   25.6560 C.ar  326  PHE326     -0.0003
     95  CZ       -63.8480   30.8010   26.4260 C.ar  326  PHE326     -0.0000
     96  N        -60.2060   27.2590   24.8730 N.am  327  ASP327     -0.1971
     97  CA       -60.3510   25.9580   25.5260 C.3   327  ASP327      0.1709
     98  C        -61.5250   25.9170   26.4880 C.2   327  ASP327      0.2293
     99  O        -61.4530   26.5090   27.5500 O.2   327  ASP327     -0.2864
    100  CB       -59.0720   25.6430   26.3040 C.3   327  ASP327      0.1436
    101  CG       -58.9690   24.1850   26.6880 C.2   327  ASP327      0.3671
    102  OD1      -60.0300   23.5600   26.9140 O.co2 327  ASP327     -0.2456
    103  OD2      -57.8250   23.6710   26.7540 O.co2 327  ASP327     -0.2456
    104  N        -60.8080   24.8170   30.4030 N.3   330  SER330     -0.1202
    105  CA       -60.3420   25.9200   31.2580 C.3   330  SER330      0.2020
    106  C        -61.4720   26.8580   31.6440 C.2   330  SER330      0.2618
    107  O        -61.5730   27.2790   32.7870 O.2   330  SER330     -0.2717
    108  CB       -59.2780   26.7760   30.5540 C.3   330  SER330      0.2103
    109  OG       -58.1720   26.0160   30.0860 O.3   330  SER330     -0.2182
    110  N        -62.3010   27.1980   30.6670 N.am  331  PHE331     -0.1975
    111  CA       -63.3920   28.1480   30.8620 C.3   331  PHE331      0.1639
    112  C        -64.4640   27.6410   31.8140 C.2   331  PHE331      0.2290
    113  O        -64.9470   28.3890   32.6830 O.2   331  PHE331     -0.2864
    114  CB       -64.0400   28.4750   29.5160 C.3   331  PHE331      0.0560
    115  CG       -65.3520   29.1860   29.6300 C.ar  331  PHE331     -0.0200
    116  CD1      -65.3980   30.5440   29.9070 C.ar  331  PHE331     -0.0042
    117  CD2      -66.5350   28.4970   29.4700 C.ar  331  PHE331     -0.0042
    118  CE1      -66.6100   31.1940   30.0250 C.ar  331  PHE331     -0.0003
    119  CE2      -67.7450   29.1400   29.5840 C.ar  331  PHE331     -0.0003
    120  CZ       -67.7850   30.4930   29.8590 C.ar  331  PHE331     -0.0000
    121  N        -63.1280   27.8230   35.4730 N.3   334  LYS334     -0.1245
    122  CA       -63.2430   29.2140   35.9730 C.3   334  LYS334      0.1561
    123  C        -64.6860   29.6420   36.3110 C.2   334  LYS334      0.2260
    124  O        -64.9000   30.3090   37.3130 O.2   334  LYS334     -0.2867
    125  CB       -62.6550   30.2330   34.9720 C.3   334  LYS334      0.0271
    126  CG       -61.1340   30.2950   34.9010 C.3   334  LYS334      0.0035
    127  CD       -60.6620   31.2780   33.8200 C.3   334  LYS334      0.0206
    128  CE       -59.7320   30.6240   32.7820 C.3   334  LYS334      0.1093
    129  NZ       -58.2920   31.0530   32.8200 N.3   334  LYS334     -0.1314
    130  N        -59.9650   38.1860   23.6000 N.3   488  SER488     -0.1202
    131  CA       -59.0680   37.0630   23.7860 C.3   488  SER488      0.2020
    132  C        -58.4700   37.0220   25.1850 C.2   488  SER488      0.2618
    133  O        -58.0610   35.9650   25.6520 O.2   488  SER488     -0.2717
    134  CB       -57.9330   37.1770   22.7690 C.3   488  SER488      0.2103
    135  OG       -57.4280   38.5050   22.7320 O.3   488  SER488     -0.2182
    136  N        -58.3790   38.1870   25.8220 N.am  489  MET489     -0.1979
    137  CA       -57.8430   38.3060   27.1720 C.3   489  MET489      0.1605
    138  C        -58.8950   38.1090   28.2850 C.2   489  MET489      0.2287
    139  O        -58.5410   37.9410   29.4380 O.2   489  MET489     -0.2864
    140  CB       -57.0760   39.6560   27.3170 C.3   489  MET489      0.0413
    141  CG       -55.7380   39.7490   26.5770 C.3   489  MET489      0.0598
    142  SD       -54.9990   38.0960   26.4080 S.3   489  MET489     -0.1393
    143  CE       -53.2600   38.3900   26.0450 C.3   489  MET489      0.0692
    144  N        -61.1750   35.6720   29.2440 N.3   491  PHE491     -0.1227
    145  CA       -61.1320   34.4310   30.0160 C.3   491  PHE491      0.1736
    146  C        -59.7270   33.8410   30.0820 C.2   491  PHE491      0.2595
    147  O        -59.5710   32.6710   30.3920 O.2   491  PHE491     -0.2718
    148  CB       -62.1220   33.4170   29.4400 C.3   491  PHE491      0.0547
    149  CG       -63.5440   33.8670   29.5300 C.ar  491  PHE491     -0.0202
    150  CD1      -64.1650   33.9980   30.7820 C.ar  491  PHE491     -0.0042
    151  CD2      -64.2640   34.1970   28.3860 C.ar  491  PHE491     -0.0042
    152  CE1      -65.4690   34.4410   30.9090 C.ar  491  PHE491     -0.0003
    153  CE2      -65.5750   34.6370   28.4940 C.ar  491  PHE491     -0.0003
    154  CZ       -66.1790   34.7620   29.7660 C.ar  491  PHE491     -0.0000
    155  N        -58.7070   34.6320   29.7610 N.am  492  GLU492     -0.1979
    156  CA       -57.3180   34.2190   29.9560 C.3   492  GLU492      0.1602
    157  C        -56.8220   34.7740   31.2640 C.2   492  GLU492      0.2287
    158  O        -56.2840   34.0440   32.0670 O.2   492  GLU492     -0.2864
    159  CB       -56.4010   34.7170   28.8340 C.3   492  GLU492      0.0415
    160  CG       -55.0240   34.0460   28.8530 C.3   492  GLU492      0.1163
    161  CD       -54.0590   34.5920   27.8310 C.2   492  GLU492      0.3649
    162  OE1      -54.4940   35.2570   26.8780 O.co2 492  GLU492     -0.2457
    163  OE2      -52.8550   34.3480   27.9710 O.co2 492  GLU492     -0.2457
@<TRIPOS>BOND
     1    64    63    1
     2    63    65    1
     3    63    60    1
     4    59    60    1
     5    60    61    1
     6    84    82   ar
     7    84    83   ar
     8    82    80   ar
     9    83    81   ar
    10    55    52    1
    11    55    56    1
    12    58    56   am
    13    61    66   am
    14    61    62    2
    15    53    52    1
    16    53    54    2
    17    52    51    1
    18    66    67    1
    19    56    57    2
    20    80    79   ar
    21    81    79   ar
    22    79    78    1
    23    69    68    2
    24    67    68    1
    25    67    70    1
    26    68    74   am
    27    49    48    1
    28    71    70    1
    29    71    73    1
    30    74    75    1
    31    70    72    1
    32    78    75    1
    33    75    76    1
    34    48    50    1
    35    48    45    1
    36    76    85   am
    37    76    77    2
    38    85    86    1
    39    46    45    1
    40    46    47    2
    41    45    44    1
    42   135   134    1
    43   134   131    1
    44    89    86    1
    45    89    90    1
    46    88    87    2
    47    86    87    1
    48    10     8   ar
    49    10     9   ar
    50     8     6   ar
    51   130   131    1
    52    87    96   am
    53    44    36   am
    54   131   132    1
    55     9     7   ar
    56    90    92   ar
    57    90    91   ar
    58     1     2    1
    59    92    94   ar
    60     6     7   ar
    61     6     5    1
    62     2     3    1
    63     2     5    1
    64    36    37    2
    65    36    35    1
    66     4     3    2
    67    96    97    1
    68    91    93   ar
    69   132   133    2
    70   132   136   am
    71    19    17   ar
    72    19    21   ar
    73    97   100    1
    74    97    98    1
    75    17    16   ar
    76    94    95   ar
    77   136   137    1
    78    22    21    1
    79    93    95   ar
    80   143   142    1
    81    35    38    1
    82    35    34    1
    83    11    12    1
    84    21    20   ar
    85   100   101    1
    86   142   141    1
    87    98    99    2
    88   141   140    1
    89   101   103   ar
    90   101   102   ar
    91    38    39    1
    92    16    15    1
    93    16    18   ar
    94   162   161   ar
    95    34    25   am
    96    15    12    1
    97   137   140    1
    98   137   138    1
    99    12    13    1
   100    20    18   ar
   101    26    25    2
   102    25    24    1
   103   161   163   ar
   104   161   160    1
   105    39    40   ar
   106    39    41   ar
   107    14    13    2
   108    40    42   ar
   109   138   139    2
   110   151   153   ar
   111   151   149   ar
   112   153   154   ar
   113    27    24    1
   114    27    28    1
   115   159   160    1
   116   159   156    1
   117    24    23    1
   118   144   145    1
   119    41    43   ar
   120   148   149    1
   121   148   145    1
   122   117   119   ar
   123   117   115   ar
   124    42    43   ar
   125   114   115    1
   126   114   111    1
   127   149   150   ar
   128    28    29   ar
   129    28    30   ar
   130   119   120   ar
   131   115   116   ar
   132    29    31   ar
   133   155   156    1
   134   155   146   am
   135   154   152   ar
   136   120   118   ar
   137   116   118   ar
   138   156   157    1
   139   145   146    1
   140   146   147    2
   141   109   108    1
   142   104   105    1
   143    30    32   ar
   144   108   105    1
   145   110   111    1
   146   110   106   am
   147    31    33   ar
   148   150   152   ar
   149   111   112    1
   150   105   106    1
   151   157   158    2
   152    32    33   ar
   153   106   107    2
   154   112   113    2
   155   128   129    1
   156   128   127    1
   157   127   126    1
   158   126   125    1
   159   125   122    1
   160   121   122    1
   161   122   123    1
   162   123   124    2
