@<TRIPOS>MOLECULE
tmp/5n2iA00.pdb
 204 198 0 0 0
SMALL
GASTEIGER

@<TRIPOS>ATOM
      1  N         43.2350   62.7210   27.0800 N.3    19  GLY19      -0.1225
      2  CA        43.9400   62.7230   25.8120 C.3    19  GLY19       0.1811
      3  C         44.4740   61.3420   25.5220 C.2    19  GLY19       0.2280
      4  O         45.5450   61.1750   24.9300 O.2    19  GLY19      -0.2866
      5  N         43.7230   58.8920   23.5830 N.3    21  THR21      -0.1203
      6  CA        43.4790   58.2710   22.3170 C.3    21  THR21       0.1994
      7  C         44.7400   58.3390   21.4740 C.2    21  THR21       0.2618
      8  O         44.7710   57.7860   20.3770 O.2    21  THR21      -0.2717
      9  CB        42.3470   59.0330   21.5730 C.3    21  THR21       0.1784
     10  OG1       42.7220   60.4060   21.4780 O.3    21  THR21      -0.2211
     11  CG2       41.0430   58.9150   22.3000 C.3    21  THR21       0.0376
     12  N         45.7850   59.0150   21.9480 N.am   22  GLY22      -0.1942
     13  CA        47.0540   58.9490   21.2510 C.3    22  GLY22       0.2014
     14  C         47.9290   57.7620   21.6540 C.2    22  GLY22       0.2639
     15  O         47.5180   56.8590   22.3970 O.2    22  GLY22      -0.2714
     16  N         49.1140   57.7140   21.0740 N.am   23  ASP23      -0.1957
     17  CA        50.0720   56.6580   21.4240 C.3    23  ASP23       0.1840
     18  C         50.3810   56.5320   22.9520 C.2    23  ASP23       0.2622
     19  O         50.4320   55.4250   23.4700 O.2    23  ASP23      -0.2715
     20  CB        51.3950   56.8320   20.6740 C.3    23  ASP23       0.1450
     21  CG        51.3810   56.2140   19.2500 C.2    23  ASP23       0.3671
     22  OD1       50.3990   55.5350   18.8200 O.co2  23  ASP23      -0.2456
     23  OD2       52.4170   56.4120   18.5790 O.co2  23  ASP23      -0.2456
     24  N         50.5980   57.6420   23.6330 N.am   24  GLN24      -0.1963
     25  CA        50.9520   57.5850   25.0650 C.3    24  GLN24       0.1733
     26  C         49.8260   57.0060   25.9070 C.2    24  GLN24       0.2616
     27  O         50.0510   56.1100   26.7510 O.2    24  GLN24      -0.2715
     28  CB        51.3400   58.9520   25.5450 C.3    24  GLN24       0.0408
     29  CG        51.6470   59.0250   27.0210 C.3    24  GLN24       0.0908
     30  CD        52.9770   58.3810   27.3870 C.2    24  GLN24       0.2608
     31  OE1       53.5630   57.5790   26.6600 O.2    24  GLN24      -0.2717
     32  NE2       53.4720   58.7840   28.5450 N.am   24  GLN24      -0.0878
     33  N         48.6260   57.5170   25.6620 N.am   25  GLY25      -0.1955
     34  CA        47.4430   57.1260   26.3530 C.3    25  GLY25       0.1869
     35  C         47.1150   55.6930   26.0680 C.2    25  GLY25       0.2309
     36  O         46.7750   54.9200   26.9740 O.2    25  GLY25      -0.2863
     37  N         38.6380   61.6070   25.7640 N.3    43  SER43      -0.1202
     38  CA        38.8290   62.3020   24.4960 C.3    43  SER43       0.2020
     39  C         37.9810   63.5890   24.4780 C.2    43  SER43       0.2618
     40  O         37.0630   63.7470   25.2700 O.2    43  SER43      -0.2717
     41  CB        38.4130   61.3810   23.3570 C.3    43  SER43       0.2103
     42  OG        38.4760   62.0460   22.0780 O.3    43  SER43      -0.2182
     43  N         38.3100   64.5040   23.5910 N.am   44  ARG44      -0.1979
     44  CA        37.3410   65.5680   23.3270 C.3    44  ARG44       0.1597
     45  C         35.9900   65.0180   22.7820 C.2    44  ARG44       0.2287
     46  O         34.9710   65.6180   23.0500 O.2    44  ARG44      -0.2864
     47  CB        37.9250   66.6140   22.4180 C.3    44  ARG44       0.0334
     48  CG        38.8630   67.4910   23.1900 C.3    44  ARG44       0.0492
     49  CD        39.7270   68.2930   22.2960 C.3    44  ARG44       0.2205
     50  NE        40.4940   67.4550   21.4230 N.pl3  44  ARG44      -0.0865
     51  CZ        41.2950   67.9030   20.4590 C.cat  44  ARG44       0.5346
     52  NH1       41.4170   69.2030   20.2320 N.pl3  44  ARG44       0.1354
     53  NH2       41.9670   67.0520   19.7040 N.pl3  44  ARG44       0.1354
     54  N         34.8350   58.8410   19.8470 N.3    48  ARG48      -0.1245
     55  CA        36.2000   58.5180   19.4950 C.3    48  ARG48       0.1563
     56  C         36.9160   57.7200   20.6360 C.2    48  ARG48       0.2260
     57  O         37.6530   56.7710   20.3640 O.2    48  ARG48      -0.2867
     58  CB        36.9730   59.8030   19.1760 C.3    48  ARG48       0.0307
     59  CG        38.3940   59.5160   18.7330 C.3    48  ARG48       0.0489
     60  CD        39.2640   60.7390   18.4910 C.3    48  ARG48       0.2205
     61  NE        40.6650   60.2840   18.3510 N.pl3  48  ARG48      -0.0865
     62  CZ        41.7530   61.0570   18.1970 C.cat  48  ARG48       0.5346
     63  NH1       42.9540   60.4810   18.0960 N.pl3  48  ARG48       0.1354
     64  NH2       41.6730   62.3880   18.1310 N.pl3  48  ARG48       0.1354
     65  N         36.6540   63.7690   28.1630 N.3    67  ASN67      -0.1240
     66  CA        37.6470   64.0320   29.2090 C.3    67  ASN67       0.1653
     67  C         37.0250   64.3210   30.5280 C.2    67  ASN67       0.2266
     68  O         37.4670   63.7990   31.5520 O.2    67  ASN67      -0.2867
     69  CB        38.5820   65.1650   28.7930 C.3    67  ASN67       0.1155
     70  CG        39.5340   64.7410   27.6970 C.2    67  ASN67       0.2627
     71  OD1       40.1650   63.6850   27.8280 O.2    67  ASN67      -0.2716
     72  ND2       39.6770   65.5250   26.6510 N.am   67  ASN67      -0.0877
     73  N         47.6390   63.1980   29.3840 N.3    80  ALA80      -0.1231
     74  CA        48.4520   62.8310   28.2150 C.3    80  ALA80       0.1694
     75  C         48.0590   63.6010   26.9430 C.2    80  ALA80       0.2592
     76  O         48.0320   63.0210   25.8810 O.2    80  ALA80      -0.2718
     77  CB        48.3480   61.3600   27.9870 C.3    80  ALA80       0.0304
     78  N         47.7810   64.8980   27.0810 N.am   81  VAL81      -0.1966
     79  CA        47.5190   65.7730   25.9420 C.3    81  VAL81       0.1712
     80  C         48.8200   66.4070   25.4840 C.2    81  VAL81       0.2458
     81  O         49.7660   66.3870   26.2080 O.2    81  VAL81      -0.2730
     82  CB        46.4260   66.8160   26.2410 C.3    81  VAL81       0.0289
     83  CG1       45.1380   66.1000   26.6120 C.3    81  VAL81       0.0023
     84  CG2       46.8390   67.7920   27.3280 C.3    81  VAL81       0.0023
     85  N         48.8720   66.9770   24.2620 N.am   82  PRO82      -0.2716
     86  CA        50.0710   67.7320   23.8800 C.3    82  PRO82       0.1536
     87  C         50.2080   68.9860   24.6870 C.2    82  PRO82       0.2599
     88  O         49.1680   69.5220   25.2480 O.2    82  PRO82      -0.2715
     89  CB        49.8270   68.0380   22.4100 C.3    82  PRO82       0.0310
     90  CG        48.8240   66.9640   21.9770 C.3    82  PRO82       0.0237
     91  CD        47.9150   66.8890   23.1500 C.3    82  PRO82       0.0939
     92  N         51.4450   69.4840   24.7590 N.am   83  TRP83      -0.1960
     93  CA        51.6920   70.7320   25.4940 C.3    83  TRP83       0.1771
     94  C         50.7740   71.8970   25.0200 C.2    83  TRP83       0.2620
     95  O         50.2830   72.6690   25.8480 O.2    83  TRP83      -0.2715
     96  CB        53.1550   71.1340   25.3780 C.3    83  TRP83       0.0590
     97  CG        53.4950   72.3810   25.9810 C.ar   83  TRP83       0.0006
     98  CD1       54.1860   73.4230   25.3540 C.ar   83  TRP83       0.0946
     99  CD2       53.2740   72.8120   27.3380 C.ar   83  TRP83       0.0152
    100  NE1       54.3720   74.4400   26.2480 N.ar   83  TRP83      -0.2442
    101  CE2       53.8630   74.0910   27.4680 C.ar   83  TRP83       0.0810
    102  CE3       52.7100   72.2220   28.4730 C.ar   83  TRP83       0.0012
    103  CZ2       53.8150   74.8230   28.6450 C.ar   83  TRP83       0.0191
    104  CZ3       52.6590   72.9650   29.6520 C.ar   83  TRP83       0.0001
    105  CH2       53.2720   74.2340   29.7300 C.ar   83  TRP83       0.0015
    106  N         50.5060   71.9720   23.7190 N.am   84  ASP84      -0.1957
    107  CA        49.6010   73.0040   23.2110 C.3    84  ASP84       0.1840
    108  C         48.1930   73.0030   23.8690 C.2    84  ASP84       0.2622
    109  O         47.6250   74.0540   24.0930 O.2    84  ASP84      -0.2715
    110  CB        49.5060   72.9070   21.6920 C.3    84  ASP84       0.1450
    111  CG        48.7430   74.0860   21.0770 C.2    84  ASP84       0.3671
    112  OD1       49.0300   75.2720   21.4290 O.co2  84  ASP84      -0.2456
    113  OD2       47.8370   73.8210   20.2340 O.co2  84  ASP84      -0.2456
    114  N         47.6430   71.8540   24.2350 N.am   85  GLY85      -0.1954
    115  CA        46.3230   71.8160   24.8730 C.3    85  GLY85       0.1869
    116  C         46.3120   71.7710   26.3760 C.2    85  GLY85       0.2309
    117  O         45.2520   71.7970   26.9830 O.2    85  GLY85      -0.2863
    118  N         44.5350   74.7550   28.8070 N.3    88  ALA88      -0.1231
    119  CA        43.1040   74.9100   28.5340 C.3    88  ALA88       0.1694
    120  C         42.3540   73.6900   29.0200 C.2    88  ALA88       0.2591
    121  O         41.2480   73.7890   29.6350 O.2    88  ALA88      -0.2718
    122  CB        42.8600   75.1340   27.0580 C.3    88  ALA88       0.0304
    123  N         42.9450   72.5240   28.8170 N.am   89  LEU89      -0.1980
    124  CA        42.2790   71.3210   29.3250 C.3    89  LEU89       0.1596
    125  C         42.1580   71.3560   30.8230 C.2    89  LEU89       0.2287
    126  O         41.0670   71.1150   31.3800 O.2    89  LEU89      -0.2864
    127  CB        42.9830   70.0490   28.8700 C.3    89  LEU89       0.0297
    128  CG        42.4090   68.7610   29.5040 C.3    89  LEU89       0.0022
    129  CD1       41.1150   68.3950   28.8040 C.3    89  LEU89       0.0001
    130  CD2       43.4350   67.6300   29.5390 C.3    89  LEU89       0.0001
    131  N         52.3590   63.7200   32.4380 N.3   105  CYS105     -0.1221
    132  CA        53.4490   63.1050   31.7130 C.3   105  CYS105      0.1808
    133  C         53.8240   63.9870   30.4840 C.2   105  CYS105      0.2601
    134  O         54.5190   63.4960   29.5750 O.2   105  CYS105     -0.2717
    135  CB        53.1010   61.6660   31.2760 C.3   105  CYS105      0.0970
    136  SG        51.8180   61.6010   30.0080 S.3   105  CYS105     -0.0800
    137  N         53.3840   65.2430   30.4610 N.am  106  VAL106     -0.1965
    138  CA        53.4780   66.0540   29.2850 C.3   106  VAL106      0.1727
    139  C         54.8880   66.5710   29.1220 C.2   106  VAL106      0.2616
    140  O         55.3710   67.1510   30.0840 O.2   106  VAL106     -0.2715
    141  CB        52.4670   67.2330   29.3940 C.3   106  VAL106      0.0290
    142  CG1       52.6370   68.2350   28.2280 C.3   106  VAL106      0.0023
    143  CG2       51.0620   66.6640   29.2810 C.3   106  VAL106      0.0023
    144  N         55.4900   66.4450   27.9270 N.am  107  ASN107     -0.1972
    145  CA        56.8240   66.9910   27.6650 C.3   107  ASN107      0.1688
    146  C         56.7790   68.2390   26.7540 C.2   107  ASN107      0.2292
    147  O         56.4910   68.0880   25.5600 O.2   107  ASN107     -0.2864
    148  CB        57.7040   65.9450   26.9610 C.3   107  ASN107      0.1181
    149  CG        57.9940   64.7320   27.8510 C.2   107  ASN107      0.2629
    150  OD1       58.3670   64.9190   28.9880 O.2   107  ASN107     -0.2716
    151  ND2       57.7990   63.5190   27.3470 N.am  107  ASN107     -0.0877
    152  N         56.1230   59.4430   33.9940 N.3   143  PHE143     -0.1227
    153  CA        55.9410   58.7480   32.7070 C.3   143  PHE143      0.1736
    154  C         56.5240   59.5330   31.4910 C.2   143  PHE143      0.2595
    155  O         56.3320   59.1270   30.3850 O.2   143  PHE143     -0.2718
    156  CB        54.5070   58.2400   32.4740 C.3   143  PHE143      0.0547
    157  CG        54.0260   57.2880   33.5090 C.ar  143  PHE143     -0.0202
    158  CD1       54.5250   56.0450   33.5890 C.ar  143  PHE143     -0.0042
    159  CD2       53.0310   57.6600   34.4260 C.ar  143  PHE143     -0.0042
    160  CE1       54.0860   55.1390   34.5980 C.ar  143  PHE143     -0.0003
    161  CE2       52.5770   56.7860   35.4200 C.ar  143  PHE143     -0.0003
    162  CZ        53.1120   55.5250   35.4930 C.ar  143  PHE143     -0.0000
    163  N         57.3430   60.5460   31.7310 N.am  144  HIS144     -0.1975
    164  CA        57.9250   61.3510   30.6600 C.3   144  HIS144      0.1656
    165  C         58.8190   60.5520   29.6840 C.2   144  HIS144      0.2291
    166  O         58.9560   60.9280   28.4820 O.2   144  HIS144     -0.2864
    167  CB        58.7280   62.4900   31.2860 C.3   144  HIS144      0.0771
    168  CG        57.9030   63.3470   32.2010 C.ar  144  HIS144      0.0820
    169  ND1       57.8170   63.0940   33.5620 N.ar  144  HIS144     -0.2267
    170  CD2       57.0160   64.3440   31.9420 C.ar  144  HIS144      0.1154
    171  CE1       56.9530   63.9500   34.0960 C.ar  144  HIS144      0.1986
    172  NE2       56.4500   64.7120   33.1400 N.ar  144  HIS144     -0.2212
    173  N         58.8150   57.1130   29.0410 N.3   146  VAL146     -0.1231
    174  CA        58.3230   55.9170   28.4600 C.3   146  VAL146      0.1692
    175  C         58.3580   56.0860   26.9040 C.2   146  VAL146      0.2593
    176  O         58.2760   57.2090   26.3660 O.2   146  VAL146     -0.2718
    177  CB        56.8990   55.4860   28.9200 C.3   146  VAL146      0.0266
    178  CG1       56.7630   55.4510   30.4010 C.3   146  VAL146      0.0020
    179  CG2       55.7740   56.2580   28.2440 C.3   146  VAL146      0.0020
    180  N         58.6500   54.9970   26.2370 N.am  147  SER147     -0.1938
    181  CA        58.4860   54.8760   24.7890 C.3   147  SER147      0.2055
    182  C         57.1220   54.2320   24.5540 C.2   147  SER147      0.2643
    183  O         56.9420   53.0090   24.7600 O.2   147  SER147     -0.2714
    184  CB        59.5950   53.9780   24.2400 C.3   147  SER147      0.2130
    185  OG        59.3260   53.6310   22.8870 O.3   147  SER147     -0.2179
    186  N         56.1590   55.0150   24.1150 N.am  148  ALA148     -0.1963
    187  CA        54.8140   54.5300   23.9130 C.3   148  ALA148      0.1728
    188  C         54.7600   53.3590   22.9160 C.2   148  ALA148      0.2616
    189  O         53.9770   52.3810   23.1120 O.2   148  ALA148     -0.2715
    190  CB        53.8970   55.6430   23.4160 C.3   148  ALA148      0.0334
    191  N         55.5750   53.4100   21.8600 N.am  149  VAL149     -0.1977
    192  CA        55.5370   52.2690   20.9290 C.3   149  VAL149      0.1596
    193  C         55.9400   50.9770   21.5940 C.2   149  VAL149      0.2287
    194  O         55.3960   49.9150   21.2550 O.2   149  VAL149     -0.2864
    195  CB        56.3240   52.4750   19.6100 C.3   149  VAL149      0.0276
    196  CG1       55.6450   53.6220   18.8610 C.3   149  VAL149      0.0022
    197  CG2       57.8270   52.7060   19.8250 C.3   149  VAL149      0.0022
    198  N         63.7030   64.3490   28.1480 N.3   204  THR204     -0.1218
    199  CA        63.1560   63.6480   26.9900 C.3   204  THR204      0.1862
    200  C         63.8280   64.1410   25.6340 C.2   204  THR204      0.2287
    201  O         64.0310   63.3540   24.7270 O.2   204  THR204     -0.2866
    202  CB        61.6280   63.8160   26.9090 C.3   204  THR204      0.1770
    203  OG1       61.0190   63.5610   28.1970 O.3   204  THR204     -0.2211
    204  CG2       61.0060   62.8690   25.8650 C.3   204  THR204      0.0375
@<TRIPOS>BOND
     1    63    62    1
     2    64    62    1
     3    62    61    2
     4    61    60    1
     5    60    59    1
     6    23    21   ar
     7    59    58    1
     8    22    21   ar
     9   196   195    1
    10    58    55    1
    11    21    20    1
    12    55    54    1
    13    55    56    1
    14   195   197    1
    15   195   192    1
    16    53    51    1
    17    52    51    1
    18   113   111   ar
    19    57    56    2
    20     8     7    2
    21    51    50    2
    22    20    17    1
    23   192   193    1
    24   192   191    1
    25    16    17    1
    26    16    14   am
    27   111   112   ar
    28   111   110    1
    29    13    14    1
    30    13    12    1
    31   194   193    2
    32    50    49    1
    33    17    18    1
    34     7    12   am
    35     7     6    1
    36    10     9    1
    37     9    11    1
    38     9     6    1
    39    14    15    2
    40   110   107    1
    41   191   188   am
    42    90    89    1
    43    90    91    1
    44    42    41    1
    45    49    48    1
    46     6     5    1
    47    89    86    1
    48    47    48    1
    49    47    44    1
    50    45    46    2
    51    45    44    1
    52   185   184    1
    53   188   189    2
    54   188   187    1
    55    18    19    2
    56    18    24   am
    57    91    85    1
    58   107   106    1
    59   107   108    1
    60    44    43    1
    61    41    38    1
    62   190   187    1
    63    43    39   am
    64    24    25    1
    65   106    94   am
    66   108   109    2
    67   108   114   am
    68    86    85    1
    69    86    87    1
    70   187   186    1
    71   186   182   am
    72   114   115    1
    73   184   181    1
    74    85    80   am
    75    39    38    1
    76    39    40    2
    77    38    37    1
    78   182   183    2
    79   182   181    1
    80    87    92   am
    81    87    88    2
    82   201   200    2
    83    92    93    1
    84   181   180    1
    85   115   116    1
    86     4     3    2
    87    94    93    1
    88    94    95    2
    89    25    28    1
    90    25    26    1
    91    98    97   ar
    92    98   100   ar
    93    96    93    1
    94    96    97    1
    95    80    79    1
    96    80    81    2
    97     3     2    1
    98    28    29    1
    99   147   146    2
   100   200   199    1
   101    33    26   am
   102    33    34    1
   103     2     1    1
   104   204   202    1
   105    76    75    2
   106    26    27    2
   107    79    82    1
   108    79    78    1
   109    97    99   ar
   110    35    34    1
   111    35    36    2
   112   180   175   am
   113    82    83    1
   114    82    84    1
   115   100   101   ar
   116   176   175    2
   117   116   117    2
   118    72    70   am
   119    31    30    2
   120   146   145    1
   121   175   174    1
   122   202   199    1
   123   202   203    1
   124    75    78   am
   125    75    74    1
   126   148   145    1
   127   148   149    1
   128   199   198    1
   129    29    30    1
   130   122   119    1
   131    99   101   ar
   132    99   102   ar
   133   151   149   am
   134    30    32   am
   135   101   103   ar
   136   145   144    1
   137    70    71    2
   138    70    69    1
   139   149   150    2
   140   144   139   am
   141    77    74    1
   142    65    66    1
   143    74    73    1
   144   142   141    1
   145   179   177    1
   146   174   177    1
   147   174   173    1
   148   102   104   ar
   149   166   165    2
   150   119   118    1
   151   119   120    1
   152   103   105   ar
   153    69    66    1
   154   129   128    1
   155   123   120   am
   156   123   124    1
   157   127   124    1
   158   127   128    1
   159   177   178    1
   160   120   121    2
   161   139   138    1
   162   139   140    2
   163    66    67    1
   164   143   141    1
   165   138   141    1
   166   138   137    1
   167   124   125    1
   168   128   130    1
   169   134   133    2
   170   104   105   ar
   171   165   164    1
   172   136   135    1
   173   155   154    2
   174   137   133   am
   175   133   132    1
   176    67    68    2
   177   164   167    1
   178   164   163    1
   179   125   126    2
   180   135   132    1
   181   167   168    1
   182   154   163   am
   183   154   153    1
   184   132   131    1
   185   170   168   ar
   186   170   172   ar
   187   168   169   ar
   188   156   153    1
   189   156   157    1
   190   153   152    1
   191   172   171   ar
   192   157   158   ar
   193   157   159   ar
   194   169   171   ar
   195   158   160   ar
   196   159   161   ar
   197   160   162   ar
   198   161   162   ar
