@<TRIPOS>MOLECULE
tmp/5n2lC00.pdb
 155 154 0 0 0
SMALL
GASTEIGER

@<TRIPOS>ATOM
      1  N         50.8150   29.3580   21.4670 N.3    23  TRP23      -0.1228
      2  CA        50.5890   27.9110   21.6500 C.3    23  TRP23       0.1722
      3  C         49.9960   27.5090   23.0020 C.2    23  TRP23       0.2437
      4  O         49.2640   26.5190   23.0470 O.2    23  TRP23      -0.2733
      5  CB        51.8630   27.0720   21.3460 C.3    23  TRP23       0.0563
      6  CG        52.9750   27.3000   22.3560 C.ar   23  TRP23       0.0003
      7  CD1       54.0020   28.1250   22.2250 C.ar   23  TRP23       0.0946
      8  CD2       53.1170   26.6600   23.6230 C.ar   23  TRP23       0.0152
      9  NE1       54.7920   28.0640   23.3440 N.ar   23  TRP23      -0.2442
     10  CE2       54.2790   27.1460   24.2040 C.ar   23  TRP23       0.0810
     11  CE3       52.4030   25.6520   24.2850 C.ar   23  TRP23       0.0012
     12  CZ2       54.7290   26.7250   25.4650 C.ar   23  TRP23       0.0191
     13  CZ3       52.8560   25.2150   25.4990 C.ar   23  TRP23       0.0001
     14  CH2       54.0210   25.7370   26.0750 C.ar   23  TRP23       0.0015
     15  N         50.2070   28.2950   24.0800 N.am   24  PRO24      -0.2718
     16  CA        49.5420   27.8180   25.3330 C.3    24  PRO24       0.1535
     17  C         48.0400   27.9640   25.2640 C.2    24  PRO24       0.2598
     18  O         47.3470   27.3390   26.1210 O.2    24  PRO24      -0.2715
     19  CB        50.0600   28.7190   26.3760 C.3    24  PRO24       0.0310
     20  CG        51.4170   29.1270   25.8250 C.3    24  PRO24       0.0237
     21  CD        51.1270   29.3860   24.3820 C.3    24  PRO24       0.0939
     22  N         47.5650   28.7530   24.2770 N.am   25  PHE25      -0.1974
     23  CA        46.1270   29.0270   24.1130 C.3    25  PHE25       0.1639
     24  C         45.4450   28.1090   23.0950 C.2    25  PHE25       0.2290
     25  O         44.2540   28.2280   22.8830 O.2    25  PHE25      -0.2864
     26  CB        45.8660   30.4960   23.7840 C.3    25  PHE25       0.0560
     27  CG        46.5490   31.4300   24.7430 C.ar   25  PHE25      -0.0200
     28  CD1       46.0220   31.6740   26.0060 C.ar   25  PHE25      -0.0042
     29  CD2       47.7930   31.8860   24.4640 C.ar   25  PHE25      -0.0042
     30  CE1       46.6940   32.4580   26.8980 C.ar   25  PHE25      -0.0003
     31  CE2       48.4600   32.6880   25.3700 C.ar   25  PHE25      -0.0003
     32  CZ        47.9170   32.9300   26.5710 C.ar   25  PHE25      -0.0000
     33  N         44.6560   24.8400   23.2750 N.3    27  LYS27      -0.1231
     34  CA        43.7930   23.7740   23.7690 C.3    27  LYS27       0.1678
     35  C         43.3720   24.2000   25.1330 C.2    27  LYS27       0.2434
     36  O         44.0230   25.0790   25.6940 O.2    27  LYS27      -0.2733
     37  CB        44.6210   22.4420   23.8370 C.3    27  LYS27       0.0284
     38  CG        45.1510   21.9450   22.4560 C.3    27  LYS27       0.0035
     39  CD        43.9680   21.5790   21.5920 C.3    27  LYS27       0.0206
     40  CE        44.4180   20.9700   20.2430 C.3    27  LYS27       0.1093
     41  NZ        43.2960   20.1030   19.8260 N.3    27  LYS27      -0.1314
     42  N         42.2910   23.6520   25.6410 N.am   28  PRO28      -0.2718
     43  CA        41.9130   23.9680   27.0300 C.3    28  PRO28       0.1535
     44  C         43.0580   23.7230   28.0420 C.2    28  PRO28       0.2598
     45  O         43.8390   22.7480   27.9000 O.2    28  PRO28      -0.2715
     46  CB        40.8030   23.0130   27.3120 C.3    28  PRO28       0.0310
     47  CG        40.2410   22.6280   26.0310 C.3    28  PRO28       0.0237
     48  CD        41.3590   22.6960   25.0420 C.3    28  PRO28       0.0939
     49  N         43.1440   24.5550   29.0630 N.am   29  VAL29      -0.1964
     50  CA        44.0750   24.2980   30.1800 C.3    29  VAL29       0.1727
     51  C         43.7570   22.9330   30.7670 C.2    29  VAL29       0.2616
     52  O         42.6380   22.6930   31.1910 O.2    29  VAL29      -0.2715
     53  CB        43.8970   25.3280   31.3170 C.3    29  VAL29       0.0290
     54  CG1       44.6590   24.9170   32.5610 C.3    29  VAL29       0.0023
     55  CG2       44.2540   26.7410   30.8620 C.3    29  VAL29       0.0023
     56  N         44.7320   22.0400   30.7390 N.am   30  ASP30      -0.1971
     57  CA        44.6200   20.7140   31.3500 C.3    30  ASP30       0.1709
     58  C         45.2250   20.8620   32.7530 C.2    30  ASP30       0.2293
     59  O         46.4380   20.7380   32.9950 O.2    30  ASP30      -0.2864
     60  CB        45.3520   19.6760   30.5100 C.3    30  ASP30       0.1436
     61  CG        45.2250   18.2600   31.0330 C.2    30  ASP30       0.3671
     62  OD1       44.8620   18.0190   32.2000 O.co2  30  ASP30      -0.2456
     63  OD2       45.5310   17.3280   30.2230 O.co2  30  ASP30      -0.2456
     64  N         47.0600   17.7450   34.2500 N.3    33  ALA33      -0.1231
     65  CA        48.3890   17.4720   33.7030 C.3    33  ALA33       0.1694
     66  C         49.3980   18.5030   34.1770 C.2    33  ALA33       0.2591
     67  O         50.5730   18.1990   34.3480 O.2    33  ALA33      -0.2718
     68  CB        48.3150   17.4160   32.1710 C.3    33  ALA33       0.0304
     69  N         48.9520   19.7400   34.4100 N.am   34  LEU34      -0.1980
     70  CA        49.8610   20.8100   34.7710 C.3    34  LEU34       0.1596
     71  C         50.0470   20.9060   36.2570 C.2    34  LEU34       0.2287
     72  O         50.7900   21.7670   36.6740 O.2    34  LEU34      -0.2864
     73  CB        49.3940   22.1790   34.2720 C.3    34  LEU34       0.0297
     74  CG        49.4050   22.3310   32.7430 C.3    34  LEU34       0.0022
     75  CD1       48.9170   23.7200   32.3150 C.3    34  LEU34       0.0001
     76  CD2       50.7900   22.0770   32.1950 C.3    34  LEU34       0.0001
     77  N         47.6690   22.0550   38.4380 N.3    36  LEU36      -0.1245
     78  CA        47.0290   23.2900   38.8710 C.3    36  LEU36       0.1561
     79  C         45.7390   22.9820   39.6090 C.2    36  LEU36       0.2260
     80  O         44.6260   23.1420   39.0950 O.2    36  LEU36      -0.2867
     81  CB        46.8010   24.1990   37.6460 C.3    36  LEU36       0.0270
     82  CG        48.1380   24.5560   36.9590 C.3    36  LEU36       0.0019
     83  CD1       47.9280   25.4450   35.7700 C.3    36  LEU36       0.0001
     84  CD2       49.0750   25.2820   37.9430 C.3    36  LEU36       0.0001
     85  N         42.7570   25.3840   39.6770 N.3    39  TYR39      -0.1241
     86  CA        42.5770   26.1930   38.4940 C.3    39  TYR39       0.1605
     87  C         41.1030   26.4350   38.3190 C.2    39  TYR39       0.2264
     88  O         40.6830   27.5790   38.1360 O.2    39  TYR39      -0.2867
     89  CB        43.1220   25.5300   37.2470 C.3    39  TYR39       0.0534
     90  CG        42.9450   26.4100   36.0350 C.ar   39  TYR39      -0.0201
     91  CD1       43.8000   27.4640   35.8120 C.ar   39  TYR39      -0.0009
     92  CD2       41.8910   26.2180   35.1340 C.ar   39  TYR39      -0.0009
     93  CE1       43.6380   28.3110   34.6940 C.ar   39  TYR39       0.0417
     94  CE2       41.7340   27.0530   34.0080 C.ar   39  TYR39       0.0417
     95  CZ        42.6010   28.1350   33.8160 C.ar   39  TYR39       0.1957
     96  OH        42.4880   29.0350   32.7090 O.3    39  TYR39      -0.2866
     97  N         43.7830   34.1570   31.7930 N.3    78  CYS78      -0.1235
     98  CA        45.2310   34.0880   31.8950 C.3    78  CYS78       0.1677
     99  C         45.7500   35.0970   32.9270 C.2    78  CYS78       0.2270
    100  O         46.5250   34.7180   33.8680 O.2    78  CYS78      -0.2867
    101  CB        45.8730   34.2470   30.5310 C.3    78  CYS78       0.0956
    102  SG        47.6920   33.9990   30.5400 S.3    78  CYS78      -0.0801
    103  N         44.6110   34.2040   36.7110 N.3    81  TYR81      -0.1227
    104  CA        45.1050   33.0430   37.3980 C.3    81  TYR81       0.1736
    105  C         46.6120   33.1130   37.6990 C.2    81  TYR81       0.2595
    106  O         47.0380   32.7100   38.7760 O.2    81  TYR81      -0.2718
    107  CB        44.7600   31.7400   36.6180 C.3    81  TYR81       0.0548
    108  CG        45.2960   30.5540   37.3370 C.ar   81  TYR81      -0.0200
    109  CD1       44.6110   30.0260   38.4100 C.ar   81  TYR81      -0.0009
    110  CD2       46.5270   30.0100   37.0220 C.ar   81  TYR81      -0.0009
    111  CE1       45.0940   28.9650   39.1250 C.ar   81  TYR81       0.0417
    112  CE2       47.0410   28.9290   37.7580 C.ar   81  TYR81       0.0417
    113  CZ        46.2900   28.4310   38.8180 C.ar   81  TYR81       0.1957
    114  OH        46.6980   27.3580   39.5850 O.3    81  TYR81      -0.2866
    115  N         47.4060   33.6650   36.7880 N.am   82  ASN82      -0.1974
    116  CA        48.8550   33.4920   36.8450 C.3    82  ASN82       0.1688
    117  C         49.4990   34.7170   37.4700 C.2    82  ASN82       0.2292
    118  O         49.0750   35.8290   37.1850 O.2    82  ASN82      -0.2864
    119  CB        49.4420   33.3890   35.4100 C.3    82  ASN82       0.1181
    120  CG        48.9980   32.1550   34.6840 C.2    82  ASN82       0.2629
    121  OD1       49.4610   31.0430   34.9740 O.2    82  ASN82      -0.2716
    122  ND2       48.1220   32.3380   33.6850 N.am   82  ASN82      -0.0877
    123  N         54.7920   35.8940   35.0750 N.3    86  HIS86      -0.1226
    124  CA        54.8770   34.5690   34.4520 C.3    86  HIS86       0.1752
    125  C         55.1120   34.7670   32.9600 C.2    86  HIS86       0.2596
    126  O         54.6390   35.7690   32.4150 O.2    86  HIS86      -0.2718
    127  CB        53.5620   33.8450   34.6960 C.3    86  HIS86       0.0759
    128  CG        53.6460   32.3660   34.6010 C.ar   86  HIS86       0.0818
    129  ND1       53.7890   31.7110   33.4040 N.ar   86  HIS86      -0.2268
    130  CD2       53.5270   31.4040   35.5480 C.ar   86  HIS86       0.1154
    131  CE1       53.7500   30.4090   33.6130 C.ar   86  HIS86       0.1986
    132  NE2       53.5950   30.1950   34.9050 N.ar   86  HIS86      -0.2212
    133  N         55.8490   33.8450   32.3130 N.am   87  ASP87      -0.1960
    134  CA        56.0120   33.8790   30.8380 C.3    87  ASP87       0.1840
    135  C         54.6910   33.8430   30.0260 C.2    87  ASP87       0.2621
    136  O         54.6070   34.4230   28.9580 O.2    87  ASP87      -0.2715
    137  CB        56.8990   32.7280   30.3620 C.3    87  ASP87       0.1450
    138  CG        58.2940   32.8130   30.9150 C.2    87  ASP87       0.3671
    139  OD1       58.7190   33.9340   31.2450 O.co2  87  ASP87      -0.2456
    140  OD2       58.9530   31.7800   31.0590 O.co2  87  ASP87      -0.2456
    141  N         53.6710   33.1600   30.5440 N.am   88  VAL88      -0.1977
    142  CA        52.4480   32.9690   29.7870 C.3    88  VAL88       0.1596
    143  C         51.6590   34.2740   29.6710 C.2    88  VAL88       0.2287
    144  O         50.9250   34.4850   28.6750 O.2    88  VAL88      -0.2864
    145  CB        51.6300   31.8150   30.3410 C.3    88  VAL88       0.0276
    146  CG1       50.8390   32.1890   31.6030 C.3    88  VAL88       0.0022
    147  CG2       50.6710   31.3100   29.3180 C.3    88  VAL88       0.0022
    148  N         53.0850   36.2140   26.8000 N.3    91  MET91      -0.1245
    149  CA        52.5700   35.5830   25.5540 C.3    91  MET91       0.1570
    150  C         51.0930   35.9790   25.2850 C.2    91  MET91       0.2261
    151  O         50.7420   36.3110   24.1750 O.2    91  MET91      -0.2867
    152  CB        52.7300   34.0840   25.6330 C.3    91  MET91       0.0387
    153  CG        54.1960   33.6560   25.7160 C.3    91  MET91       0.0595
    154  SD        54.3810   31.9500   26.1980 S.3    91  MET91      -0.1393
    155  CE        54.3060   31.1740   24.6420 C.3    91  MET91       0.0692
@<TRIPOS>BOND
     1    41    40    1
     2    40    39    1
     3     5     2    1
     4     5     6    1
     5     1     2    1
     6    39    38    1
     7     2     3    1
     8     7     6   ar
     9     7     9   ar
    10     6     8   ar
    11    38    37    1
    12    25    24    2
    13     3     4    2
    14     3    15   am
    15    24    23    1
    16    33    34    1
    17     9    10   ar
    18     8    10   ar
    19     8    11   ar
    20    34    37    1
    21    34    35    1
    22    26    23    1
    23    26    27    1
    24    15    21    1
    25    15    16    1
    26    23    22    1
    27   151   150    2
    28    10    12   ar
    29    22    17   am
    30    11    13   ar
    31    21    20    1
    32    29    27   ar
    33    29    31   ar
    34   155   154    1
    35    27    28   ar
    36    48    42    1
    37    48    47    1
    38    35    42   am
    39    35    36    2
    40    17    16    1
    41    17    18    2
    42   150   149    1
    43    16    19    1
    44    31    32   ar
    45    12    14   ar
    46    13    14   ar
    47   149   152    1
    48   149   148    1
    49   152   153    1
    50    42    43    1
    51   153   154    1
    52    20    19    1
    53    28    30   ar
    54    47    46    1
    55    32    30   ar
    56    43    46    1
    57    43    44    1
    58    45    44    2
    59    44    49   am
    60   144   143    2
    61   136   135    2
    62    49    50    1
    63   147   145    1
    64   143   142    1
    65   142   145    1
    66   142   141    1
    67   135   141   am
    68   135   134    1
    69    50    51    1
    70    50    53    1
    71    63    61   ar
    72   145   146    1
    73   137   134    1
    74   137   138    1
    75    60    61    1
    76    60    57    1
    77   101   102    1
    78   101    98    1
    79    56    51   am
    80    56    57    1
    81    51    52    2
    82   134   133    1
    83    55    53    1
    84   138   140   ar
    85   138   139   ar
    86    61    62   ar
    87    53    54    1
    88    57    58    1
    89    97    98    1
    90    98    99    1
    91    68    65    1
    92    76    74    1
    93   133   125   am
    94    75    74    1
    95   126   125    2
    96    96    95    1
    97    74    73    1
    98    58    59    2
    99    99   100    2
   100   125   124    1
   101   129   131   ar
   102   129   128   ar
   103   131   132   ar
   104   122   120   am
   105    65    66    1
   106    65    64    1
   107    95    94   ar
   108    95    93   ar
   109    94    92   ar
   110    66    67    2
   111    66    69   am
   112    73    70    1
   113    69    70    1
   114   124   127    1
   115   124   123    1
   116   128   127    1
   117   128   130   ar
   118   120   121    2
   119   120   119    1
   120    93    91   ar
   121    70    71    1
   122   132   130   ar
   123    92    90   ar
   124   119   116    1
   125    83    82    1
   126    91    90   ar
   127    90    89    1
   128    71    72    2
   129   107   108    1
   130   107   104    1
   131   103   104    1
   132   115   116    1
   133   115   105   am
   134   116   117    1
   135    82    81    1
   136    82    84    1
   137   110   108   ar
   138   110   112   ar
   139   118   117    2
   140    89    86    1
   141   108   109   ar
   142   104   105    1
   143    81    78    1
   144   105   106    2
   145   112   113   ar
   146    88    87    2
   147    87    86    1
   148   109   111   ar
   149    77    78    1
   150    86    85    1
   151   113   111   ar
   152   113   114    1
   153    78    79    1
   154    80    79    2
