@<TRIPOS>MOLECULE
tmp/5n2mA00.pdb
 143 139 0 0 0
SMALL
GASTEIGER

@<TRIPOS>ATOM
      1  N         17.4620    7.9360    7.6710 N.3    40  TRP40      -0.1228
      2  CA        17.5870    9.2870    8.1380 C.3    40  TRP40       0.1722
      3  C         16.3780   10.2580    7.9470 C.2    40  TRP40       0.2437
      4  O         16.1040   11.0530    8.8330 O.2    40  TRP40      -0.2733
      5  CB        18.9300    9.9000    7.6540 C.3    40  TRP40       0.0563
      6  CG        19.0410   10.0070    6.1770 C.ar   40  TRP40       0.0003
      7  CD1       19.5260    9.0710    5.2840 C.ar   40  TRP40       0.0946
      8  CD2       18.6120   11.1120    5.3970 C.ar   40  TRP40       0.0152
      9  NE1       19.4170    9.5350    3.9870 N.ar   40  TRP40      -0.2442
     10  CE2       18.8540   10.7870    4.0300 C.ar   40  TRP40       0.0810
     11  CE3       18.0340   12.3450    5.7090 C.ar   40  TRP40       0.0012
     12  CZ2       18.5420   11.6770    3.0080 C.ar   40  TRP40       0.0191
     13  CZ3       17.7280   13.2130    4.6950 C.ar   40  TRP40       0.0001
     14  CH2       17.9660   12.8700    3.3760 C.ar   40  TRP40       0.0015
     15  N         15.6030   10.1660    6.8290 N.am   41  PRO41      -0.2718
     16  CA        14.4620   11.1100    6.7670 C.3    41  PRO41       0.1535
     17  C         13.3930   10.7380    7.8160 C.2    41  PRO41       0.2598
     18  O         12.4970   11.5190    8.1220 O.2    41  PRO41      -0.2715
     19  CB        13.9290   10.9160    5.3340 C.3    41  PRO41       0.0310
     20  CG        15.0580   10.2550    4.5680 C.3    41  PRO41       0.0237
     21  CD        15.7370    9.3820    5.5780 C.3    41  PRO41       0.0939
     22  N         13.4900    9.5110    8.3180 N.am   42  PHE42      -0.1974
     23  CA        12.4940    8.9490    9.2680 C.3    42  PHE42       0.1639
     24  C         12.9400    9.0050   10.7360 C.2    42  PHE42       0.2290
     25  O         12.2390    8.5390   11.6280 O.2    42  PHE42      -0.2864
     26  CB        12.1510    7.5270    8.8430 C.3    42  PHE42       0.0560
     27  CG        11.6600    7.4610    7.4170 C.ar   42  PHE42      -0.0200
     28  CD1       10.3520    7.7530    7.1240 C.ar   42  PHE42      -0.0042
     29  CD2       12.5140    7.1750    6.3920 C.ar   42  PHE42      -0.0042
     30  CE1        9.8890    7.7050    5.8070 C.ar   42  PHE42      -0.0003
     31  CE2       12.0900    7.1330    5.0860 C.ar   42  PHE42      -0.0003
     32  CZ        10.7740    7.4220    4.7720 C.ar   42  PHE42      -0.0000
     33  N         13.3960   11.5750   12.7200 N.3    44  GLN44      -0.1245
     34  CA        12.8730   12.7070   13.4780 C.3    44  GLN44       0.1566
     35  C         11.5970   13.1590   12.7900 C.2    44  GLN44       0.2260
     36  O         11.3850   12.8380   11.6300 O.2    44  GLN44      -0.2867
     37  CB        13.8930   13.8600   13.5300 C.3    44  GLN44       0.0367
     38  CG        14.3200   14.4380   12.1930 C.3    44  GLN44       0.0905
     39  CD        15.2920   13.5340   11.4380 C.2    44  GLN44       0.2608
     40  OE1       16.2990   13.0920   12.0120 O.2    44  GLN44      -0.2717
     41  NE2       14.9810   13.2300   10.1900 N.am   44  GLN44      -0.0878
     42  N          8.9410   15.1830   10.5810 N.3    46  VAL46      -0.1231
     43  CA         9.0600   15.9780    9.3470 C.3    46  VAL46       0.1692
     44  C          9.0780   17.4540    9.6980 C.2    46  VAL46       0.2592
     45  O          8.1110   17.9780   10.2990 O.2    46  VAL46      -0.2718
     46  CB         7.9280   15.6270    8.3540 C.3    46  VAL46       0.0266
     47  CG1        7.9690   16.5040    7.1180 C.3    46  VAL46       0.0020
     48  CG2        8.0270   14.1730    7.9370 C.3    46  VAL46       0.0020
     49  N         10.1970   18.1280    9.3750 N.am   47  ASP47      -0.1974
     50  CA        10.3540   19.5450    9.6480 C.3    47  ASP47       0.1709
     51  C          9.8490   20.2730    8.4330 C.2    47  ASP47       0.2293
     52  O         10.5880   20.5310    7.4730 O.2    47  ASP47      -0.2864
     53  CB        11.8060   19.8620    9.9270 C.3    47  ASP47       0.1436
     54  CG        12.0150   21.2660   10.3800 C.2    47  ASP47       0.3671
     55  OD1       11.1620   22.1510   10.1110 O.co2  47  ASP47      -0.2456
     56  OD2       13.0790   21.4410   10.9960 O.co2  47  ASP47      -0.2456
     57  N         11.5290   23.7600    7.6920 N.3    50  LYS50      -0.1231
     58  CA        12.8440   23.6540    7.0520 C.3    50  LYS50       0.1693
     59  C         12.7270   23.1570    5.6100 C.2    50  LYS50       0.2591
     60  O         13.4770   23.5870    4.7000 O.2    50  LYS50      -0.2718
     61  CB        13.7740   22.7540    7.8580 C.3    50  LYS50       0.0285
     62  CG        15.1880   22.7010    7.2870 C.3    50  LYS50       0.0035
     63  CD        16.1000   21.8220    8.1260 C.3    50  LYS50       0.0206
     64  CE        16.0360   20.3660    7.6770 C.3    50  LYS50       0.1093
     65  NZ        17.3820   19.7230    7.7070 N.3    50  LYS50      -0.1314
     66  N         11.7880   22.2560    5.3670 N.am   51  LEU51      -0.1980
     67  CA        11.6260   21.6960    4.0600 C.3    51  LEU51       0.1596
     68  C         10.7360   22.5190    3.1500 C.2    51  LEU51       0.2287
     69  O         10.5380   22.1950    1.9870 O.2    51  LEU51      -0.2864
     70  CB        11.0340   20.2920    4.1770 C.3    51  LEU51       0.0297
     71  CG        11.9530   19.2470    4.7930 C.3    51  LEU51       0.0022
     72  CD1       11.0840   18.0120    4.9080 C.3    51  LEU51       0.0001
     73  CD2       13.1790   18.9810    3.9330 C.3    51  LEU51       0.0001
     74  N          7.4030   22.9180    3.2880 N.3    53  LEU53      -0.1245
     75  CA         6.2520   22.1150    2.9110 C.3    53  LEU53       0.1561
     76  C          5.0080   22.5290    3.6900 C.2    53  LEU53       0.2260
     77  O          4.5710   21.8300    4.5810 O.2    53  LEU53      -0.2867
     78  CB         6.5750   20.6330    3.1620 C.3    53  LEU53       0.0270
     79  CG         7.7390   20.0490    2.3330 C.3    53  LEU53       0.0019
     80  CD1        7.8550   18.5680    2.6690 C.3    53  LEU53       0.0001
     81  CD2        7.6380   20.3210    0.8230 C.3    53  LEU53       0.0001
     82  N          2.1160   19.9050    4.3880 N.3    56  TYR56      -0.1241
     83  CA         2.3760   18.5630    4.9660 C.3    56  TYR56       0.1605
     84  C          1.4440   18.2990    6.1400 C.2    56  TYR56       0.2264
     85  O          0.7130   17.3120    6.1400 O.2    56  TYR56      -0.2867
     86  CB         3.8300   18.3610    5.3920 C.3    56  TYR56       0.0534
     87  CG         4.0900   16.9390    5.8930 C.ar   56  TYR56      -0.0201
     88  CD1        4.4550   15.9350    5.0120 C.ar   56  TYR56      -0.0009
     89  CD2        3.9310   16.6210    7.2500 C.ar   56  TYR56      -0.0009
     90  CE1        4.6440   14.6480    5.4430 C.ar   56  TYR56       0.0417
     91  CE2        4.1160   15.3260    7.7310 C.ar   56  TYR56       0.0417
     92  CZ         4.4860   14.3600    6.8000 C.ar   56  TYR56       0.1957
     93  OH         4.6700   13.0840    7.2750 O.3    56  TYR56      -0.2866
     94  N          3.8720    8.5670    4.8840 N.3    95  CYS95      -0.1235
     95  CA         4.7570    8.7810    3.7820 C.3    95  CYS95       0.1677
     96  C          4.0120    8.4650    2.4570 C.2    95  CYS95       0.2270
     97  O          4.1560    9.1590    1.4610 O.2    95  CYS95      -0.2867
     98  CB         5.9830    7.8600    3.9260 C.3    95  CYS95       0.0956
     99  SG         7.2770    8.1420    2.7060 S.3    95  CYS95      -0.0801
    100  N          1.3160   11.4290    1.6990 N.3    98  TYR98      -0.1227
    101  CA         1.7870   12.7560    1.2820 C.3    98  TYR98       0.1736
    102  C          2.5630   12.6630   -0.0410 C.2    98  TYR98       0.2595
    103  O          2.5170   13.5690   -0.8710 O.2    98  TYR98      -0.2718
    104  CB         2.6120   13.4180    2.3970 C.3    98  TYR98       0.0548
    105  CG         3.1290   14.7610    2.0050 C.ar   98  TYR98      -0.0200
    106  CD1        2.3180   15.8780    2.0480 C.ar   98  TYR98      -0.0009
    107  CD2        4.3780   14.8970    1.4600 C.ar   98  TYR98      -0.0009
    108  CE1        2.7920   17.1070    1.6290 C.ar   98  TYR98       0.0417
    109  CE2        4.8660   16.1290    1.0730 C.ar   98  TYR98       0.0417
    110  CZ         4.0520   17.2220    1.1640 C.ar   98  TYR98       0.1957
    111  OH         4.5020   18.4460    0.7430 O.3    98  TYR98      -0.2866
    112  N          3.2780   11.5550   -0.1990 N.am   99  ASN99      -0.1974
    113  CA         4.1760   11.4230   -1.3440 C.3    99  ASN99       0.1688
    114  C          3.6330   10.5300   -2.4430 C.2    99  ASN99       0.2292
    115  O          2.9800    9.5650   -2.1800 O.2    99  ASN99      -0.2864
    116  CB         5.5480   10.9440   -0.8790 C.3    99  ASN99       0.1181
    117  CG         6.1650   11.8220    0.1810 C.2    99  ASN99       0.2629
    118  OD1        6.7490   12.8880   -0.0820 O.2    99  ASN99      -0.2716
    119  ND2        6.0800   11.3560    1.4000 N.am   99  ASN99      -0.0877
    120  N         11.0600    9.0080   -4.8520 N.3   104  ASP104     -0.1225
    121  CA        12.2960    8.6320   -4.1440 C.3   104  ASP104      0.1805
    122  C         12.0280    8.2720   -2.6750 C.2   104  ASP104      0.2597
    123  O         12.4000    7.1860   -2.1980 O.2   104  ASP104     -0.2718
    124  CB        13.3510    9.7530   -4.2400 C.3   104  ASP104      0.1424
    125  CG        12.7970   11.1540   -3.9850 C.2   104  ASP104      0.3668
    126  OD1       11.6870   11.3750   -3.3830 O.co2 104  ASP104     -0.2456
    127  OD2       13.5410   12.1240   -4.3670 O.co2 104  ASP104     -0.2456
    128  N         11.3410    9.1540   -1.9670 N.am  105  ILE105     -0.1980
    129  CA        11.1660    8.9510   -0.5040 C.3   105  ILE105      0.1595
    130  C         10.2410    7.7120   -0.2730 C.2   105  ILE105      0.2287
    131  O         10.3520    7.0550    0.7180 O.2   105  ILE105     -0.2864
    132  CB        10.6150   10.2330    0.1890 C.3   105  ILE105      0.0276
    133  CG1       10.5460   10.0980    1.7290 C.3   105  ILE105      0.0022
    134  CG2        9.2260   10.5710   -0.3870 C.3   105  ILE105      0.0022
    135  CD1       11.9220    9.9740    2.3520 C.3   105  ILE105      0.0001
    136  N         12.3460    4.6170   -0.5770 N.3   108  MET108     -0.1245
    137  CA        13.1140    4.5040    0.6640 C.3   108  MET108      0.1570
    138  C         12.2510    3.9260    1.7900 C.2   108  MET108      0.2261
    139  O         12.6280    2.9360    2.4470 O.2   108  MET108     -0.2867
    140  CB        13.7030    5.8720    1.0490 C.3   108  MET108      0.0387
    141  CG        14.6960    6.4200    0.0570 C.3   108  MET108      0.0595
    142  SD        15.1540    8.1550    0.2660 S.3   108  MET108     -0.1393
    143  CE        16.1350    8.0300    1.7350 C.3   108  MET108      0.0692
@<TRIPOS>BOND
     1   120   121    1
     2   127   125   ar
     3   124   121    1
     4   124   125    1
     5   121   122    1
     6   125   126   ar
     7   122   123    2
     8   122   128   am
     9   114   115    2
    10   114   113    1
    11   128   129    1
    12   113   116    1
    13   113   112    1
    14   116   117    1
    15   103   102    2
    16   136   137    1
    17   129   130    1
    18   129   132    1
    19   134   132    1
    20   130   131    2
    21   112   102   am
    22   118   117    2
    23   102   101    1
    24   141   142    1
    25   141   140    1
    26   117   119   am
    27   132   133    1
    28   142   143    1
    29   137   140    1
    30   137   138    1
    31   111   110    1
    32    81    79    1
    33   109   110   ar
    34   109   107   ar
    35   110   108   ar
    36   101   100    1
    37   101   104    1
    38   107   105   ar
    39    97    96    2
    40   108   106   ar
    41   133   135    1
    42   138   139    2
    43    69    68    2
    44   105   106   ar
    45   105   104    1
    46    79    80    1
    47    79    78    1
    48    96    95    1
    49    99    98    1
    50    75    78    1
    51    75    74    1
    52    75    76    1
    53    12    14   ar
    54    12    10   ar
    55    68    67    1
    56    14    13   ar
    57    76    77    2
    58    95    98    1
    59    95    94    1
    60    73    71    1
    61     9    10   ar
    62     9     7   ar
    63    10     8   ar
    64    67    70    1
    65    67    66    1
    66    70    71    1
    67    82    83    1
    68    20    19    1
    69    20    21    1
    70    13    11   ar
    71    60    59    2
    72    32    31   ar
    73    32    30   ar
    74    71    72    1
    75    83    86    1
    76    83    84    1
    77    88    90   ar
    78    88    87   ar
    79    31    29   ar
    80     7     6   ar
    81    19    16    1
    82    66    59   am
    83    86    87    1
    84     8    11   ar
    85     8     6   ar
    86    90    92   ar
    87    21    15    1
    88    59    58    1
    89    30    28   ar
    90    87    89   ar
    91    84    85    2
    92     6     5    1
    93    29    27   ar
    94    16    15    1
    95    16    17    1
    96    92    93    1
    97    92    91   ar
    98    15     3   am
    99    58    57    1
   100    58    61    1
   101    47    46    1
   102    28    27   ar
   103    89    91   ar
   104    62    61    1
   105    62    63    1
   106    27    26    1
   107    52    51    2
   108     5     2    1
   109     1     2    1
   110    64    65    1
   111    64    63    1
   112    17    18    2
   113    17    22   am
   114    48    46    1
   115     3     2    1
   116     3     4    2
   117    22    23    1
   118    46    43    1
   119    51    50    1
   120    26    23    1
   121    23    24    1
   122    43    44    1
   123    43    42    1
   124    49    50    1
   125    49    44   am
   126    50    53    1
   127    44    45    2
   128    53    54    1
   129    55    54   ar
   130    41    39   am
   131    54    56   ar
   132    24    25    2
   133    39    40    2
   134    39    38    1
   135    36    35    2
   136    38    37    1
   137    33    34    1
   138    35    34    1
   139    34    37    1
