@<TRIPOS>MOLECULE
tmp/5n2rA25.pdb
 107 99 0 0 0
SMALL
GASTEIGER

@<TRIPOS>ATOM
      1  N         12.1460  185.4180   24.6440 N.3   189  LEU189     -0.1245
      2  CA        10.7720  185.8250   24.3600 C.3   189  LEU189      0.1561
      3  C         10.3580  187.0290   25.2020 C.2   189  LEU189      0.2260
      4  O          9.7860  187.9950   24.6820 O.2   189  LEU189     -0.2867
      5  CB         9.8220  184.6490   24.5960 C.3   189  LEU189      0.0270
      6  CG         8.4810  184.7070   23.8660 C.3   189  LEU189      0.0019
      7  CD1        8.7180  184.8520   22.3750 C.3   189  LEU189      0.0001
      8  CD2        7.6370  183.4720   24.1570 C.3   189  LEU189      0.0001
      9  N         12.1380  190.3710   24.1190 N.3   192  LEU192     -0.1231
     10  CA        11.6010  190.8540   22.8500 C.3   192  LEU192      0.1693
     11  C         10.2220  191.4750   23.0350 C.2   192  LEU192      0.2591
     12  O          9.9100  192.5040   22.4240 O.2   192  LEU192     -0.2718
     13  CB        11.5470  189.7160   21.8300 C.3   192  LEU192      0.0284
     14  CG        12.8910  189.2500   21.2630 C.3   192  LEU192      0.0019
     15  CD1       12.7080  188.0380   20.3630 C.3   192  LEU192      0.0001
     16  CD2       13.5810  190.3770   20.5100 C.3   192  LEU192      0.0001
     17  N          9.3810  190.8640   23.8750 N.am  193  LEU193     -0.1980
     18  CA         8.0840  191.4590   24.1800 C.3   193  LEU193      0.1596
     19  C          8.2490  192.8020   24.8780 C.2   193  LEU193      0.2287
     20  O          7.4520  193.7240   24.6650 O.2   193  LEU193     -0.2864
     21  CB         7.2540  190.5090   25.0420 C.3   193  LEU193      0.0297
     22  CG         6.6970  189.2570   24.3620 C.3   193  LEU193      0.0022
     23  CD1        6.0130  188.3550   25.3780 C.3   193  LEU193      0.0001
     24  CD2        5.7350  189.6430   23.2510 C.3   193  LEU193      0.0001
     25  N         10.8050  194.8870   24.3580 N.3   195  MET195     -0.1230
     26  CA        11.1620  195.8170   23.2890 C.3   195  MET195      0.1702
     27  C          9.9260  196.2730   22.5270 C.2   195  MET195      0.2592
     28  O          9.7980  197.4550   22.1850 O.2   195  MET195     -0.2718
     29  CB        12.1610  195.1740   22.3240 C.3   195  MET195      0.0401
     30  CG        13.4270  194.6450   22.9650 C.3   195  MET195      0.0596
     31  SD        14.5080  193.8850   21.7380 S.3   195  MET195     -0.1393
     32  CE        15.4760  192.7880   22.7710 C.3   195  MET195      0.0692
     33  N          9.0040  195.3460   22.2530 N.am  196  LEU196     -0.1980
     34  CA         7.7700  195.7030   21.5630 C.3   196  LEU196      0.1596
     35  C          6.9910  196.7580   22.3370 C.2   196  LEU196      0.2287
     36  O          6.4540  197.7020   21.7460 O.2   196  LEU196     -0.2864
     37  CB         6.9150  194.4550   21.3440 C.3   196  LEU196      0.0297
     38  CG         5.5390  194.6890   20.7190 C.3   196  LEU196      0.0022
     39  CD1        5.6770  195.3260   19.3460 C.3   196  LEU196      0.0001
     40  CD2        4.7600  193.3900   20.6350 C.3   196  LEU196      0.0001
     41  N          8.9190  200.2060   22.1020 N.3   199  TYR199     -0.1227
     42  CA         8.7010  200.8820   20.8280 C.3   199  TYR199      0.1736
     43  C          7.2640  201.3570   20.6820 C.2   199  TYR199      0.2595
     44  O          7.0160  202.3740   20.0250 O.2   199  TYR199     -0.2718
     45  CB         9.0840  199.9690   19.6650 C.3   199  TYR199      0.0548
     46  CG        10.5770  199.8530   19.4710 C.ar  199  TYR199     -0.0200
     47  CD1       11.3250  200.9450   19.0510 C.ar  199  TYR199     -0.0009
     48  CD2       11.2390  198.6550   19.7070 C.ar  199  TYR199     -0.0009
     49  CE1       12.6900  200.8490   18.8760 C.ar  199  TYR199      0.0417
     50  CE2       12.6040  198.5490   19.5330 C.ar  199  TYR199      0.0417
     51  CZ        13.3240  199.6490   19.1180 C.ar  199  TYR199      0.1957
     52  OH        14.6860  199.5480   18.9440 O.3   199  TYR199     -0.2866
     53  N          6.3060  200.6430   21.2780 N.am  200  LEU200     -0.1980
     54  CA         4.9360  201.1440   21.2970 C.3   200  LEU200      0.1596
     55  C          4.8500  202.4600   22.0580 C.2   200  LEU200      0.2287
     56  O          4.1010  203.3630   21.6690 O.2   200  LEU200     -0.2864
     57  CB         3.9970  200.1070   21.9110 C.3   200  LEU200      0.0297
     58  CG         3.6070  198.9420   21.0040 C.3   200  LEU200      0.0022
     59  CD1        2.6670  197.9990   21.7340 C.3   200  LEU200      0.0001
     60  CD2        2.9760  199.4530   19.7170 C.3   200  LEU200      0.0001
     61  N          6.6460  205.3830   19.7230 N.3   203  PHE203     -0.1241
     62  CA         5.7910  205.8910   18.6560 C.3   203  PHE203      0.1605
     63  C          4.5520  206.5790   19.2080 C.2   203  PHE203      0.2264
     64  O          4.0680  207.5510   18.6160 O.2   203  PHE203     -0.2867
     65  CB         5.4080  204.7510   17.7130 C.3   203  PHE203      0.0534
     66  CG         6.5800  204.1510   16.9850 C.ar  203  PHE203     -0.0203
     67  CD1        7.5030  204.9620   16.3470 C.ar  203  PHE203     -0.0042
     68  CD2        6.7540  202.7770   16.9330 C.ar  203  PHE203     -0.0042
     69  CE1        8.5800  204.4160   15.6760 C.ar  203  PHE203     -0.0003
     70  CE2        7.8310  202.2270   16.2650 C.ar  203  PHE203     -0.0003
     71  CZ         8.7430  203.0470   15.6350 C.ar  203  PHE203     -0.0000
     72  N         12.1460  203.7270   13.8890 N.3   316  LYS316     -0.1245
     73  CA        11.7430  202.6290   13.0130 C.3   316  LYS316      0.1561
     74  C         12.9500  201.8220   12.5510 C.2   316  LYS316      0.2260
     75  O         12.8690  200.5950   12.4260 O.2   316  LYS316     -0.2867
     76  CB        10.9630  203.1650   11.8130 C.3   316  LYS316      0.0271
     77  CG         9.5290  203.5530   12.1300 C.3   316  LYS316      0.0035
     78  CD         8.8000  204.0230   10.8830 C.3   316  LYS316      0.0206
     79  CE         7.3900  204.4870   11.2070 C.3   316  LYS316      0.1093
     80  NZ         6.6910  205.0380   10.0120 N.3   316  LYS316     -0.1314
     81  N         13.8160  199.4970   15.3150 N.3   319  ALA319     -0.1245
     82  CA        12.7530  198.5120   15.4170 C.3   319  ALA319      0.1562
     83  C         12.8670  197.4460   14.3670 C.2   319  ALA319      0.2260
     84  O         12.5050  196.3110   14.5850 O.2   319  ALA319     -0.2867
     85  CB        11.4020  199.1760   15.3470 C.3   319  ALA319      0.0290
     86  N         15.4130  194.9290   15.4520 N.3   322  ALA322     -0.1231
     87  CA        14.8640  194.0620   16.4620 C.3   322  ALA322      0.1694
     88  C         13.9170  193.0550   15.8580 C.2   322  ALA322      0.2592
     89  O         13.9230  191.9140   16.2290 O.2   322  ALA322     -0.2718
     90  CB        14.1650  194.8790   17.5190 C.3   322  ALA322      0.0304
     91  N         13.0830  193.4900   14.9340 N.am  323  GLY323     -0.1957
     92  CA        12.1370  192.6050   14.3050 C.3   323  GLY323      0.1869
     93  C         12.8200  191.5690   13.4680 C.2   323  GLY323      0.2309
     94  O         12.3690  190.4540   13.3690 O.2   323  GLY323     -0.2863
     95  N         14.1560  188.7500   15.6200 N.3   326  ALA326     -0.1245
     96  CA        13.1050  187.8440   15.9920 C.3   326  ALA326      0.1562
     97  C         12.7270  186.9600   14.8280 C.2   326  ALA326      0.2260
     98  O         12.6040  185.7740   14.9680 O.2   326  ALA326     -0.2867
     99  CB        11.9140  188.6210   16.4930 C.3   326  ALA326      0.0290
    100  N         13.1750  183.0140   15.5430 N.3   330  LEU330     -0.1245
    101  CA        11.9580  182.3010   15.9270 C.3   330  LEU330      0.1561
    102  C         11.8630  180.8990   15.3360 C.2   330  LEU330      0.2260
    103  O         11.5120  179.9690   16.0820 O.2   330  LEU330     -0.2867
    104  CB        10.7270  183.1350   15.5630 C.3   330  LEU330      0.0270
    105  CG        10.3270  184.2010   16.5830 C.3   330  LEU330      0.0019
    106  CD1        9.0700  184.9210   16.1250 C.3   330  LEU330      0.0001
    107  CD2       10.1360  183.5860   17.9620 C.3   330  LEU330      0.0001
@<TRIPOS>BOND
     1    80    79    1
     2    78    79    1
     3    78    77    1
     4    76    77    1
     5    76    73    1
     6    75    74    2
     7    74    73    1
     8    73    72    1
     9    94    93    2
    10    93    92    1
    11    92    91    1
    12    83    84    2
    13    83    82    1
    14    97    98    2
    15    97    96    1
    16    91    88   am
    17    81    82    1
    18   102   101    1
    19   102   103    2
    20    85    82    1
    21    86    87    1
    22   100   101    1
    23   104   101    1
    24   104   105    1
    25    95    96    1
    26    71    69   ar
    27    71    70   ar
    28    69    67   ar
    29    88    89    2
    30    88    87    1
    31    96    99    1
    32   106   105    1
    33    70    68   ar
    34    67    66   ar
    35    87    90    1
    36   105   107    1
    37    68    66   ar
    38    66    65    1
    39    65    62    1
    40    64    63    2
    41    62    63    1
    42    62    61    1
    43    49    47   ar
    44    49    51   ar
    45    52    51    1
    46    47    46   ar
    47    51    50   ar
    48    39    38    1
    49    46    45    1
    50    46    48   ar
    51    50    48   ar
    52    45    42    1
    53    60    58    1
    54    44    43    2
    55    15    14    1
    56    16    14    1
    57    40    38    1
    58    43    42    1
    59    43    53   am
    60    38    37    1
    61    42    41    1
    62    58    59    1
    63    58    57    1
    64    14    13    1
    65    53    54    1
    66    54    57    1
    67    54    55    1
    68    37    34    1
    69    34    33    1
    70    34    35    1
    71    56    55    2
    72    31    32    1
    73    31    30    1
    74    36    35    2
    75    13    10    1
    76    28    27    2
    77    33    27   am
    78    29    30    1
    79    29    26    1
    80     7     6    1
    81    12    11    2
    82    27    26    1
    83    10    11    1
    84    10     9    1
    85    11    17   am
    86    24    22    1
    87    26    25    1
    88     6     8    1
    89     6     5    1
    90    17    18    1
    91    18    19    1
    92    18    21    1
    93     2     5    1
    94     2     1    1
    95     2     3    1
    96    22    21    1
    97    22    23    1
    98    20    19    2
    99     4     3    2
