@<TRIPOS>MOLECULE
tmp/5n2rA19.pdb
 208 200 0 0 0
SMALL
GASTEIGER

@<TRIPOS>ATOM
      1  N         25.7520  172.4880    3.4060 N.3    11  TYR11      -0.1241
      2  CA        25.5620  173.1990    4.6650 C.3    11  TYR11       0.1605
      3  C         26.8270  173.9420    5.0810 C.2    11  TYR11       0.2264
      4  O         26.7570  175.0820    5.5540 O.2    11  TYR11      -0.2867
      5  CB        25.1240  172.2210    5.7540 C.3    11  TYR11       0.0534
      6  CG        25.2290  172.7820    7.1530 C.ar   11  TYR11      -0.0201
      7  CD1       24.4350  173.8490    7.5550 C.ar   11  TYR11      -0.0009
      8  CD2       26.1190  172.2430    8.0730 C.ar   11  TYR11      -0.0009
      9  CE1       24.5290  174.3680    8.8330 C.ar   11  TYR11       0.0417
     10  CE2       26.2190  172.7550    9.3540 C.ar   11  TYR11       0.0417
     11  CZ        25.4230  173.8170    9.7290 C.ar   11  TYR11       0.1957
     12  OH        25.5190  174.3270   11.0030 O.3    11  TYR11      -0.2866
     13  N         29.4490  175.6950   14.8280 N.3    65  ALA65      -0.1245
     14  CA        28.2900  175.0000   14.2750 C.3    65  ALA65       0.1562
     15  C         28.7120  173.9560   13.2500 C.2    65  ALA65       0.2260
     16  O         28.1220  172.8710   13.1820 O.2    65  ALA65      -0.2867
     17  CB        27.3210  176.0060   13.6530 C.3    65  ALA65       0.0290
     18  N         30.2350  170.9470   15.4210 N.3    68  ILE68      -0.1231
     19  CA        29.2790  170.1250   16.1620 C.3    68  ILE68       0.1692
     20  C         28.3040  169.3900   15.2560 C.2    68  ILE68       0.2592
     21  O         27.6030  168.4840   15.7230 O.2    68  ILE68      -0.2718
     22  CB        28.5050  170.9850   17.1800 C.3    68  ILE68       0.0266
     23  CG1       27.9730  170.1120   18.3190 C.3    68  ILE68       0.0019
     24  CG2       27.3700  171.7400   16.4960 C.3    68  ILE68       0.0020
     25  CD1       27.3300  170.8910   19.4380 C.3    68  ILE68       0.0001
     26  N         28.2390  169.7450   13.9720 N.am   69  SER69      -0.1952
     27  CA        27.3890  169.0170   13.0390 C.3    69  SER69       0.1924
     28  C         27.9990  167.6960   12.5970 C.2    69  SER69       0.2314
     29  O         27.2970  166.8820   11.9870 O.2    69  SER69      -0.2863
     30  CB        27.0910  169.8740   11.8070 C.3    69  SER69       0.2116
     31  OG        28.2610  170.0790   11.0360 O.3    69  SER69      -0.2180
     32  N         28.6990  174.0770   21.9510 N.3    83  ALA83      -0.1245
     33  CA        27.2670  174.0610   21.6820 C.3    83  ALA83       0.1562
     34  C         26.5710  175.3240   22.1680 C.2    83  ALA83       0.2260
     35  O         25.5730  175.7430   21.5690 O.2    83  ALA83      -0.2867
     36  CB        26.6200  172.8410   22.3400 C.3    83  ALA83       0.0290
     37  N         27.1390  180.1870   21.0550 N.3    86  VAL86      -0.1231
     38  CA        26.2600  180.9870   20.2100 C.3    86  VAL86       0.1692
     39  C         25.0950  181.5460   21.0140 C.2    86  VAL86       0.2591
     40  O         24.5280  182.5830   20.6500 O.2    86  VAL86      -0.2718
     41  CB        25.7710  180.1550   19.0010 C.3    86  VAL86       0.0266
     42  CG1       24.8230  179.0520   19.4480 C.3    86  VAL86       0.0020
     43  CG2       25.1190  181.0530   17.9540 C.3    86  VAL86       0.0020
     44  N         24.7320  180.8890   22.1190 N.am   87  LEU87      -0.1980
     45  CA        23.7020  181.4280   22.9990 C.3    87  LEU87       0.1596
     46  C         24.1970  182.6630   23.7420 C.2    87  LEU87       0.2287
     47  O         23.4040  183.5640   24.0420 O.2    87  LEU87      -0.2864
     48  CB        23.2460  180.3530   23.9850 C.3    87  LEU87       0.0297
     49  CG        22.8810  179.0010   23.3650 C.3    87  LEU87       0.0022
     50  CD1       22.4380  178.0220   24.4420 C.3    87  LEU87       0.0001
     51  CD2       21.8020  179.1620   22.3030 C.3    87  LEU87       0.0001
     52  N         26.9560  166.2090   20.1250 N.3   169  LEU169     -0.1231
     53  CA        25.7630  166.6210   19.4020 C.3   169  LEU169      0.1693
     54  C         24.9320  167.5210   20.3020 C.2   169  LEU169      0.2592
     55  O         24.8620  167.2990   21.5150 O.2   169  LEU169     -0.2718
     56  CB        24.9420  165.4110   18.9440 C.3   169  LEU169      0.0284
     57  CG        25.6200  164.5390   17.8850 C.3   169  LEU169      0.0019
     58  CD1       24.8260  163.2660   17.6450 C.3   169  LEU169      0.0001
     59  CD2       25.7920  165.3200   16.5920 C.3   169  LEU169      0.0001
     60  N         24.3040  168.5360   19.7020 N.am  170  PHE170     -0.1962
     61  CA        23.6300  169.5690   20.4860 C.3   170  PHE170      0.1771
     62  C         22.5330  168.9790   21.3660 C.2   170  PHE170      0.2619
     63  O         22.4570  169.2750   22.5640 O.2   170  PHE170     -0.2715
     64  CB        23.0590  170.6400   19.5550 C.3   170  PHE170      0.0574
     65  CG        22.4810  171.8290   20.2750 C.ar  170  PHE170     -0.0200
     66  CD1       21.1700  171.8130   20.7370 C.ar  170  PHE170     -0.0042
     67  CD2       23.2470  172.9670   20.4860 C.ar  170  PHE170     -0.0042
     68  CE1       20.6350  172.9060   21.4020 C.ar  170  PHE170     -0.0003
     69  CE2       22.7190  174.0670   21.1480 C.ar  170  PHE170     -0.0003
     70  CZ        21.4110  174.0370   21.6070 C.ar  170  PHE170     -0.0000
     71  N         21.6670  168.1440   20.7880 N.am  171  GLU171     -0.1977
     72  CA        20.5430  167.6020   21.5450 C.3   171  GLU171      0.1602
     73  C         20.9810  166.6460   22.6420 C.2   171  GLU171      0.2287
     74  O         20.2220  166.4260   23.5930 O.2   171  GLU171     -0.2864
     75  CB        19.5670  166.8870   20.6130 C.3   171  GLU171      0.0415
     76  CG        20.1740  165.7510   19.8070 C.3   171  GLU171      0.1163
     77  CD        20.7440  166.2110   18.4800 C.2   171  GLU171      0.3649
     78  OE1       20.9430  167.4320   18.3030 O.co2 171  GLU171     -0.2457
     79  OE2       20.9870  165.3480   17.6100 O.co2 171  GLU171     -0.2457
     80  N         16.6340  170.1500   26.5670 N.3   176  MET176     -0.1245
     81  CA        15.6530  170.9190   25.8100 C.3   176  MET176      0.1570
     82  C         14.8310  171.8370   26.7080 C.2   176  MET176      0.2261
     83  O         14.3750  172.8930   26.2550 O.2   176  MET176     -0.2867
     84  CB        14.7450  169.9750   25.0250 C.3   176  MET176      0.0387
     85  CG        14.3070  170.5220   23.6770 C.3   176  MET176      0.0595
     86  SD        15.6880  171.1380   22.6900 S.3   176  MET176     -0.1393
     87  CE        16.7750  169.7110   22.6790 C.3   176  MET176      0.0692
     88  N         16.5650  175.0860   26.8330 N.3   179  MET179     -0.1245
     89  CA        16.4110  175.8540   25.6030 C.3   179  MET179      0.1570
     90  C         15.0230  176.4670   25.4850 C.2   179  MET179      0.2261
     91  O         14.8720  177.5470   24.9030 O.2   179  MET179     -0.2867
     92  CB        16.7000  174.9650   24.3920 C.3   179  MET179      0.0387
     93  CG        18.1650  174.6070   24.2080 C.3   179  MET179      0.0595
     94  SD        19.1840  176.0650   23.9240 S.3   179  MET179     -0.1393
     95  CE        18.3010  176.8420   22.5710 C.3   179  MET179      0.0692
     96  N         15.3700  184.3270   14.3940 N.3   329  TRP329     -0.1241
     97  CA        15.5680  183.3720   15.4720 C.3   329  TRP329      0.1605
     98  C         14.3620  182.5720   15.8960 C.2   329  TRP329      0.2264
     99  O         14.5050  181.5750   16.5550 O.2   329  TRP329     -0.2867
    100  CB        16.1560  184.0710   16.6910 C.3   329  TRP329      0.0550
    101  CG        17.6060  184.3210   16.6100 C.ar  329  TRP329      0.0003
    102  CD1       18.2060  185.4220   16.1320 C.ar  329  TRP329      0.0946
    103  CD2       18.6450  183.4490   17.0240 C.ar  329  TRP329      0.0152
    104  NE1       19.5530  185.3070   16.2280 N.ar  329  TRP329     -0.2442
    105  CE2       19.8480  184.0930   16.7670 C.ar  329  TRP329      0.0810
    106  CE3       18.6720  182.1830   17.5890 C.ar  329  TRP329      0.0012
    107  CZ2       21.0520  183.5220   17.0440 C.ar  329  TRP329      0.0191
    108  CZ3       19.8570  181.6270   17.8610 C.ar  329  TRP329      0.0001
    109  CH2       21.0360  182.2900   17.5940 C.ar  329  TRP329      0.0015
    110  N         14.0410  178.5550   14.6380 N.3   332  LEU332     -0.1231
    111  CA        14.8390  177.6160   15.4190 C.3   332  LEU332      0.1693
    112  C         14.2060  177.3630   16.7830 C.2   332  LEU332      0.2592
    113  O         14.1010  176.2140   17.2280 O.2   332  LEU332     -0.2718
    114  CB        16.2630  178.1500   15.5650 C.3   332  LEU332      0.0284
    115  CG        17.3320  177.2440   16.1730 C.3   332  LEU332      0.0019
    116  CD1       17.0890  175.7770   15.8500 C.3   332  LEU332      0.0001
    117  CD2       18.6650  177.6790   15.6200 C.3   332  LEU332      0.0001
    118  N         13.7680  178.4270   17.4590 N.am  333  HIS333     -0.1976
    119  CA        13.1370  178.2610   18.7630 C.3   333  HIS333      0.1656
    120  C         11.8070  177.5250   18.6590 C.2   333  HIS333      0.2291
    121  O         11.4510  176.7610   19.5640 O.2   333  HIS333     -0.2864
    122  CB        12.9410  179.6220   19.4270 C.3   333  HIS333      0.0771
    123  CG        14.2090  180.2300   19.9400 C.ar  333  HIS333      0.0820
    124  ND1       14.8820  179.7310   21.0340 N.ar  333  HIS333     -0.2267
    125  CD2       14.9230  181.2980   19.5140 C.ar  333  HIS333      0.1154
    126  CE1       15.9580  180.4630   21.2590 C.ar  333  HIS333      0.1986
    127  NE2       16.0060  181.4210   20.3500 N.ar  333  HIS333     -0.2212
    128  N         11.0320  175.2020   16.4520 N.3   335  ILE335     -0.1231
    129  CA        11.3220  173.7850   16.2410 C.3   335  ILE335      0.1692
    130  C         11.6670  173.1100   17.5620 C.2   335  ILE335      0.2592
    131  O         11.2400  171.9790   17.8280 O.2   335  ILE335     -0.2718
    132  CB        12.4490  173.6130   15.2050 C.3   335  ILE335      0.0266
    133  CG1       11.9990  174.1230   13.8340 C.3   335  ILE335      0.0019
    134  CG2       12.8660  172.1550   15.1080 C.3   335  ILE335      0.0020
    135  CD1       13.0730  174.0460   12.7750 C.3   335  ILE335      0.0001
    136  N         12.4400  173.7910   18.4130 N.am  336  ASN336     -0.1974
    137  CA        12.7400  173.2510   19.7350 C.3   336  ASN336      0.1688
    138  C         11.4670  173.0180   20.5380 C.2   336  ASN336      0.2292
    139  O         11.3690  172.0420   21.2910 O.2   336  ASN336     -0.2864
    140  CB        13.6780  174.1920   20.4930 C.3   336  ASN336      0.1181
    141  CG        15.0840  174.1900   19.9330 C.2   336  ASN336      0.2629
    142  OD1       15.4610  173.3000   19.1760 O.2   336  ASN336     -0.2716
    143  ND2       15.8730  175.1870   20.3150 N.am  336  ASN336     -0.0877
    144  N          9.7340  169.7530   19.4590 N.3   339  THR339     -0.1218
    145  CA        10.4340  168.5790   19.9670 C.3   339  THR339      0.1862
    146  C         10.2540  168.4350   21.4710 C.2   339  THR339      0.2287
    147  O         10.1110  167.3170   21.9820 O.2   339  THR339     -0.2866
    148  CB        11.9140  168.6700   19.6110 C.3   339  THR339      0.1770
    149  OG1       12.0460  168.7020   18.1870 O.3   339  THR339     -0.2211
    150  CG2       12.6780  167.4780   20.1650 C.3   339  THR339      0.0375
    151  N         10.0770  163.8250   14.1440 N.3   347  HIS347     -0.1226
    152  CA        11.2330  164.7060   14.2320 C.3   347  HIS347      0.1752
    153  C         11.2710  165.6710   13.0520 C.2   347  HIS347      0.2595
    154  O         10.8840  165.3330   11.9300 O.2   347  HIS347     -0.2718
    155  CB        12.5150  163.8750   14.2590 C.3   347  HIS347      0.0759
    156  CG        13.6960  164.5930   14.8300 C.ar  347  HIS347      0.0818
    157  ND1       14.0350  164.5190   16.1630 N.ar  347  HIS347     -0.2268
    158  CD2       14.6250  165.3880   14.2480 C.ar  347  HIS347      0.1154
    159  CE1       15.1200  165.2390   16.3790 C.ar  347  HIS347      0.1986
    160  NE2       15.4980  165.7780   15.2340 N.ar  347  HIS347     -0.2212
    161  N         11.7360  166.8860   13.3170 N.am  348  ALA348     -0.1980
    162  CA        11.9220  167.8560   12.2450 C.3   348  ALA348      0.1597
    163  C         13.0090  167.3610   11.2990 C.2   348  ALA348      0.2287
    164  O         14.0840  166.9580   11.7580 O.2   348  ALA348     -0.2864
    165  CB        12.2940  169.2230   12.8110 C.3   348  ALA348      0.0319
    166  N         16.3250  171.5090    9.8310 N.3   353  MET353     -0.1230
    167  CA        17.1370  171.9310   10.9670 C.3   353  MET353      0.1702
    168  C         18.2330  172.8900   10.5280 C.2   353  MET353      0.2592
    169  O         18.3590  173.9980   11.0640 O.2   353  MET353     -0.2718
    170  CB        17.7430  170.7120   11.6640 C.3   353  MET353      0.0401
    171  CG        16.8180  170.0320   12.6530 C.3   353  MET353      0.0596
    172  SD        16.0570  171.2220   13.7720 S.3   353  MET353     -0.1393
    173  CE        17.4870  172.1090   14.4040 C.3   353  MET353      0.0692
    174  N         19.0360  172.4790    9.5460 N.am  354  TYR354     -0.1976
    175  CA        20.1380  173.3130    9.0900 C.3   354  TYR354      0.1639
    176  C         19.6580  174.5520    8.3500 C.2   354  TYR354      0.2290
    177  O         20.4010  175.5350    8.2710 O.2   354  TYR354     -0.2864
    178  CB        21.0830  172.4860    8.2190 C.3   354  TYR354      0.0560
    179  CG        21.7960  171.4160    9.0100 C.ar  354  TYR354     -0.0198
    180  CD1       22.8400  171.7420    9.8620 C.ar  354  TYR354     -0.0009
    181  CD2       21.4150  170.0850    8.9260 C.ar  354  TYR354     -0.0009
    182  CE1       23.4950  170.7770   10.5970 C.ar  354  TYR354      0.0417
    183  CE2       22.0640  169.1100    9.6590 C.ar  354  TYR354      0.0417
    184  CZ        23.1030  169.4620   10.4940 C.ar  354  TYR354      0.1957
    185  OH        23.7560  168.4970   11.2280 O.3   354  TYR354     -0.2866
    186  N         19.0390  176.9010   11.3670 N.3   357  ILE357     -0.1245
    187  CA        20.3220  177.3400   11.9130 C.3   357  ILE357      0.1561
    188  C         20.9590  178.3740   10.9950 C.2   357  ILE357      0.2260
    189  O         21.4580  179.4120   11.4470 O.2   357  ILE357     -0.2867
    190  CB        21.2560  176.1350   12.1270 C.3   357  ILE357      0.0252
    191  CG1       20.6460  175.1470   13.1190 C.3   357  ILE357      0.0019
    192  CG2       22.6230  176.5980   12.6080 C.3   357  ILE357      0.0019
    193  CD1       21.4450  173.8790   13.2580 C.3   357  ILE357      0.0001
    194  N         19.2330  181.6270   11.3460 N.3   360  ALA360     -0.1231
    195  CA        19.6110  182.3350   12.5650 C.3   360  ALA360      0.1694
    196  C         20.9700  183.0080   12.4140 C.2   360  ALA360      0.2592
    197  O         21.1890  184.1020   12.9470 O.2   360  ALA360     -0.2718
    198  CB        19.6150  181.3720   13.7520 C.3   360  ALA360      0.0304
    199  N         21.8950  182.3700   11.6930 N.am  361  HIS361     -0.1976
    200  CA        23.1990  182.9800   11.4620 C.3   361  HIS361      0.1656
    201  C         23.1050  184.1650   10.5120 C.2   361  HIS361      0.2291
    202  O         23.8960  185.1090   10.6210 O.2   361  HIS361     -0.2864
    203  CB        24.1790  181.9440   10.9130 C.3   361  HIS361      0.0771
    204  CG        24.5330  180.8690   11.8920 C.ar  361  HIS361      0.0820
    205  ND1       25.1710  179.7060   11.5200 N.ar  361  HIS361     -0.2267
    206  CD2       24.3420  180.7830   13.2290 C.ar  361  HIS361      0.1154
    207  CE1       25.3560  178.9480   12.5860 C.ar  361  HIS361      0.1986
    208  NE2       24.8620  179.5790   13.6370 N.ar  361  HIS361     -0.2212
@<TRIPOS>BOND
     1     1     2    1
     2     2     3    1
     3     2     5    1
     4     3     4    2
     5     5     6    1
     6     6     7   ar
     7     6     8   ar
     8     7     9   ar
     9     8    10   ar
    10   178   179    1
    11   178   175    1
    12   177   176    2
    13   176   175    1
    14     9    11   ar
    15   181   179   ar
    16   181   183   ar
    17   179   180   ar
    18   175   174    1
    19    10    11   ar
    20   174   168   am
    21   183   184   ar
    22    11    12    1
    23   166   167    1
    24   180   182   ar
    25   184   182   ar
    26   184   185    1
    27   201   202    2
    28   201   200    1
    29   168   167    1
    30   168   169    2
    31   203   200    1
    32   203   204    1
    33   167   170    1
    34   188   189    2
    35   188   187    1
    36    31    30    1
    37   163   164    2
    38   163   162    1
    39   194   195    1
    40   186   187    1
    41   200   199    1
    42   205   204   ar
    43   205   207   ar
    44   170   171    1
    45   199   196   am
    46    30    27    1
    47   204   206   ar
    48   187   190    1
    49   154   153    2
    50    29    28    2
    51   190   192    1
    52   190   191    1
    53   162   165    1
    54   162   161    1
    55   196   195    1
    56   196   197    2
    57   195   198    1
    58   207   208   ar
    59    28    27    1
    60   171   172    1
    61   135   133    1
    62    27    26    1
    63   153   161   am
    64   153   152    1
    65   191   193    1
    66    16    15    2
    67   206   208   ar
    68    15    14    1
    69    17    14    1
    70   172   173    1
    71   133   132    1
    72    26    20   am
    73   151   152    1
    74   152   155    1
    75   158   156   ar
    76   158   160   ar
    77   155   156    1
    78    14    13    1
    79    96    97    1
    80   110   111    1
    81   156   157   ar
    82   134   132    1
    83   132   129    1
    84   160   159   ar
    85    20    21    2
    86    20    19    1
    87   111   114    1
    88   111   112    1
    89    18    19    1
    90    97    98    1
    91    97   100    1
    92   114   115    1
    93   117   115    1
    94   116   115    1
    95    98    99    2
    96   102   104   ar
    97   102   101   ar
    98    19    22    1
    99   157   159   ar
   100   104   105   ar
   101   129   128    1
   102   129   130    1
   103    24    22    1
   104    59    57    1
   105   101   100    1
   106   101   103   ar
   107   105   103   ar
   108   105   107   ar
   109   112   113    2
   110   112   118   am
   111   103   106   ar
   112   107   109   ar
   113    22    23    1
   114   118   119    1
   115   130   131    2
   116   130   136   am
   117   106   108   ar
   118   109   108   ar
   119    79    77   ar
   120    58    57    1
   121    57    56    1
   122    43    41    1
   123   149   148    1
   124    78    77   ar
   125    23    25    1
   126   136   137    1
   127    77    76    1
   128   120   119    1
   129   120   121    2
   130   119   122    1
   131    56    53    1
   132    41    42    1
   133    41    38    1
   134   142   141    2
   135    53    52    1
   136    53    54    1
   137   122   123    1
   138   144   145    1
   139   125   123   ar
   140   125   127   ar
   141    64    65    1
   142    64    61    1
   143   148   145    1
   144   148   150    1
   145    60    54   am
   146    60    61    1
   147   137   140    1
   148   137   138    1
   149    76    75    1
   150   141   143   am
   151   141   140    1
   152   123   124   ar
   153   145   146    1
   154    38    39    1
   155    38    37    1
   156    65    67   ar
   157    65    66   ar
   158    54    55    2
   159   127   126   ar
   160    61    62    1
   161    67    69   ar
   162   138   139    2
   163    75    72    1
   164    40    39    2
   165    66    68   ar
   166    71    62   am
   167    71    72    1
   168    39    44   am
   169   124   126   ar
   170    69    70   ar
   171    62    63    2
   172    68    70   ar
   173   146   147    2
   174    72    73    1
   175    35    34    2
   176    33    32    1
   177    33    34    1
   178    33    36    1
   179    44    45    1
   180    51    49    1
   181    95    94    1
   182    73    74    2
   183    87    86    1
   184    86    85    1
   185    45    46    1
   186    45    48    1
   187    49    48    1
   188    49    50    1
   189    85    84    1
   190    46    47    2
   191    94    93    1
   192    93    92    1
   193    92    89    1
   194    91    90    2
   195    84    81    1
   196    90    89    1
   197    89    88    1
   198    81    80    1
   199    81    82    1
   200    83    82    2
