@<TRIPOS>MOLECULE
tmp/5n2rA09.pdb
 118 110 0 0 0
SMALL
GASTEIGER

@<TRIPOS>ATOM
      1  N         26.0900  207.3650   22.3490 N.3    42  VAL42      -0.1245
      2  CA        25.7580  206.2220   23.1970 C.3    42  VAL42       0.1561
      3  C         24.9910  205.1730   22.4040 C.2    42  VAL42       0.2260
      4  O         25.2180  203.9660   22.5580 O.2    42  VAL42      -0.2867
      5  CB        24.9670  206.6830   24.4340 C.3    42  VAL42       0.0252
      6  CG1       24.4660  205.4820   25.2100 C.3    42  VAL42       0.0019
      7  CG2       25.8310  207.5690   25.3180 C.3    42  VAL42       0.0019
      8  N         26.1670  200.6860   21.6150 N.3    46  PHE46      -0.1241
      9  CA        25.4560  199.4130   21.6370 C.3    46  PHE46       0.1605
     10  C         25.4230  198.7860   20.2500 C.2    46  PHE46       0.2264
     11  O         25.4690  197.5570   20.1170 O.2    46  PHE46      -0.2867
     12  CB        24.0400  199.6070   22.1770 C.3    46  PHE46       0.0534
     13  CG        23.9950  200.0530   23.6100 C.ar   46  PHE46      -0.0203
     14  CD1       24.2800  199.1620   24.6350 C.ar   46  PHE46      -0.0042
     15  CD2       23.6830  201.3650   23.9330 C.ar   46  PHE46      -0.0042
     16  CE1       24.2490  199.5680   25.9570 C.ar   46  PHE46      -0.0003
     17  CE2       23.6490  201.7800   25.2520 C.ar   46  PHE46      -0.0003
     18  CZ        23.9320  200.8810   26.2670 C.ar   46  PHE46      -0.0000
     19  N         20.4880  192.0160   24.7710 N.3    95  PHE95      -0.1241
     20  CA        20.7590  193.1400   25.6620 C.3    95  PHE95       0.1605
     21  C         21.0520  194.4120   24.8760 C.2    95  PHE95       0.2264
     22  O         20.6450  195.5070   25.2810 O.2    95  PHE95      -0.2867
     23  CB        21.9250  192.8010   26.5890 C.3    95  PHE95       0.0534
     24  CG        21.5880  191.7890   27.6450 C.ar   95  PHE95      -0.0203
     25  CD1       20.3420  191.7890   28.2490 C.ar   95  PHE95      -0.0042
     26  CD2       22.5220  190.8440   28.0420 C.ar   95  PHE95      -0.0042
     27  CE1       20.0310  190.8630   29.2250 C.ar   95  PHE95      -0.0003
     28  CE2       22.2160  189.9140   29.0170 C.ar   95  PHE95      -0.0003
     29  CZ        20.9690  189.9240   29.6100 C.ar   95  PHE95      -0.0000
     30  N         17.6270  195.6380   23.4200 N.3    98  LEU98      -0.1231
     31  CA        16.8110  196.2480   24.4630 C.3    98  LEU98       0.1693
     32  C         17.3980  197.5830   24.9040 C.2    98  LEU98       0.2591
     33  O         16.6570  198.5230   25.2150 O.2    98  LEU98      -0.2718
     34  CB        16.6830  195.2930   25.6510 C.3    98  LEU98       0.0284
     35  CG        15.7830  195.7200   26.8130 C.3    98  LEU98       0.0019
     36  CD1       14.3550  195.9460   26.3420 C.3    98  LEU98       0.0001
     37  CD2       15.8260  194.6780   27.9190 C.3    98  LEU98       0.0001
     38  N         18.7280  197.6910   24.9230 N.am   99  ALA99      -0.1980
     39  CA        19.3610  198.9400   25.3350 C.3    99  ALA99       0.1597
     40  C         19.1220  200.0480   24.3180 C.2    99  ALA99       0.2287
     41  O         18.8960  201.2040   24.6950 O.2    99  ALA99      -0.2864
     42  CB        20.8580  198.7230   25.5500 C.3    99  ALA99       0.0319
     43  N         15.5740  201.3050   24.7530 N.3   102  ILE102     -0.1231
     44  CA        15.4660  202.1470   25.9400 C.3   102  ILE102      0.1692
     45  C         16.1600  203.4840   25.7100 C.2   102  ILE102      0.2592
     46  O         15.6530  204.5390   26.1110 O.2   102  ILE102     -0.2718
     47  CB        16.0350  201.4150   27.1680 C.3   102  ILE102      0.0266
     48  CG1       15.2000  200.1720   27.4760 C.3   102  ILE102      0.0019
     49  CG2       16.0780  202.3430   28.3730 C.3   102  ILE102      0.0020
     50  CD1       15.7660  199.3220   28.5860 C.3   102  ILE102      0.0001
     51  N         17.3260  203.4620   25.0590 N.am  103  ASP103     -0.1974
     52  CA        18.0280  204.7050   24.7550 C.3   103  ASP103      0.1709
     53  C         17.1800  205.6160   23.8770 C.2   103  ASP103      0.2293
     54  O         17.1840  206.8410   24.0510 O.2   103  ASP103     -0.2864
     55  CB        19.3670  204.3980   24.0810 C.3   103  ASP103      0.1436
     56  CG        20.0970  205.6510   23.6400 C.2   103  ASP103      0.3671
     57  OD1       20.6990  206.3270   24.5010 O.co2 103  ASP103     -0.2456
     58  OD2       20.0650  205.9590   22.4300 O.co2 103  ASP103     -0.2456
     59  N         14.2490  207.1950   26.0090 N.3   106  ILE106     -0.1245
     60  CA        14.6940  208.2930   26.8620 C.3   106  ILE106      0.1561
     61  C         14.8960  209.5550   26.0370 C.2   106  ILE106      0.2260
     62  O         14.6030  210.6690   26.4900 O.2   106  ILE106     -0.2867
     63  CB        15.9780  207.8980   27.6130 C.3   106  ILE106      0.0252
     64  CG1       15.7230  206.6810   28.5020 C.3   106  ILE106      0.0019
     65  CG2       16.5030  209.0660   28.4350 C.3   106  ILE106      0.0019
     66  CD1       16.9750  206.1230   29.1370 C.3   106  ILE106      0.0001
     67  N         21.7070  212.2660   31.6350 N.3   117  LEU117     -0.1231
     68  CA        21.3620  210.9370   32.1240 C.3   117  LEU117      0.1693
     69  C         22.1170  209.8390   31.3830 C.2   117  LEU117      0.2592
     70  O         22.6850  208.9390   32.0110 O.2   117  LEU117     -0.2718
     71  CB        19.8490  210.7220   32.0050 C.3   117  LEU117      0.0284
     72  CG        19.2720  209.3070   32.0680 C.3   117  LEU117      0.0019
     73  CD1       19.6340  208.6260   33.3720 C.3   117  LEU117      0.0001
     74  CD2       17.7610  209.3460   31.8880 C.3   117  LEU117      0.0001
     75  N         22.1370  209.9020   30.0560 N.am  118  VAL118     -0.1966
     76  CA        22.7090  208.8550   29.2190 C.3   118  VAL118      0.1727
     77  C         24.0640  209.3510   28.7250 C.2   118  VAL118      0.2616
     78  O         24.1520  210.0950   27.7440 O.2   118  VAL118     -0.2715
     79  CB        21.7780  208.4920   28.0600 C.3   118  VAL118      0.0290
     80  CG1       22.3340  207.3180   27.2850 C.3   118  VAL118      0.0023
     81  CG2       20.3860  208.1730   28.5870 C.3   118  VAL118      0.0023
     82  N         25.1280  208.9290   29.4010 N.am  119  THR119     -0.1951
     83  CA        26.4900  209.3130   29.0640 C.3   119  THR119      0.1897
     84  C         27.2500  208.1280   28.4790 C.2   119  THR119      0.2313
     85  O         26.7890  206.9840   28.5040 O.2   119  THR119     -0.2863
     86  CB        27.2210  209.8560   30.2980 C.3   119  THR119      0.1794
     87  OG1       27.3820  208.8050   31.2580 O.3   119  THR119     -0.2208
     88  CG2       26.4280  210.9910   30.9270 C.3   119  THR119      0.0378
     89  N         28.8940  205.5770   31.3090 N.3   122  ARG122     -0.1231
     90  CA        27.8800  204.6730   31.8400 C.3   122  ARG122      0.1694
     91  C         27.4940  203.6180   30.8130 C.2   122  ARG122      0.2591
     92  O         27.2390  202.4620   31.1670 O.2   122  ARG122     -0.2718
     93  CB        26.6450  205.4600   32.2780 C.3   122  ARG122      0.0321
     94  CG        26.8640  206.3900   33.4550 C.3   122  ARG122      0.0489
     95  CD        25.5770  207.1230   33.7990 C.3   122  ARG122      0.2205
     96  NE        25.7690  208.1310   34.8370 N.pl3 122  ARG122     -0.0865
     97  CZ        24.8180  208.9600   35.2550 C.cat 122  ARG122      0.5346
     98  NH1       23.6050  208.9040   34.7230 N.pl3 122  ARG122      0.1354
     99  NH2       25.0790  209.8480   36.2050 N.pl3 122  ARG122      0.1354
    100  N         27.4430  204.0000   29.5350 N.am  123  ALA123     -0.1980
    101  CA        27.0910  203.0460   28.4900 C.3   123  ALA123      0.1597
    102  C         28.1180  201.9260   28.3870 C.2   123  ALA123      0.2287
    103  O         27.7630  200.7730   28.1190 O.2   123  ALA123     -0.2864
    104  CB        26.9510  203.7640   27.1500 C.3   123  ALA123      0.0319
    105  N         27.4530  199.4250   31.1280 N.3   126  ILE126     -0.1245
    106  CA        26.2790  198.6140   30.8180 C.3   126  ILE126      0.1561
    107  C         26.6360  197.5280   29.8150 C.2   126  ILE126      0.2260
    108  O         26.2300  196.3680   29.9600 O.2   126  ILE126     -0.2867
    109  CB        25.1350  199.5060   30.3020 C.3   126  ILE126      0.0252
    110  CG1       24.7120  200.5010   31.3820 C.3   126  ILE126      0.0019
    111  CG2       23.9520  198.6580   29.8610 C.3   126  ILE126      0.0019
    112  CD1       23.6770  201.4970   30.9160 C.3   126  ILE126      0.0001
    113  N         26.3130  193.6810   30.5250 N.3   130  CYS130     -0.1235
    114  CA        25.4490  192.8600   29.6830 C.3   130  CYS130      0.1677
    115  C         26.2100  191.7080   29.0370 C.2   130  CYS130      0.2270
    116  O         25.6220  190.6530   28.7720 O.2   130  CYS130     -0.2867
    117  CB        24.7830  193.7270   28.6160 C.3   130  CYS130      0.0956
    118  SG        23.5340  194.8690   29.2580 S.3   130  CYS130     -0.0801
@<TRIPOS>BOND
     1    11    10    2
     2    10     9    1
     3     8     9    1
     4     9    12    1
     5    12    13    1
     6     1     2    1
     7     3     4    2
     8     3     2    1
     9    58    56   ar
    10     2     5    1
    11    30    31    1
    12    13    15   ar
    13    13    14   ar
    14    56    55    1
    15    56    57   ar
    16    53    54    2
    17    53    52    1
    18    15    17   ar
    19    55    52    1
    20    40    41    2
    21    40    39    1
    22     5     6    1
    23     5     7    1
    24    31    32    1
    25    31    34    1
    26    14    16   ar
    27    43    44    1
    28    52    51    1
    29    19    20    1
    30    21    22    2
    31    21    20    1
    32    32    38   am
    33    32    33    2
    34    38    39    1
    35    51    45   am
    36    17    18   ar
    37    39    42    1
    38    34    35    1
    39    20    23    1
    40    45    44    1
    41    45    46    2
    42    44    47    1
    43    16    18   ar
    44    59    60    1
    45    61    62    2
    46    61    60    1
    47    36    35    1
    48    23    24    1
    49    35    37    1
    50    60    63    1
    51   104   101    1
    52    47    48    1
    53    47    49    1
    54    80    79    1
    55    48    50    1
    56    63    65    1
    57    63    64    1
    58    24    26   ar
    59    24    25   ar
    60    78    77    2
    61    26    28   ar
    62    79    81    1
    63    79    76    1
    64   103   102    2
    65    25    27   ar
    66   102   101    1
    67    84    85    2
    68    84    83    1
    69   101   100    1
    70    64    66    1
    71   117   118    1
    72   117   114    1
    73    77    76    1
    74    77    82   am
    75   116   115    2
    76    28    29   ar
    77   115   114    1
    78    83    82    1
    79    83    86    1
    80    76    75    1
    81    27    29   ar
    82   100    91   am
    83   114   113    1
    84   107   108    2
    85   107   106    1
    86   111   109    1
    87    75    69   am
    88    86    88    1
    89    86    87    1
    90   109   106    1
    91   109   110    1
    92    91    92    2
    93    91    90    1
    94   106   105    1
    95   112   110    1
    96    89    90    1
    97    69    70    2
    98    69    68    1
    99    67    68    1
   100    90    93    1
   101    74    72    1
   102    71    72    1
   103    71    68    1
   104    72    73    1
   105    93    94    1
   106    94    95    1
   107    95    96    1
   108    98    97    1
   109    96    97    2
   110    97    99    1
