@<TRIPOS>MOLECULE
tmp/5n2sA00.pdb
 195 184 0 0 0
SMALL
GASTEIGER

@<TRIPOS>ATOM
      1  N         98.7440  143.9620   48.2910 N.3   110  TYR110     -0.1241
      2  CA        98.8750  142.6680   47.6290 C.3   110  TYR110      0.1605
      3  C         97.5420  142.2110   47.0520 C.2   110  TYR110      0.2264
      4  O         97.4630  141.7990   45.8870 O.2   110  TYR110     -0.2867
      5  CB        99.4220  141.6300   48.6100 C.3   110  TYR110      0.0534
      6  CG        99.1810  140.1950   48.1900 C.ar  110  TYR110     -0.0201
      7  CD1       99.9990  139.5770   47.2520 C.ar  110  TYR110     -0.0009
      8  CD2       98.1380  139.4570   48.7360 C.ar  110  TYR110     -0.0009
      9  CE1       99.7840  138.2650   46.8680 C.ar  110  TYR110      0.0417
     10  CE2       97.9140  138.1460   48.3560 C.ar  110  TYR110      0.0417
     11  CZ        98.7400  137.5550   47.4220 C.ar  110  TYR110      0.1957
     12  OH        98.5220  136.2500   47.0420 O.3   110  TYR110     -0.2866
     13  N         94.3480  132.4960   45.3540 N.3   164  ALA164     -0.1245
     14  CA        95.5290  133.1430   45.9120 C.3   164  ALA164      0.1562
     15  C         95.1630  134.2660   46.8720 C.2   164  ALA164      0.2260
     16  O         95.9850  134.6410   47.7150 O.2   164  ALA164     -0.2867
     17  CB        96.4180  133.6800   44.7900 C.3   164  ALA164      0.0290
     18  N         93.8010  132.1840   50.0620 N.3   167  ILE167     -0.1245
     19  CA        94.9020  131.6230   50.8390 C.3   167  ILE167      0.1561
     20  C         95.6110  132.7020   51.6510 C.2   167  ILE167      0.2260
     21  O         96.2670  132.3890   52.6530 O.2   167  ILE167     -0.2867
     22  CB        95.9010  130.8880   49.9260 C.3   167  ILE167      0.0252
     23  CG1       96.8700  130.0370   50.7510 C.3   167  ILE167      0.0019
     24  CG2       96.6780  131.8720   49.0720 C.3   167  ILE167      0.0019
     25  CD1       98.0020  129.4380   49.9440 C.3   167  ILE167      0.0001
     26  N         97.1900  125.5490   40.6410 N.3   185  VAL185     -0.1231
     27  CA        98.2910  126.3520   40.1140 C.3   185  VAL185      0.1692
     28  C         99.4220  125.4550   39.6240 C.2   185  VAL185      0.2591
     29  O        100.0670  125.7450   38.6080 O.2   185  VAL185     -0.2718
     30  CB        98.7720  127.3670   41.1690 C.3   185  VAL185      0.0266
     31  CG1       99.0730  126.6750   42.4900 C.3   185  VAL185      0.0020
     32  CG2       99.9900  128.1310   40.6640 C.3   185  VAL185      0.0020
     33  N         99.6750  124.3470   40.3260 N.am  186  LEU186     -0.1980
     34  CA       100.6470  123.3700   39.8430 C.3   186  LEU186      0.1596
     35  C        100.2320  122.8260   38.4830 C.2   186  LEU186      0.2287
     36  O        101.0230  122.8270   37.5260 O.2   186  LEU186     -0.2864
     37  CB       100.7890  122.2300   40.8530 C.3   186  LEU186      0.0297
     38  CG       101.1340  122.5840   42.3010 C.3   186  LEU186      0.0022
     39  CD1      100.7860  121.4270   43.2280 C.3   186  LEU186      0.0001
     40  CD2      102.6070  122.9450   42.4290 C.3   186  LEU186      0.0001
     41  N        100.4560  125.5620   35.7210 N.3   189  ALA189     -0.1245
     42  CA       101.8350  125.9270   35.4140 C.3   189  ALA189      0.1562
     43  C        102.5070  124.8550   34.5660 C.2   189  ALA189      0.2260
     44  O        103.1570  125.1580   33.5540 O.2   189  ALA189     -0.2867
     45  CB       102.6170  126.1660   36.7030 C.3   189  ALA189      0.0290
     46  N        100.4610  127.8930   52.2250 N.3   269  PHE269     -0.1227
     47  CA       100.9950  127.0770   51.1410 C.3   269  PHE269      0.1736
     48  C        102.1090  126.1620   51.6360 C.2   269  PHE269      0.2595
     49  O        102.2100  125.0070   51.2070 O.2   269  PHE269     -0.2718
     50  CB       101.5030  127.9660   50.0060 C.3   269  PHE269      0.0547
     51  CG       102.1030  127.1960   48.8640 C.ar  269  PHE269     -0.0202
     52  CD1      101.3100  126.7540   47.8190 C.ar  269  PHE269     -0.0042
     53  CD2      103.4580  126.9040   48.8420 C.ar  269  PHE269     -0.0042
     54  CE1      101.8570  126.0390   46.7690 C.ar  269  PHE269     -0.0003
     55  CE2      104.0100  126.1850   47.7990 C.ar  269  PHE269     -0.0003
     56  CZ       103.2080  125.7550   46.7590 C.ar  269  PHE269     -0.0000
     57  N        102.9500  126.6610   52.5440 N.am  270  GLU270     -0.1979
     58  CA       104.1590  125.9370   52.9190 C.3   270  GLU270      0.1602
     59  C        103.8570  124.7210   53.7890 C.2   270  GLU270      0.2287
     60  O        104.6440  123.7670   53.8080 O.2   270  GLU270     -0.2864
     61  CB       105.1200  126.8870   53.6360 C.3   270  GLU270      0.0415
     62  CG       106.5290  126.3550   53.8190 C.3   270  GLU270      0.1163
     63  CD       107.4510  127.3760   54.4570 C.2   270  GLU270      0.3649
     64  OE1      106.9720  128.4790   54.7980 O.co2 270  GLU270     -0.2457
     65  OE2      108.6530  127.0770   54.6160 O.co2 270  GLU270     -0.2457
     66  N        108.2830  120.3200   50.2910 N.3   275  MET275     -0.1245
     67  CA       109.2450  121.0260   49.4540 C.3   275  MET275      0.1570
     68  C        110.1330  120.0720   48.6680 C.2   275  MET275      0.2261
     69  O        110.7230  120.4830   47.6640 O.2   275  MET275     -0.2867
     70  CB       110.0980  121.9660   50.3070 C.3   275  MET275      0.0387
     71  CG       109.2810  122.9380   51.1450 C.3   275  MET275      0.0595
     72  SD       107.9910  123.7760   50.1970 S.3   275  MET275     -0.1393
     73  CE       108.9730  124.7950   49.1070 C.3   275  MET275      0.0692
     74  N        108.2480  119.9240   45.4810 N.3   278  MET278     -0.1245
     75  CA       108.4100  121.1290   44.6750 C.3   278  MET278      0.1570
     76  C        109.7890  121.1800   44.0310 C.2   278  MET278      0.2261
     77  O        109.9160  121.4540   42.8320 O.2   278  MET278     -0.2867
     78  CB       108.1770  122.3740   45.5290 C.3   278  MET278      0.0387
     79  CG       106.7500  122.5470   45.9900 C.3   278  MET278      0.0595
     80  SD       105.5790  122.4670   44.6250 S.3   278  MET278     -0.1393
     81  CE       106.1950  123.7710   43.5630 C.3   278  MET278      0.0692
     82  N        108.7070  118.4810   41.0960 N.3   282  ASN282     -0.1240
     83  CA       107.9860  119.4500   40.2790 C.3   282  ASN282      0.1653
     84  C        108.9100  120.3830   39.5030 C.2   282  ASN282      0.2266
     85  O        108.4970  120.9190   38.4700 O.2   282  ASN282     -0.2867
     86  CB       107.0390  120.2670   41.1600 C.3   282  ASN282      0.1155
     87  CG       106.1980  121.2430   40.3640 C.2   282  ASN282      0.2627
     88  OD1      106.5700  122.4030   40.1930 O.2   282  ASN282     -0.2716
     89  ND2      105.0580  120.7760   39.8690 N.am  282  ASN282     -0.0877
     90  N        110.2910  120.9950   35.2010 N.3   287  VAL287     -0.1245
     91  CA       110.4370  122.4020   34.8450 C.3   287  VAL287      0.1561
     92  C        111.7790  122.6200   34.1600 C.2   287  VAL287      0.2260
     93  O        111.8320  123.0360   32.9980 O.2   287  VAL287     -0.2867
     94  CB       110.2950  123.3220   36.0710 C.3   287  VAL287      0.0252
     95  CG1      110.7640  124.7260   35.7250 C.3   287  VAL287      0.0019
     96  CG2      108.8520  123.3620   36.5440 C.3   287  VAL287      0.0019
     97  N        109.0130  132.8950   36.2090 N.3   335  TRP335     -0.1241
     98  CA       108.7080  131.7460   37.0490 C.3   335  TRP335      0.1605
     99  C        109.8830  131.2260   37.8620 C.2   335  TRP335      0.2264
    100  O        109.6560  130.5560   38.8740 O.2   335  TRP335     -0.2867
    101  CB       108.1520  130.6000   36.1970 C.3   335  TRP335      0.0550
    102  CG       106.6800  130.6860   36.0450 C.ar  335  TRP335      0.0003
    103  CD1      105.9870  131.0760   34.9380 C.ar  335  TRP335      0.0946
    104  CD2      105.7070  130.4000   37.0500 C.ar  335  TRP335      0.0152
    105  NE1      104.6360  131.0360   35.1890 N.ar  335  TRP335     -0.2442
    106  CE2      104.4390  130.6240   36.4810 C.ar  335  TRP335      0.0810
    107  CE3      105.7850  129.9670   38.3750 C.ar  335  TRP335      0.0012
    108  CZ2      103.2590  130.4310   37.1930 C.ar  335  TRP335      0.0191
    109  CZ3      104.6150  129.7770   39.0790 C.ar  335  TRP335      0.0001
    110  CH2      103.3680  130.0080   38.4880 C.ar  335  TRP335      0.0015
    111  N        110.0260  132.1800   42.0870 N.3   338  LEU338     -0.1231
    112  CA       109.2760  131.3800   43.0500 C.3   338  LEU338      0.1693
    113  C        109.9390  130.0260   43.2740 C.2   338  LEU338      0.2592
    114  O        110.0590  129.5620   44.4170 O.2   338  LEU338     -0.2718
    115  CB       107.8380  131.2070   42.5660 C.3   338  LEU338      0.0284
    116  CG       106.7730  131.0140   43.6430 C.3   338  LEU338      0.0019
    117  CD1      106.7150  132.2260   44.5610 C.3   338  LEU338      0.0001
    118  CD2      105.4220  130.7610   42.9970 C.3   338  LEU338      0.0001
    119  N        110.3910  129.3850   42.1920 N.am  339  HIS339     -0.1976
    120  CA       111.0760  128.1030   42.3180 C.3   339  HIS339      0.1656
    121  C        112.3420  128.2290   43.1530 C.2   339  HIS339      0.2291
    122  O        112.6190  127.3740   44.0020 O.2   339  HIS339     -0.2864
    123  CB       111.4070  127.5460   40.9350 C.3   339  HIS339      0.0771
    124  CG       110.2480  126.8920   40.2540 C.ar  339  HIS339      0.0820
    125  ND1      109.6020  125.7930   40.7770 N.ar  339  HIS339     -0.2267
    126  CD2      109.6280  127.1710   39.0830 C.ar  339  HIS339      0.1154
    127  CE1      108.6290  125.4280   39.9630 C.ar  339  HIS339      0.1986
    128  NE2      108.6230  126.2470   38.9270 N.ar  339  HIS339     -0.2212
    129  N        112.8690  130.3690   45.4330 N.3   341  LEU341     -0.1231
    130  CA       112.4140  130.4950   46.8150 C.3   341  LEU341      0.1693
    131  C        112.1190  129.1270   47.4200 C.2   341  LEU341      0.2592
    132  O        112.4870  128.8560   48.5710 O.2   341  LEU341     -0.2718
    133  CB       111.1820  131.3970   46.8870 C.3   341  LEU341      0.0284
    134  CG       111.4240  132.8480   47.3170 C.3   341  LEU341      0.0019
    135  CD1      112.4090  133.5480   46.3890 C.3   341  LEU341      0.0001
    136  CD2      110.1110  133.6120   47.3840 C.3   341  LEU341      0.0001
    137  N        111.4640  128.2470   46.6560 N.am  342  ASN342     -0.1974
    138  CA       111.2450  126.8830   47.1290 C.3   342  ASN342      0.1688
    139  C        112.5650  126.1760   47.4140 C.2   342  ASN342      0.2292
    140  O        112.7050  125.4840   48.4320 O.2   342  ASN342     -0.2864
    141  CB       110.4310  126.0950   46.1040 C.3   342  ASN342      0.1181
    142  CG       109.0500  126.6770   45.8870 C.2   342  ASN342      0.2629
    143  OD1      108.4380  127.2110   46.8100 O.2   342  ASN342     -0.2716
    144  ND2      108.5510  126.5760   44.6610 N.am  342  ASN342     -0.0877
    145  N        114.0900  127.3730   50.5280 N.3   345  THR345     -0.1218
    146  CA       113.3430  126.8000   51.6430 C.3   345  THR345      0.1862
    147  C        113.8020  125.3780   51.9470 C.2   345  THR345      0.2287
    148  O        113.9990  125.0180   53.1140 O.2   345  THR345     -0.2866
    149  CB       111.8470  126.8260   51.3340 C.3   345  THR345      0.1770
    150  OG1      111.3910  128.1830   51.3150 O.3   345  THR345     -0.2211
    151  CG2      111.0650  126.0480   52.3790 C.3   345  THR345      0.0375
    152  N        115.4260  132.7310   56.4210 N.3   352  HIS352     -0.1226
    153  CA       114.0670  133.1770   56.1550 C.3   352  HIS352      0.1752
    154  C        114.0940  134.4280   55.2910 C.2   352  HIS352      0.2595
    155  O        114.8960  135.3400   55.5190 O.2   352  HIS352     -0.2718
    156  CB       113.2900  133.4430   57.4440 C.3   352  HIS352      0.0759
    157  CG       111.8280  133.1500   57.3200 C.ar  352  HIS352      0.0818
    158  ND1      110.9770  133.9270   56.5640 N.ar  352  HIS352     -0.2268
    159  CD2      111.0730  132.1470   57.8270 C.ar  352  HIS352      0.1154
    160  CE1      109.7570  133.4240   56.6220 C.ar  352  HIS352      0.1986
    161  NE2      109.7880  132.3440   57.3820 N.ar  352  HIS352     -0.2212
    162  N        113.2050  134.4590   54.3100 N.am  353  LYS353     -0.1980
    163  CA       113.1790  135.4720   53.2680 C.3   353  LYS353      0.1596
    164  C        112.3410  136.6690   53.7110 C.2   353  LYS353      0.2287
    165  O        111.3350  136.5000   54.4060 O.2   353  LYS353     -0.2864
    166  CB       112.5960  134.8910   51.9770 C.3   353  LYS353      0.0298
    167  CG       113.0540  133.4710   51.6340 C.3   353  LYS353      0.0038
    168  CD       112.1600  132.4010   52.2620 C.3   353  LYS353      0.0206
    169  CE       112.7730  131.0160   52.1130 C.3   353  LYS353      0.1093
    170  NZ       111.9920  129.9680   52.8280 N.3   353  LYS353     -0.1314
    171  N        109.0330  137.8820   48.4350 N.3   358  THR358     -0.1218
    172  CA       108.0900  136.8160   48.1180 C.3   358  THR358      0.1862
    173  C        106.8610  137.3690   47.4070 C.2   358  THR358      0.2287
    174  O        106.4040  136.8030   46.4060 O.2   358  THR358     -0.2866
    175  CB       107.6890  136.0750   49.3930 C.3   358  THR358      0.1770
    176  OG1      108.8260  135.3790   49.9180 O.3   358  THR358     -0.2211
    177  CG2      106.5760  135.0830   49.1060 C.3   358  THR358      0.0375
    178  N        105.6010  136.2350   43.6650 N.3   362  ILE362     -0.1245
    179  CA       104.2360  135.8410   43.3320 C.3   362  ILE362      0.1561
    180  C        103.6440  136.7860   42.2930 C.2   362  ILE362      0.2260
    181  O        102.8990  136.3610   41.4020 O.2   362  ILE362     -0.2867
    182  CB       103.3760  135.7860   44.6070 C.3   362  ILE362      0.0252
    183  CG1      103.9960  134.8270   45.6230 C.3   362  ILE362      0.0019
    184  CG2      101.9550  135.3590   44.2800 C.3   362  ILE362      0.0019
    185  CD1      103.2870  134.8220   46.9520 C.3   362  ILE362      0.0001
    186  N        102.2510  135.0490   38.8780 N.3   366  HIS366     -0.1241
    187  CA       100.8700  135.2250   38.4460 C.3   366  HIS366      0.1621
    188  C        100.7470  136.2530   37.3320 C.2   366  HIS366      0.2264
    189  O         99.8190  136.1720   36.5200 O.2   366  HIS366     -0.2867
    190  CB        99.9900  135.6360   39.6270 C.3   366  HIS366      0.0745
    191  CG        99.8460  134.5760   40.6730 C.ar  366  HIS366      0.0817
    192  ND1       99.1940  134.7950   41.8670 N.ar  366  HIS366     -0.2268
    193  CD2      100.2670  133.2900   40.7030 C.ar  366  HIS366      0.1154
    194  CE1       99.2220  133.6890   42.5890 C.ar  366  HIS366      0.1986
    195  NE2       99.8660  132.7610   41.9060 N.ar  366  HIS366     -0.2212
@<TRIPOS>BOND
     1    93    92    2
     2    44    43    2
     3    92    91    1
     4    43    42    1
     5    91    90    1
     6    91    94    1
     7   103   105   ar
     8   103   102   ar
     9   105   106   ar
    10    42    41    1
    11    42    45    1
    12    95    94    1
    13   102   101    1
    14   102   104   ar
    15    94    96    1
    16   101    98    1
    17    97    98    1
    18   106   104   ar
    19   106   108   ar
    20   189   188    2
    21    98    99    1
    22   104   107   ar
    23   108   110   ar
    24   188   187    1
    25    36    35    2
    26    99   100    2
    27   107   109   ar
    28   187   186    1
    29   187   190    1
    30    85    84    2
    31    35    34    1
    32   110   109   ar
    33    29    28    2
    34   128   126   ar
    35   128   127   ar
    36   126   124   ar
    37    84    83    1
    38    28    27    1
    39    28    33   am
    40   190   191    1
    41    34    33    1
    42    34    37    1
    43    89    87   am
    44   127   125   ar
    45    27    26    1
    46    27    30    1
    47    88    87    2
    48   124   125   ar
    49   124   123    1
    50    83    82    1
    51    83    86    1
    52    87    86    1
    53    32    30    1
    54   191   193   ar
    55   191   192   ar
    56   193   195   ar
    57    37    38    1
    58   123   120    1
    59    30    31    1
    60   181   180    2
    61   192   194   ar
    62   195   194   ar
    63   111   112    1
    64   119   120    1
    65   119   113   am
    66   180   179    1
    67    38    40    1
    68    38    39    1
    69   120   121    1
    70   115   112    1
    71   115   116    1
    72    77    76    2
    73   118   116    1
    74   112   113    1
    75   121   122    2
    76   113   114    2
    77   179   178    1
    78   179   182    1
    79    81    80    1
    80   116   117    1
    81    76    75    1
    82   184   182    1
    83   182   183    1
    84    80    79    1
    85   144   142   am
    86    75    74    1
    87    75    78    1
    88    17    14    1
    89    13    14    1
    90   129   130    1
    91    78    79    1
    92   183   185    1
    93   142   141    1
    94   142   143    2
    95     4     3    2
    96    14    15    1
    97   141   138    1
    98   135   134    1
    99   174   173    2
   100   137   138    1
   101   137   131   am
   102    56    54   ar
   103    56    55   ar
   104    54    52   ar
   105   130   133    1
   106   130   131    1
   107     9     7   ar
   108     9    11   ar
   109    15    16    2
   110   133   134    1
   111    12    11    1
   112     3     2    1
   113   138   139    1
   114     7     6   ar
   115   134   136    1
   116   173   172    1
   117   139   140    2
   118   131   132    2
   119    11    10   ar
   120     2     1    1
   121     2     5    1
   122    69    68    2
   123    55    53   ar
   124    52    51   ar
   125   172   171    1
   126   172   175    1
   127     6     5    1
   128     6     8   ar
   129    10     8   ar
   130    68    67    1
   131    53    51   ar
   132    51    50    1
   133    24    22    1
   134   177   175    1
   135    73    72    1
   136   175   176    1
   137    67    66    1
   138    67    70    1
   139    22    23    1
   140    22    19    1
   141    25    23    1
   142    50    47    1
   143    18    19    1
   144    72    71    1
   145    70    71    1
   146   145   146    1
   147    19    20    1
   148    47    48    1
   149    47    46    1
   150    49    48    2
   151   150   149    1
   152   149   146    1
   153   149   151    1
   154   167   166    1
   155   167   168    1
   156    48    57   am
   157   146   147    1
   158    20    21    2
   159   147   148    2
   160   166   163    1
   161   169   168    1
   162   169   170    1
   163    57    58    1
   164    58    61    1
   165    58    59    1
   166   163   164    1
   167   163   162    1
   168    61    62    1
   169   164   165    2
   170    59    60    2
   171    62    63    1
   172   162   154   am
   173    63    65   ar
   174    63    64   ar
   175   154   155    2
   176   154   153    1
   177   153   152    1
   178   153   156    1
   179   158   160   ar
   180   158   157   ar
   181   160   161   ar
   182   157   156    1
   183   157   159   ar
   184   161   159   ar
