@<TRIPOS>MOLECULE
tmp/5n2tA00.pdb
 183 179 0 0 0
SMALL
GASTEIGER

@<TRIPOS>ATOM
      1  N         13.9770   46.7710    1.2340 N.3   111  ASN111     -0.1225
      2  CA        12.7780   45.9710    1.5250 C.3   111  ASN111      0.1785
      3  C         12.5210   44.9180    0.4460 C.2   111  ASN111      0.2597
      4  O         11.4080   44.7730   -0.0650 O.2   111  ASN111     -0.2718
      5  CB        11.5650   46.8880    1.6780 C.3   111  ASN111      0.1169
      6  CG        11.5690   47.6570    2.9780 C.2   111  ASN111      0.2627
      7  OD1       11.9330   47.1350    4.0280 O.2   111  ASN111     -0.2716
      8  ND2       11.1440   48.9050    2.9180 N.am  111  ASN111     -0.0877
      9  N         13.5420   44.1630    0.0730 N.am  112  ASN112     -0.1960
     10  CA        13.3590   43.1790   -0.9870 C.3   112  ASN112      0.1819
     11  C         14.4930   42.1660   -0.9410 C.2   112  ASN112      0.2621
     12  O         15.4630   42.3010   -0.1940 O.2   112  ASN112     -0.2715
     13  CB        13.3190   43.8760   -2.3570 C.3   112  ASN112      0.1195
     14  CG        12.3800   43.2120   -3.3570 C.2   112  ASN112      0.2630
     15  OD1       11.8700   42.1240   -3.1440 O.2   112  ASN112     -0.2716
     16  ND2       12.1210   43.9100   -4.4530 N.am  112  ASN112     -0.0877
     17  N         14.3400   41.1430   -1.7670 N.am  113  ALA113     -0.1963
     18  CA        15.3330   40.1160   -2.0140 C.3   113  ALA113      0.1728
     19  C         15.1650   39.7180   -3.4720 C.2   113  ALA113      0.2616
     20  O         14.0820   39.8730   -4.0450 O.2   113  ALA113     -0.2715
     21  CB        15.1210   38.9090   -1.0950 C.3   113  ALA113      0.0334
     22  N         16.2300   39.1770   -4.0770 N.am  114  PHE114     -0.1960
     23  CA        16.1620   38.8290   -5.4960 C.3   114  PHE114      0.1771
     24  C         17.2840   37.8800   -5.8730 C.2   114  PHE114      0.2620
     25  O         18.3030   37.7750   -5.1890 O.2   114  PHE114     -0.2715
     26  CB        16.1690   40.0640   -6.4210 C.3   114  PHE114      0.0574
     27  CG        17.3840   40.9790   -6.2800 C.ar  114  PHE114     -0.0200
     28  CD1       17.4530   41.9200   -5.2550 C.ar  114  PHE114     -0.0042
     29  CD2       18.4250   40.9350   -7.1910 C.ar  114  PHE114     -0.0042
     30  CE1       18.5460   42.8040   -5.1610 C.ar  114  PHE114     -0.0003
     31  CE2       19.5080   41.8050   -7.0900 C.ar  114  PHE114     -0.0003
     32  CZ        19.5650   42.7350   -6.0780 C.ar  114  PHE114     -0.0000
     33  N         17.0650   37.2020   -6.9940 N.am  115  TRP115     -0.1960
     34  CA        18.0830   36.4760   -7.7470 C.3   115  TRP115      0.1771
     35  C         18.5230   37.3890   -8.8950 C.2   115  TRP115      0.2620
     36  O         17.6820   37.8840   -9.6470 O.2   115  TRP115     -0.2715
     37  CB        17.4870   35.1720   -8.2820 C.3   115  TRP115      0.0590
     38  CG        18.4000   34.4160   -9.2180 C.ar  115  TRP115      0.0006
     39  CD1       18.3690   34.4260  -10.5930 C.ar  115  TRP115      0.0946
     40  CD2       19.4800   33.5330   -8.8500 C.ar  115  TRP115      0.0152
     41  NE1       19.3630   33.5980  -11.0920 N.ar  115  TRP115     -0.2442
     42  CE2       20.0610   33.0510  -10.0440 C.ar  115  TRP115      0.0810
     43  CE3       19.9940   33.0850   -7.6260 C.ar  115  TRP115      0.0012
     44  CZ2       21.1260   32.1360  -10.0360 C.ar  115  TRP115      0.0191
     45  CZ3       21.0480   32.1890   -7.6330 C.ar  115  TRP115      0.0001
     46  CH2       21.5990   31.7360   -8.8210 C.ar  115  TRP115      0.0015
     47  N         19.8200   37.6660   -8.9960 N.am  116  ASN116     -0.1958
     48  CA        20.3120   38.6650   -9.9430 C.3   116  ASN116      0.1819
     49  C         20.7920   38.0670  -11.2630 C.2   116  ASN116      0.2621
     50  O         21.4480   38.7690  -12.0450 O.2   116  ASN116     -0.2715
     51  CB        21.4130   39.5240   -9.3170 C.3   116  ASN116      0.1195
     52  CG        22.7600   38.8420   -9.3200 C.2   116  ASN116      0.2630
     53  OD1       22.8510   37.6170   -9.4270 O.2   116  ASN116     -0.2716
     54  ND2       23.8220   39.6370   -9.2070 N.am  116  ASN116     -0.0877
     55  N         20.4570   36.8010  -11.5310 N.am  117  GLY117     -0.1954
     56  CA        20.9670   36.0460  -12.6590 C.3   117  GLY117      0.1869
     57  C         22.0890   35.0990  -12.3040 C.2   117  GLY117      0.2309
     58  O         22.3770   34.1730  -13.0740 O.2   117  GLY117     -0.2863
     59  N          9.8850   45.4170    6.5890 N.3   130  PHE130     -0.1241
     60  CA        10.5760   44.1360    6.6700 C.3   130  PHE130      0.1605
     61  C         11.7010   44.2250    7.6870 C.2   130  PHE130      0.2264
     62  O         12.2790   45.2980    7.9110 O.2   130  PHE130     -0.2867
     63  CB        11.2460   43.7220    5.3420 C.3   130  PHE130      0.0534
     64  CG        10.3070   43.1900    4.3060 C.ar  130  PHE130     -0.0203
     65  CD1        9.9150   41.8670    4.3320 C.ar  130  PHE130     -0.0042
     66  CD2        9.8450   43.9930    3.2850 C.ar  130  PHE130     -0.0042
     67  CE1        9.0640   41.3610    3.3670 C.ar  130  PHE130     -0.0003
     68  CE2        8.9910   43.4830    2.3120 C.ar  130  PHE130     -0.0003
     69  CZ         8.6230   42.1630    2.3570 C.ar  130  PHE130     -0.0000
     70  N         15.5180   39.8820    5.2580 N.3   133  LEU133     -0.1245
     71  CA        14.5620   39.0360    4.5470 C.3   133  LEU133      0.1561
     72  C         14.9720   37.5740    4.4910 C.2   133  LEU133      0.2260
     73  O         14.1060   36.7140    4.2900 O.2   133  LEU133     -0.2867
     74  CB        14.2850   39.5770    3.1410 C.3   133  LEU133      0.0270
     75  CG        13.3490   40.8080    3.1340 C.3   133  LEU133      0.0019
     76  CD1       14.0960   42.1190    3.3720 C.3   133  LEU133      0.0001
     77  CD2       12.5450   40.8900    1.8800 C.3   133  LEU133      0.0001
     78  N         10.9260   32.8780    1.8110 N.3   139  VAL139     -0.1245
     79  CA        11.6300   33.8790    1.0090 C.3   139  VAL139      0.1561
     80  C         12.8890   33.2910    0.3790 C.2   139  VAL139      0.2260
     81  O         13.1250   33.4500   -0.8260 O.2   139  VAL139     -0.2867
     82  CB        11.9630   35.1180    1.8590 C.3   139  VAL139      0.0252
     83  CG1       12.7970   36.0960    1.0360 C.3   139  VAL139      0.0019
     84  CG2       10.6870   35.7560    2.3900 C.3   139  VAL139      0.0019
     85  N         11.8950   30.9190   -2.2370 N.3   142  HIS142     -0.1226
     86  CA        11.3740   31.6970   -3.3620 C.3   142  HIS142      0.1752
     87  C         12.5170   32.1860   -4.2520 C.2   142  HIS142      0.2595
     88  O         12.4650   32.0650   -5.4850 O.2   142  HIS142     -0.2718
     89  CB        10.5210   32.8630   -2.8030 C.3   142  HIS142      0.0759
     90  CG         9.9480   33.7950   -3.8470 C.ar  142  HIS142      0.0818
     91  ND1        8.5960   33.8930   -4.1150 N.ar  142  HIS142     -0.2268
     92  CD2       10.5490   34.7070   -4.6510 C.ar  142  HIS142      0.1154
     93  CE1        8.3980   34.7890   -5.0720 C.ar  142  HIS142      0.1986
     94  NE2        9.5720   35.2970   -5.4210 N.ar  142  HIS142     -0.2212
     95  N         13.5760   32.7250   -3.6480 N.am  143  GLU143     -0.1979
     96  CA        14.6860   33.2550   -4.4380 C.3   143  GLU143      0.1602
     97  C         15.4430   32.1510   -5.1590 C.2   143  GLU143      0.2287
     98  O         15.7500   32.2840   -6.3510 O.2   143  GLU143     -0.2864
     99  CB        15.6300   34.0820   -3.5800 C.3   143  GLU143      0.0415
    100  CG        14.9680   35.2230   -2.7620 C.3   143  GLU143      0.1163
    101  CD        14.0390   36.0980   -3.5550 C.2   143  GLU143      0.3649
    102  OE1       14.2580   36.2530   -4.7660 O.co2 143  GLU143     -0.2457
    103  OE2       13.0540   36.6260   -2.9700 O.co2 143  GLU143     -0.2457
    104  N         13.7280   30.9690   -8.2530 N.3   146  HIS146     -0.1241
    105  CA        13.9300   31.7570   -9.4700 C.3   146  HIS146      0.1621
    106  C         15.0970   31.2110  -10.2950 C.2   146  HIS146      0.2264
    107  O         15.0190   31.1560  -11.5250 O.2   146  HIS146     -0.2867
    108  CB        14.1560   33.2330   -9.1360 C.3   146  HIS146      0.0745
    109  CG        12.8930   34.0090   -8.8820 C.ar  146  HIS146      0.0817
    110  ND1       11.8650   34.0690   -9.7950 N.ar  146  HIS146     -0.2268
    111  CD2       12.5050   34.7750   -7.8330 C.ar  146  HIS146      0.1154
    112  CE1       10.8920   34.8270   -9.3150 C.ar  146  HIS146      0.1986
    113  NE2       11.2450   35.2550   -8.1130 N.ar  146  HIS146     -0.2212
    114  N         10.1570   37.2870  -17.5130 N.3   157  TYR157     -0.1241
    115  CA         9.6510   37.9450  -16.2990 C.3   157  TYR157      0.1605
    116  C          8.7400   39.1370  -16.6200 C.2   157  TYR157      0.2264
    117  O          9.0100   40.2840  -16.2530 O.2   157  TYR157     -0.2867
    118  CB        10.8140   38.3600  -15.4110 C.3   157  TYR157      0.0534
    119  CG        10.4680   38.5270  -13.9490 C.ar  157  TYR157     -0.0201
    120  CD1       10.0070   37.4610  -13.1920 C.ar  157  TYR157     -0.0009
    121  CD2       10.6240   39.7540  -13.3200 C.ar  157  TYR157     -0.0009
    122  CE1        9.7230   37.6010  -11.8490 C.ar  157  TYR157      0.0417
    123  CE2       10.3290   39.9090  -11.9730 C.ar  157  TYR157      0.0417
    124  CZ         9.8890   38.8280  -11.2450 C.ar  157  TYR157      0.1957
    125  OH         9.6030   39.0110   -9.9020 O.3   157  TYR157     -0.2866
    126  N          6.5670   33.9060  -10.9260 N.3   166  GLU166     -0.1245
    127  CA         6.3560   34.2890   -9.5300 C.3   166  GLU166      0.1567
    128  C          5.6320   33.2070   -8.7440 C.2   166  GLU166      0.2260
    129  O          6.0210   32.8950   -7.6060 O.2   166  GLU166     -0.2867
    130  CB         5.5860   35.5990   -9.4460 C.3   166  GLU166      0.0388
    131  CG         6.4740   36.8000   -9.4340 C.3   166  GLU166      0.1160
    132  CD         7.4520   36.7240   -8.2940 C.2   166  GLU166      0.3649
    133  OE1        8.6780   36.7470   -8.5450 O.co2 166  GLU166     -0.2457
    134  OE2        7.0010   36.5800   -7.1470 O.co2 166  GLU166     -0.2457
    135  N          2.9640   34.0910    2.3400 N.3   188  ILE188     -0.1231
    136  CA         4.3230   34.3830    1.8490 C.3   188  ILE188      0.1692
    137  C          4.9620   35.4930    2.6900 C.2   188  ILE188      0.2592
    138  O          4.4610   36.6250    2.7200 O.2   188  ILE188     -0.2718
    139  CB         4.3390   34.7630    0.3580 C.3   188  ILE188      0.0266
    140  CG1        3.6730   33.6720   -0.4870 C.3   188  ILE188      0.0019
    141  CG2        5.7760   35.0390   -0.1030 C.3   188  ILE188      0.0020
    142  CD1        4.3500   32.2830   -0.4020 C.3   188  ILE188      0.0001
    143  N          6.0980   35.1880    3.3280 N.am  189  GLY189     -0.1957
    144  CA         6.9220   36.2120    3.9520 C.3   189  GLY189      0.1869
    145  C          6.5130   36.6320    5.3480 C.2   189  GLY189      0.2309
    146  O          7.0870   37.5870    5.8860 O.2   189  GLY189     -0.2863
    147  N          3.0000   39.1670    3.0870 N.3   202  LEU202     -0.1231
    148  CA         3.1200   39.9140    1.8410 C.3   202  LEU202      0.1693
    149  C          2.0680   39.4670    0.8180 C.2   202  LEU202      0.2591
    150  O          1.4670   40.2980    0.1220 O.2   202  LEU202     -0.2718
    151  CB         4.5360   39.7220    1.3110 C.3   202  LEU202      0.0284
    152  CG         4.8830   40.4040    0.0030 C.3   202  LEU202      0.0019
    153  CD1        4.7980   41.9380    0.1380 C.3   202  LEU202      0.0001
    154  CD2        6.2910   39.9980   -0.4340 C.3   202  LEU202      0.0001
    155  N          1.8480   38.1590    0.7110 N.am  203  ARG203     -0.1980
    156  CA         0.8350   37.5650   -0.1420 C.3   203  ARG203      0.1597
    157  C          0.2340   36.3840    0.5950 C.2   203  ARG203      0.2287
    158  O          0.8440   35.8230    1.5090 O.2   203  ARG203     -0.2864
    159  CB         1.4280   37.0170   -1.4480 C.3   203  ARG203      0.0334
    160  CG         1.8820   38.0740   -2.4300 C.3   203  ARG203      0.0492
    161  CD         2.4760   37.4650   -3.6780 C.3   203  ARG203      0.2205
    162  NE         3.7930   36.8510   -3.4990 N.pl3 203  ARG203     -0.0865
    163  CZ         4.9500   37.5070   -3.5290 C.cat 203  ARG203      0.5346
    164  NH1        6.0880   36.8290   -3.4690 N.pl3 203  ARG203      0.1354
    165  NH2        4.9730   38.8330   -3.6010 N.pl3 203  ARG203      0.1354
    166  N          6.0850   44.9030  -14.0380 N.3   227  ASN227     -0.1240
    167  CA         6.3580   44.0380  -15.1910 C.3   227  ASN227      0.1653
    168  C          5.0740   43.3910  -15.7020 C.2   227  ASN227      0.2266
    169  O          5.0400   42.2180  -16.0880 O.2   227  ASN227     -0.2867
    170  CB         7.4180   42.9870  -14.8630 C.3   227  ASN227      0.1155
    171  CG         8.7910   43.5860  -14.6960 C.2   227  ASN227      0.2627
    172  OD1        9.4130   43.5000  -13.6310 O.2   227  ASN227     -0.2716
    173  ND2        9.2840   44.1800  -15.7580 N.am  227  ASN227     -0.0877
    174  N          3.7530   40.0550   -9.6160 N.3   231  HIS231     -0.1241
    175  CA         3.5150   39.7560   -8.2080 C.3   231  HIS231      0.1621
    176  C          2.0460   39.9020   -7.8270 C.2   231  HIS231      0.2264
    177  O          1.6940   39.7200   -6.6500 O.2   231  HIS231     -0.2867
    178  CB         4.3490   40.6670   -7.2980 C.3   231  HIS231      0.0745
    179  CG         5.8350   40.4970   -7.4450 C.ar  231  HIS231      0.0817
    180  ND1        6.6000   41.2930   -8.2720 N.ar  231  HIS231     -0.2268
    181  CD2        6.7020   39.6510   -6.8410 C.ar  231  HIS231      0.1154
    182  CE1        7.8680   40.9180   -8.2000 C.ar  231  HIS231      0.1986
    183  NE2        7.9590   39.9360   -7.3240 N.ar  231  HIS231     -0.2212
@<TRIPOS>BOND
     1   114   115    1
     2   116   115    1
     3   116   117    2
     4   115   118    1
     5   169   168    2
     6   173   171   am
     7   168   167    1
     8   118   119    1
     9   167   170    1
    10   167   166    1
    11   170   171    1
    12   171   172    2
    13   119   121   ar
    14   119   120   ar
    15   121   123   ar
    16   120   122   ar
    17    58    57    2
    18    56    57    1
    19    56    55    1
    20    50    49    2
    21   123   124   ar
    22   122   124   ar
    23    55    49   am
    24   107   106    2
    25    49    48    1
    26   124   125    1
    27    41    39   ar
    28    41    42   ar
    29   126   127    1
    30    39    38   ar
    31   106   105    1
    32    42    44   ar
    33    42    40   ar
    34    44    46   ar
    35    48    51    1
    36    48    47    1
    37   110   112   ar
    38   110   109   ar
    39    36    35    2
    40   174   175    1
    41   127   130    1
    42   127   128    1
    43   105   108    1
    44   105   104    1
    45   130   131    1
    46   131   132    1
    47    53    52    2
    48    52    51    1
    49    52    54   am
    50   112   113   ar
    51    38    40   ar
    52    38    37    1
    53   108   109    1
    54    47    35   am
    55    35    34    1
    56   109   111   ar
    57    40    43   ar
    58    46    45   ar
    59   128   129    2
    60   133   132   ar
    61   132   134   ar
    62    37    34    1
    63   180   182   ar
    64   180   179   ar
    65   175   176    1
    66   175   178    1
    67   182   183   ar
    68   113   111   ar
    69   176   177    2
    70    34    33    1
    71    45    43   ar
    72   179   178    1
    73   179   181   ar
    74   183   181   ar
    75    29    31   ar
    76    29    27   ar
    77    31    32   ar
    78    33    24   am
    79    26    27    1
    80    26    23    1
    81    98    97    2
    82    27    28   ar
    83    32    30   ar
    84    24    23    1
    85    24    25    2
    86    23    22    1
    87    88    87    2
    88    94    93   ar
    89    94    92   ar
    90    28    30   ar
    91    97    96    1
    92    93    91   ar
    93   102   101   ar
    94    92    90   ar
    95    16    14   am
    96    96    95    1
    97    96    99    1
    98    87    95   am
    99    87    86    1
   100    91    90   ar
   101    22    19   am
   102    20    19    2
   103    90    89    1
   104   161   162    1
   105   161   160    1
   106   165   163    1
   107    99   100    1
   108   101   103   ar
   109   101   100    1
   110   163   162    2
   111   163   164    1
   112    19    18    1
   113    86    89    1
   114    86    85    1
   115    14    15    2
   116    14    13    1
   117   160   159    1
   118    13    10    1
   119    18    17    1
   120    18    21    1
   121    17    11   am
   122   159   156    1
   123    10    11    1
   124    10     9    1
   125    11    12    2
   126    81    80    2
   127   140   142    1
   128   140   139    1
   129   154   152    1
   130   156   157    1
   131   156   155    1
   132   141   139    1
   133     4     3    2
   134   152   153    1
   135   152   151    1
   136     9     3   am
   137   150   149    2
   138   139   136    1
   139    80    79    1
   140     3     2    1
   141   157   158    2
   142   155   149   am
   143   149   148    1
   144    79    78    1
   145    79    82    1
   146    83    82    1
   147     1     2    1
   148   151   148    1
   149     2     5    1
   150     5     6    1
   151   148   147    1
   152   136   135    1
   153   136   137    1
   154    82    84    1
   155    77    75    1
   156    68    69   ar
   157    68    66   ar
   158    69    67   ar
   159   137   138    2
   160   137   143   am
   161     8     6   am
   162     6     7    2
   163    75    74    1
   164    75    76    1
   165    74    71    1
   166    66    64   ar
   167   143   144    1
   168    67    65   ar
   169   144   145    1
   170    73    72    2
   171    64    65   ar
   172    64    63    1
   173    72    71    1
   174    71    70    1
   175    63    60    1
   176   145   146    2
   177    59    60    1
   178    60    61    1
   179    61    62    2
