@<TRIPOS>MOLECULE
tmp/5n2vB00.pdb
 161 153 0 0 0
SMALL
GASTEIGER

@<TRIPOS>ATOM
      1  N         24.3210    3.4460    0.0150 N.3    38  GLU38      -0.1245
      2  CA        23.9310    4.7880   -0.4060 C.3    38  GLU38       0.1567
      3  C         24.8190    5.8460    0.2390 C.2    38  GLU38       0.2260
      4  O         25.1270    6.8700   -0.3800 O.2    38  GLU38      -0.2867
      5  CB        22.4610    5.0380   -0.0710 C.3    38  GLU38       0.0388
      6  CG        21.9030    6.3330   -0.6430 C.3    38  GLU38       0.1160
      7  CD        20.4380    6.5440   -0.3030 C.2    38  GLU38       0.3649
      8  OE1       19.9950    6.0680    0.7650 O.co2  38  GLU38      -0.2457
      9  OE2       19.7300    7.1930   -1.1020 O.co2  38  GLU38      -0.2457
     10  N         27.3680    8.4130   -1.9570 N.3    42  TRP42      -0.1241
     11  CA        27.4980    9.8620   -1.8320 C.3    42  TRP42       0.1605
     12  C         28.9430   10.2590   -1.5590 C.2    42  TRP42       0.2264
     13  O         29.4120   11.2970   -2.0390 O.2    42  TRP42      -0.2867
     14  CB        26.5770   10.3780   -0.7270 C.3    42  TRP42       0.0550
     15  CG        25.1220   10.0940   -0.9750 C.ar   42  TRP42       0.0003
     16  CD1       24.5590    9.6490   -2.1370 C.ar   42  TRP42       0.0946
     17  CD2       24.0480   10.2290   -0.0370 C.ar   42  TRP42       0.0152
     18  NE1       23.2020    9.5010   -1.9810 N.ar   42  TRP42      -0.2442
     19  CE2       22.8630    9.8500   -0.7000 C.ar   42  TRP42       0.0810
     20  CE3       23.9730   10.6330    1.3000 C.ar   42  TRP42       0.0012
     21  CZ2       21.6180    9.8650   -0.0720 C.ar   42  TRP42       0.0191
     22  CZ3       22.7360   10.6480    1.9210 C.ar   42  TRP42       0.0001
     23  CH2       21.5760   10.2670    1.2350 C.ar   42  TRP42       0.0015
     24  N         30.7180    9.7840   -5.0280 N.3    45  GLU45      -0.1231
     25  CA        30.3230   10.8010   -5.9980 C.3    45  GLU45       0.1699
     26  C         30.8620   12.1760   -5.6190 C.2    45  GLU45       0.2592
     27  O         31.4530   12.8730   -6.4520 O.2    45  GLU45      -0.2718
     28  CB        28.8000   10.8330   -6.1250 C.3    45  GLU45       0.0402
     29  CG        28.3060   11.0030   -7.5500 C.3    45  GLU45       0.1161
     30  CD        28.6680    9.8270   -8.4340 C.2    45  GLU45       0.3649
     31  OE1       28.7270    8.6900   -7.9220 O.co2  45  GLU45      -0.2457
     32  OE2       28.9000   10.0390   -9.6410 O.co2  45  GLU45      -0.2457
     33  N         30.6630   12.5860   -4.3650 N.am   46  ASP46      -0.1974
     34  CA        30.9780   13.9550   -3.9680 C.3    46  ASP46       0.1709
     35  C         32.4660   14.1480   -3.6930 C.2    46  ASP46       0.2293
     36  O         33.0310   15.1930   -4.0330 O.2    46  ASP46      -0.2864
     37  CB        30.1630   14.3420   -2.7330 C.3    46  ASP46       0.1436
     38  CG        28.6780   14.0890   -2.9080 C.2    46  ASP46       0.3671
     39  OD1       28.2070   14.0740   -4.0660 O.co2  46  ASP46      -0.2456
     40  OD2       27.9840   13.9000   -1.8850 O.co2  46  ASP46      -0.2456
     41  N         12.9170    1.3250    1.1700 N.3    92  LYS92      -0.1245
     42  CA        13.1190    2.7380    1.4830 C.3    92  LYS92       0.1561
     43  C         11.8650    3.5560    1.2040 C.2    92  LYS92       0.2260
     44  O         11.5480    4.4870    1.9530 O.2    92  LYS92      -0.2867
     45  CB        14.3040    3.2960    0.6950 C.3    92  LYS92       0.0271
     46  CG        14.6440    4.7330    1.0670 C.3    92  LYS92       0.0035
     47  CD        15.9870    5.1810    0.5160 C.3    92  LYS92       0.0206
     48  CE        15.8550    5.7350   -0.8900 C.3    92  LYS92       0.1093
     49  NZ        17.1520    6.2600   -1.4010 N.3    92  LYS92      -0.1314
     50  N          7.9670    9.4500    6.6680 N.3    97  VAL97      -0.1245
     51  CA         8.6200   10.7260    6.4020 C.3    97  VAL97       0.1561
     52  C          7.8930   11.8050    7.1900 C.2    97  VAL97       0.2260
     53  O          6.6660   11.9220    7.1030 O.2    97  VAL97      -0.2867
     54  CB         8.6260   11.0550    4.8970 C.3    97  VAL97       0.0252
     55  CG1        9.1360   12.4680    4.6610 C.3    97  VAL97       0.0019
     56  CG2        9.4670   10.0420    4.1390 C.3    97  VAL97       0.0019
     57  N         19.5610   18.7710   -7.8390 N.3   117  LYS117     -0.1245
     58  CA        19.5020   18.7870   -9.2940 C.3   117  LYS117      0.1561
     59  C         18.4130   19.7430   -9.7640 C.2   117  LYS117      0.2260
     60  O         17.3230   19.8000   -9.1870 O.2   117  LYS117     -0.2867
     61  CB        19.2400   17.3770   -9.8260 C.3   117  LYS117      0.0271
     62  CG        20.2120   16.3280   -9.3030 C.3   117  LYS117      0.0035
     63  CD        19.8100   14.9230   -9.7280 C.3   117  LYS117      0.0206
     64  CE        20.8180   13.8900   -9.2410 C.3   117  LYS117      0.1093
     65  NZ        20.4470   12.5060   -9.6480 N.3   117  LYS117     -0.1314
     66  N         10.9580   17.9390    4.5010 N.3   126  LYS126     -0.1231
     67  CA        10.5730   16.6690    5.0980 C.3   126  LYS126      0.1693
     68  C         11.6850   15.6570    4.8710 C.2   126  LYS126      0.2593
     69  O         12.5090   15.8010    3.9640 O.2   126  LYS126     -0.2718
     70  CB         9.2560   16.1520    4.5110 C.3   126  LYS126      0.0285
     71  CG         9.3240   15.8690    3.0190 C.3   126  LYS126      0.0035
     72  CD         7.9660   15.4970    2.4560 C.3   126  LYS126      0.0206
     73  CE         8.0050   15.4090    0.9410 C.3   126  LYS126      0.1093
     74  NZ         8.0210   16.7540    0.3070 N.3   126  LYS126     -0.1314
     75  N         11.6990   14.6250    5.7090 N.am  127  GLY127     -0.1942
     76  CA        12.7080   13.5920    5.5870 C.3   127  GLY127      0.2014
     77  C         12.3140   12.3190    6.2970 C.2   127  GLY127      0.2638
     78  O         11.4040   12.3000    7.1320 O.2   127  GLY127     -0.2714
     79  N         13.0240   11.2470    5.9550 N.am  128  LYS128     -0.1977
     80  CA        12.7170    9.9310    6.4960 C.3   128  LYS128      0.1596
     81  C         13.1340    9.8290    7.9600 C.2   128  LYS128      0.2287
     82  O         14.0700   10.4930    8.4150 O.2   128  LYS128     -0.2864
     83  CB        13.4030    8.8450    5.6670 C.3   128  LYS128      0.0298
     84  CG        12.9950    8.8540    4.2000 C.3   128  LYS128      0.0038
     85  CD        13.9290    8.0210    3.3440 C.3   128  LYS128      0.0206
     86  CE        13.5540    8.1210    1.8750 C.3   128  LYS128      0.1093
     87  NZ        13.8880    9.4490    1.2970 N.3   128  LYS128     -0.1314
     88  N         14.3480   17.2200   13.3700 N.3   141  ARG141     -0.1231
     89  CA        15.6660   16.8820   12.8390 C.3   141  ARG141      0.1694
     90  C         15.7900   17.2540   11.3670 C.2   141  ARG141      0.2591
     91  O         16.8120   17.8040   10.9440 O.2   141  ARG141     -0.2718
     92  CB        15.9470   15.3910   13.0230 C.3   141  ARG141      0.0321
     93  CG        17.2800   14.9500   12.4350 C.3   141  ARG141      0.0489
     94  CD        17.4140   13.4380   12.4020 C.3   141  ARG141      0.2205
     95  NE        16.7470   12.8630   11.2370 N.pl3 141  ARG141     -0.0865
     96  CZ        17.3120   12.7270   10.0400 C.cat 141  ARG141      0.5346
     97  NH1       18.5600   13.1300    9.8400 N.pl3 141  ARG141      0.1354
     98  NH2       16.6270   12.1930    9.0390 N.pl3 141  ARG141      0.1354
     99  N         14.7570   16.9690   10.5730 N.am  142  GLU142     -0.1979
    100  CA        14.8340   17.1580    9.1300 C.3   142  GLU142      0.1602
    101  C         14.5010   18.5760    8.6880 C.2   142  GLU142      0.2287
    102  O         15.0470   19.0430    7.6820 O.2   142  GLU142     -0.2864
    103  CB        13.9090   16.1660    8.4220 C.3   142  GLU142      0.0415
    104  CG        14.4590   14.7520    8.3860 C.3   142  GLU142      0.1163
    105  CD        15.4520   14.5520    7.2570 C.2   142  GLU142      0.3649
    106  OE1       15.4550   15.3770    6.3170 O.co2 142  GLU142     -0.2457
    107  OE2       16.2260   13.5730    7.3040 O.co2 142  GLU142     -0.2457
    108  N         17.5100   20.1130    9.3520 N.3   145  GLU145     -0.1231
    109  CA        18.4850   19.5950    8.4000 C.3   145  GLU145      0.1699
    110  C         18.3770   20.3070    7.0560 C.2   145  GLU145      0.2592
    111  O         19.3950   20.6420    6.4390 O.2   145  GLU145     -0.2718
    112  CB        18.2870   18.0880    8.2260 C.3   145  GLU145      0.0402
    113  CG        19.4550   17.3570    7.5900 C.3   145  GLU145      0.1161
    114  CD        19.2160   15.8610    7.4710 C.2   145  GLU145      0.3649
    115  OE1       18.7380   15.2550    8.4550 O.co2 145  GLU145     -0.2457
    116  OE2       19.5060   15.2940    6.3940 O.co2 145  GLU145     -0.2457
    117  N         17.1520   20.5590    6.5920 N.am  146  GLU146     -0.1979
    118  CA        16.9270   21.0520    5.2400 C.3   146  GLU146      0.1602
    119  C         16.7160   22.5590    5.1560 C.2   146  GLU146      0.2287
    120  O         16.8700   23.1230    4.0670 O.2   146  GLU146     -0.2864
    121  CB        15.7250   20.3310    4.6160 C.3   146  GLU146      0.0415
    122  CG        15.9150   18.8210    4.5400 C.3   146  GLU146      0.1163
    123  CD        14.7850   18.1070    3.8260 C.2   146  GLU146      0.3649
    124  OE1       13.8100   18.7770    3.4250 O.co2 146  GLU146     -0.2457
    125  OE2       14.8760   16.8690    3.6710 O.co2 146  GLU146     -0.2457
    126  N         23.0490   20.1630    4.7310 N.3   188  THR188     -0.1203
    127  CA        23.3740   18.8830    4.1180 C.3   188  THR188      0.1994
    128  C         24.4300   19.0880    3.0400 C.2   188  THR188      0.2618
    129  O         24.7610   20.2170    2.6690 O.2   188  THR188     -0.2717
    130  CB        22.1290   18.2210    3.5110 C.3   188  THR188      0.1784
    131  OG1       21.6150   19.0410    2.4550 O.3   188  THR188     -0.2211
    132  CG2       21.0570   18.0430    4.5620 C.3   188  THR188      0.0376
    133  N         24.9600   17.9750    2.5260 N.am  189  ARG189     -0.1965
    134  CA        25.9730   18.0620    1.4810 C.3   189  ARG189      0.1729
    135  C         25.3680   18.2510    0.0960 C.2   189  ARG189      0.2616
    136  O         26.0560   18.7470   -0.8030 O.2   189  ARG189     -0.2715
    137  CB        26.8620   16.8160    1.4850 C.3   189  ARG189      0.0348
    138  CG        28.3210   17.1240    1.1800 C.3   189  ARG189      0.0492
    139  CD        29.1240   15.8850    0.8060 C.3   189  ARG189      0.2205
    140  NE        29.0410   14.8190    1.8010 N.pl3 189  ARG189     -0.0865
    141  CZ        28.6360   13.5820    1.5320 C.cat 189  ARG189      0.5346
    142  NH1       28.5860   12.6700    2.4940 N.pl3 189  ARG189      0.1354
    143  NH2       28.2840   13.2550    0.2950 N.pl3 189  ARG189      0.1354
    144  N         24.1080   17.8620   -0.0940 N.am  190  LYS190     -0.1963
    145  CA        23.3730   18.1330   -1.3250 C.3   190  LYS190      0.1728
    146  C         21.8920   18.2720   -1.0020 C.2   190  LYS190      0.2616
    147  O         21.5210   19.0210   -0.0920 O.2   190  LYS190     -0.2715
    148  CB        23.6040   17.0270   -2.3600 C.3   190  LYS190      0.0311
    149  CG        24.7090   17.3330   -3.3610 C.3   190  LYS190      0.0038
    150  CD        24.6920   16.3570   -4.5280 C.3   190  LYS190      0.0206
    151  CE        25.8690   16.5940   -5.4600 C.3   190  LYS190      0.1093
    152  NZ        25.8110   15.7440   -6.6810 N.3   190  LYS190     -0.1314
    153  N         21.0400   17.5760   -1.7600 N.am  191  GLU191     -0.1977
    154  CA        19.6440   17.3480   -1.3900 C.3   191  GLU191      0.1602
    155  C         18.7860   18.6110   -1.4200 C.2   191  GLU191      0.2287
    156  O         17.6130   18.5520   -1.8040 O.2   191  GLU191     -0.2864
    157  CB        19.5860   16.6910   -0.0050 C.3   191  GLU191      0.0415
    158  CG        18.2060   16.5890    0.6190 C.3   191  GLU191      0.1163
    159  CD        18.2450   15.9400    1.9890 C.2   191  GLU191      0.3649
    160  OE1       19.3600   15.6740    2.4880 O.co2 191  GLU191     -0.2457
    161  OE2       17.1620   15.6880    2.5600 O.co2 191  GLU191     -0.2457
@<TRIPOS>BOND
     1    61    62    1
     2    61    58    1
     3    59    58    1
     4    59    60    2
     5    63    62    1
     6    63    64    1
     7    65    64    1
     8    32    30   ar
     9    58    57    1
    10    30    31   ar
    11    30    29    1
    12    29    28    1
    13   152   151    1
    14    27    26    2
    15    28    25    1
    16    25    26    1
    17    25    24    1
    18    26    33   am
    19   151   150    1
    20   150   149    1
    21    33    34    1
    22    39    38   ar
    23    36    35    2
    24    34    35    1
    25    34    37    1
    26   149   148    1
    27    38    37    1
    28    38    40   ar
    29   148   145    1
    30    16    18   ar
    31    16    15   ar
    32    13    12    2
    33    18    19   ar
    34    10    11    1
    35    11    12    1
    36    11    14    1
    37   156   155    2
    38   153   154    1
    39   153   146   am
    40   155   154    1
    41    49    48    1
    42   154   157    1
    43   145   146    1
    44   145   144    1
    45     9     7   ar
    46   146   147    2
    47    15    14    1
    48    15    17   ar
    49    48    47    1
    50   136   135    2
    51    19    21   ar
    52    19    17   ar
    53     6     7    1
    54     6     5    1
    55     2     5    1
    56     2     1    1
    57     2     3    1
    58     4     3    2
    59     7     8   ar
    60   144   135   am
    61    21    23   ar
    62    17    20   ar
    63   157   158    1
    64   135   134    1
    65   143   141    1
    66    74    73    1
    67    47    46    1
    68   158   159    1
    69    45    46    1
    70    45    42    1
    71   139   138    1
    72   139   140    1
    73    73    72    1
    74    41    42    1
    75   138   137    1
    76    43    42    1
    77    43    44    2
    78    23    22   ar
    79    87    86    1
    80    20    22   ar
    81   134   137    1
    82   134   133    1
    83   141   140    2
    84   141   142    1
    85    86    85    1
    86   159   160   ar
    87   159   161   ar
    88   131   130    1
    89    72    71    1
    90   133   128   am
    91   129   128    2
    92    71    70    1
    93   128   127    1
    94    85    84    1
    95   124   123   ar
    96   130   127    1
    97   130   132    1
    98   125   123   ar
    99   123   122    1
   100    69    68    2
   101   120   119    2
   102   127   126    1
   103    56    54    1
   104    84    83    1
   105    66    67    1
   106    70    67    1
   107   122   121    1
   108   121   118    1
   109    55    54    1
   110    68    67    1
   111    68    75   am
   112    54    51    1
   113   119   118    1
   114   118   117    1
   115    76    75    1
   116    76    77    1
   117    83    80    1
   118    79    77   am
   119    79    80    1
   120    77    78    2
   121   106   105   ar
   122   116   114   ar
   123    51    50    1
   124    51    52    1
   125   111   110    2
   126    80    81    1
   127   117   110   am
   128   110   109    1
   129    53    52    2
   130   105   107   ar
   131   105   104    1
   132   114   113    1
   133   114   115   ar
   134   113   112    1
   135   102   101    2
   136    81    82    2
   137   112   109    1
   138   104   103    1
   139   109   108    1
   140   103   100    1
   141   101   100    1
   142    98    96    1
   143   100    99    1
   144    97    96    1
   145    96    95    2
   146    99    90   am
   147    91    90    2
   148    95    94    1
   149    90    89    1
   150    94    93    1
   151    93    92    1
   152    89    92    1
   153    89    88    1
