@<TRIPOS>MOLECULE
tmp/5n32A00.pdb
 127 119 0 0 0
SMALL
GASTEIGER

@<TRIPOS>ATOM
      1  N        -15.7270   29.6000  -30.8320 N.3    47  LEU47      -0.1231
      2  CA       -14.9210   29.7790  -29.6320 C.3    47  LEU47       0.1693
      3  C        -13.5040   29.2410  -29.7660 C.2    47  LEU47       0.2592
      4  O        -12.6690   29.5370  -28.9070 O.2    47  LEU47      -0.2718
      5  CB       -15.5860   29.0870  -28.4380 C.3    47  LEU47       0.0284
      6  CG       -16.9710   29.5740  -28.0190 C.3    47  LEU47       0.0019
      7  CD1      -17.5390   28.6300  -26.9740 C.3    47  LEU47       0.0001
      8  CD2      -16.9070   30.9940  -27.4910 C.3    47  LEU47       0.0001
      9  N        -13.2260   28.4350  -30.7880 N.am   48  GLY48      -0.1957
     10  CA       -11.9230   27.8210  -30.9660 C.3    48  GLY48       0.1869
     11  C        -11.9090   26.9150  -32.1830 C.2    48  GLY48       0.2309
     12  O        -12.9600   26.3990  -32.5800 O.2    48  GLY48      -0.2863
     13  N        -15.0800   24.4230  -32.0340 N.3    54  VAL54      -0.1245
     14  CA       -15.9950   24.5230  -30.9020 C.3    54  VAL54       0.1561
     15  C        -16.7940   25.8040  -31.0700 C.2    54  VAL54       0.2260
     16  O        -16.2190   26.8890  -31.2260 O.2    54  VAL54      -0.2867
     17  CB       -15.2570   24.5070  -29.5550 C.3    54  VAL54       0.0252
     18  CG1      -16.2610   24.6700  -28.3980 C.3    54  VAL54       0.0019
     19  CG2      -14.4640   23.2140  -29.3970 C.3    54  VAL54       0.0019
     20  N        -21.2560   24.9060  -25.2510 N.3    67  ALA67      -0.1245
     21  CA       -20.1580   24.8370  -26.2040 C.3    67  ALA67       0.1562
     22  C        -20.3390   23.5640  -27.0200 C.2    67  ALA67       0.2260
     23  O        -20.4150   22.4690  -26.4550 O.2    67  ALA67      -0.2867
     24  CB       -18.8040   24.8450  -25.4950 C.3    67  ALA67       0.0290
     25  N        -14.8910   19.4800  -17.6850 N.3   101  VAL101     -0.1245
     26  CA       -16.0910   19.9860  -18.3310 C.3   101  VAL101      0.1561
     27  C        -17.0720   18.8380  -18.5100 C.2   101  VAL101      0.2260
     28  O        -16.6830   17.6920  -18.7760 O.2   101  VAL101     -0.2867
     29  CB       -15.7540   20.6550  -19.6740 C.3   101  VAL101      0.0252
     30  CG1      -15.1920   19.6350  -20.6520 C.3   101  VAL101      0.0019
     31  CG2      -16.9940   21.3340  -20.2440 C.3   101  VAL101      0.0019
     32  N        -21.2170   20.5030  -24.6860 N.3   117  MET117     -0.1230
     33  CA       -20.6670   20.5940  -23.3470 C.3   117  MET117      0.1702
     34  C        -21.1850   21.8440  -22.6540 C.2   117  MET117      0.2592
     35  O        -21.6220   22.8030  -23.2960 O.2   117  MET117     -0.2718
     36  CB       -19.1370   20.6580  -23.3810 C.3   117  MET117      0.0401
     37  CG       -18.4580   19.5320  -24.1220 C.3   117  MET117      0.0596
     38  SD       -16.7480   19.9860  -24.4660 S.3   117  MET117     -0.1393
     39  CE       -16.9630   21.0350  -25.9020 C.3   117  MET117      0.0692
     40  N        -21.0990   21.8280  -21.3270 N.am  118  GLU118     -0.1966
     41  CA       -21.3490   23.0290  -20.5410 C.3   118  GLU118      0.1733
     42  C        -20.4430   24.1600  -21.0100 C.2   118  GLU118      0.2616
     43  O        -19.2480   23.9650  -21.2530 O.2   118  GLU118     -0.2715
     44  CB       -21.1070   22.7380  -19.0570 C.3   118  GLU118      0.0429
     45  CG       -21.4020   23.8980  -18.1230 C.3   118  GLU118      0.1163
     46  CD       -21.0520   23.5830  -16.6750 C.2   118  GLU118      0.3649
     47  OE1      -20.3970   24.4210  -16.0190 O.co2 118  GLU118     -0.2457
     48  OE2      -21.4280   22.4930  -16.1960 O.co2 118  GLU118     -0.2457
     49  N        -21.0170   25.3500  -21.1450 N.am  119  TYR119     -0.1960
     50  CA       -20.2450   26.5140  -21.5580 C.3   119  TYR119      0.1771
     51  C        -19.5440   27.1210  -20.3520 C.2   119  TYR119      0.2619
     52  O        -20.1790   27.4130  -19.3360 O.2   119  TYR119     -0.2715
     53  CB       -21.1460   27.5500  -22.2260 C.3   119  TYR119      0.0574
     54  CG       -20.4180   28.8130  -22.6360 C.ar  119  TYR119     -0.0198
     55  CD1      -19.2190   28.7530  -23.3350 C.ar  119  TYR119     -0.0009
     56  CD2      -20.9370   30.0620  -22.3400 C.ar  119  TYR119     -0.0009
     57  CE1      -18.5580   29.8970  -23.7170 C.ar  119  TYR119      0.0417
     58  CE2      -20.2810   31.2120  -22.7160 C.ar  119  TYR119      0.0417
     59  CZ       -19.0900   31.1240  -23.4030 C.ar  119  TYR119      0.1957
     60  OH       -18.4270   32.2720  -23.7890 O.3   119  TYR119     -0.2866
     61  N        -18.2310   27.2920  -20.4640 N.am  120  VAL120     -0.1977
     62  CA       -17.4170   27.8750  -19.4040 C.3   120  VAL120      0.1596
     63  C        -16.9760   29.2490  -19.8990 C.2   120  VAL120      0.2287
     64  O        -16.0750   29.3370  -20.7470 O.2   120  VAL120     -0.2864
     65  CB       -16.2220   26.9750  -19.0540 C.3   120  VAL120      0.0276
     66  CG1      -15.4140   27.5700  -17.8920 C.3   120  VAL120      0.0022
     67  CG2      -16.7050   25.5710  -18.7110 C.3   120  VAL120      0.0022
     68  N         -9.9890   30.6710  -21.8340 N.3   124  GLU124     -0.1245
     69  CA        -8.8670   29.7580  -21.6560 C.3   124  GLU124      0.1567
     70  C         -7.8120   30.3720  -20.7440 C.2   124  GLU124      0.2260
     71  O         -7.5470   31.5770  -20.7940 O.2   124  GLU124     -0.2867
     72  CB        -8.2240   29.4260  -23.0020 C.3   124  GLU124      0.0388
     73  CG        -9.1700   28.8470  -24.0320 C.3   124  GLU124      0.1160
     74  CD        -8.5140   28.6810  -25.4030 C.2   124  GLU124      0.3649
     75  OE1       -7.3610   29.1360  -25.5770 O.co2 124  GLU124     -0.2457
     76  OE2       -9.1570   28.0950  -26.3020 O.co2 124  GLU124     -0.2457
     77  N         -4.0990   26.0210  -23.2690 N.3   167  GLU167     -0.1231
     78  CA        -5.1800   26.1240  -24.2470 C.3   167  GLU167      0.1699
     79  C         -6.3910   25.2790  -23.8650 C.2   167  GLU167      0.2592
     80  O         -7.5110   25.5810  -24.2950 O.2   167  GLU167     -0.2718
     81  CB        -4.6860   25.6890  -25.6240 C.3   167  GLU167      0.0402
     82  CG        -3.6690   26.6210  -26.2680 C.3   167  GLU167      0.1161
     83  CD        -2.2200   26.2760  -25.9500 C.2   167  GLU167      0.3649
     84  OE1       -1.9100   25.9000  -24.7930 O.co2 167  GLU167     -0.2457
     85  OE2       -1.3780   26.3910  -26.8650 O.co2 167  GLU167     -0.2457
     86  N         -6.1880   24.2010  -23.1090 N.am  168  ASN168     -0.1974
     87  CA        -7.2450   23.2480  -22.7950 C.3   168  ASN168      0.1688
     88  C         -7.7930   23.4190  -21.3850 C.2   168  ASN168      0.2292
     89  O         -8.5630   22.5730  -20.9280 O.2   168  ASN168     -0.2864
     90  CB        -6.7300   21.8170  -22.9670 C.3   168  ASN168      0.1181
     91  CG        -6.6370   21.4010  -24.4160 C.2   168  ASN168      0.2629
     92  OD1       -7.1750   22.0670  -25.2950 O.2   168  ASN168     -0.2716
     93  ND2       -5.9830   20.2700  -24.6700 N.am  168  ASN168     -0.0877
     94  N         -9.9870   25.8260  -19.0530 N.3   170  LEU170     -0.1245
     95  CA       -10.9250   26.9300  -18.9890 C.3   170  LEU170      0.1561
     96  C        -11.0950   27.3740  -17.5420 C.2   170  LEU170      0.2260
     97  O        -10.9700   26.5780  -16.6100 O.2   170  LEU170     -0.2867
     98  CB       -12.2770   26.5220  -19.5750 C.3   170  LEU170      0.0270
     99  CG       -12.2330   25.9580  -20.9880 C.3   170  LEU170      0.0019
    100  CD1      -13.5970   25.4300  -21.3840 C.3   170  LEU170      0.0001
    101  CD2      -11.7520   27.0230  -21.9610 C.3   170  LEU170      0.0001
    102  N        -10.9130   20.7490  -20.6820 N.3   180  THR180     -0.1203
    103  CA       -11.6870   20.4230  -21.8620 C.3   180  THR180      0.1994
    104  C        -10.7970   19.7310  -22.8910 C.2   180  THR180      0.2617
    105  O         -9.5710   19.6810  -22.7640 O.2   180  THR180     -0.2717
    106  CB       -12.3280   21.6770  -22.4660 C.3   180  THR180      0.1784
    107  OG1      -13.2310   21.2850  -23.5020 O.3   180  THR180     -0.2211
    108  CG2      -11.2700   22.6180  -23.0440 C.3   180  THR180      0.0376
    109  N        -11.4480   19.1980  -23.9200 N.am  181  ASP181     -0.1973
    110  CA       -10.7900   18.5010  -25.0170 C.3   181  ASP181      0.1709
    111  C        -10.1830   17.1860  -24.5540 C.2   181  ASP181      0.2293
    112  O         -9.0140   17.1300  -24.1540 O.2   181  ASP181     -0.2864
    113  CB        -9.7060   19.3650  -25.6580 C.3   181  ASP181      0.1436
    114  CG        -9.2660   18.8260  -27.0190 C.2   181  ASP181      0.3671
    115  OD1       -8.6110   19.5730  -27.7780 O.co2 181  ASP181     -0.2456
    116  OD2       -9.5860   17.6560  -27.3300 O.co2 181  ASP181     -0.2456
    117  N        -13.0780   35.2720  -24.6690 N.3   323  PHE323     -0.1241
    118  CA       -12.5080   34.4520  -25.7280 C.3   323  PHE323      0.1605
    119  C        -12.0440   35.3230  -26.8910 C.2   323  PHE323      0.2264
    120  O        -12.6190   36.3810  -27.1660 O.2   323  PHE323     -0.2867
    121  CB       -13.5220   33.4270  -26.2420 C.3   323  PHE323      0.0534
    122  CG       -13.8900   32.3750  -25.2290 C.ar  323  PHE323     -0.0203
    123  CD1      -13.1770   31.1880  -25.1550 C.ar  323  PHE323     -0.0042
    124  CD2      -14.9480   32.5710  -24.3540 C.ar  323  PHE323     -0.0042
    125  CE1      -13.5100   30.2180  -24.2240 C.ar  323  PHE323     -0.0003
    126  CE2      -15.2840   31.6050  -23.4190 C.ar  323  PHE323     -0.0003
    127  CZ       -14.5650   30.4270  -23.3550 C.ar  323  PHE323     -0.0000
@<TRIPOS>BOND
     1    12    11    2
     2    11    10    1
     3    13    14    1
     4    16    15    2
     5    15    14    1
     6    10     9    1
     7    14    17    1
     8     1     2    1
     9     9     3   am
    10     3     2    1
    11     3     4    2
    12     2     5    1
    13    17    19    1
    14    17    18    1
    15     5     6    1
    16     6     8    1
    17     6     7    1
    18   115   114   ar
    19   116   114   ar
    20   120   119    2
    21    22    23    2
    22    22    21    1
    23   114   113    1
    24   119   118    1
    25    85    83   ar
    26    76    74   ar
    27    82    83    1
    28    82    81    1
    29   121   118    1
    30   121   122    1
    31    21    24    1
    32    21    20    1
    33    83    84   ar
    34    39    38    1
    35   118   117    1
    36   113   110    1
    37    81    78    1
    38    75    74   ar
    39    74    73    1
    40    92    91    2
    41   122   123   ar
    42   122   124   ar
    43   123   125   ar
    44   110   111    1
    45   110   109    1
    46    32    33    1
    47    93    91   am
    48   111   112    2
    49    38    37    1
    50    91    90    1
    51   124   126   ar
    52    80    79    2
    53    78    79    1
    54    78    77    1
    55   125   127   ar
    56    37    36    1
    57    73    72    1
    58   109   104   am
    59    79    86   am
    60    60    59    1
    61    57    59   ar
    62    57    55   ar
    63   107   106    1
    64   126   127   ar
    65    59    58   ar
    66    36    33    1
    67    33    34    1
    68    55    54   ar
    69    35    34    2
    70    86    87    1
    71   108   106    1
    72    72    69    1
    73    90    87    1
    74   104   105    2
    75   104   103    1
    76    87    88    1
    77    58    56   ar
    78    34    40   am
    79    54    56   ar
    80    54    53    1
    81   106   103    1
    82    53    50    1
    83   101    99    1
    84   103   102    1
    85    68    69    1
    86    69    70    1
    87    50    49    1
    88    50    51    1
    89    88    89    2
    90   100    99    1
    91    40    41    1
    92    43    42    2
    93    49    42   am
    94    42    41    1
    95    99    98    1
    96    71    70    2
    97    64    63    2
    98    30    29    1
    99    41    44    1
   100    61    51   am
   101    61    62    1
   102    51    52    2
   103    31    29    1
   104    63    62    1
   105    29    26    1
   106    98    95    1
   107    62    65    1
   108    44    45    1
   109    65    67    1
   110    65    66    1
   111    94    95    1
   112    95    96    1
   113    28    27    2
   114    27    26    1
   115    26    25    1
   116    45    46    1
   117    96    97    2
   118    46    48   ar
   119    46    47   ar
