@<TRIPOS>MOLECULE
tmp/5n33A01.pdb
 124 115 0 0 0
SMALL
GASTEIGER

@<TRIPOS>ATOM
      1  N        -15.7390   29.9770  -30.8420 N.3    49  LEU49      -0.1245
      2  CA       -14.9240   30.1460  -29.6410 C.3    49  LEU49       0.1561
      3  C        -13.5190   29.5840  -29.7790 C.2    49  LEU49       0.2260
      4  O        -12.6630   29.8680  -28.9270 O.2    49  LEU49      -0.2867
      5  CB       -15.5860   29.4360  -28.4550 C.3    49  LEU49       0.0270
      6  CG       -16.9670   29.9180  -28.0360 C.3    49  LEU49       0.0019
      7  CD1      -17.6020   28.9460  -27.0250 C.3    49  LEU49       0.0001
      8  CD2      -16.9010   31.3250  -27.4630 C.3    49  LEU49       0.0001
      9  N        -15.1530   24.9560  -32.2020 N.3    57  VAL57      -0.1245
     10  CA       -16.0730   25.0050  -31.0790 C.3    57  VAL57       0.1561
     11  C        -16.8810   26.2800  -31.2160 C.2    57  VAL57       0.2260
     12  O        -16.3150   27.3600  -31.4320 O.2    57  VAL57      -0.2867
     13  CB       -15.3210   24.9820  -29.7410 C.3    57  VAL57       0.0252
     14  CG1      -16.3100   25.1000  -28.5640 C.3    57  VAL57       0.0019
     15  CG2      -14.5170   23.7200  -29.6270 C.3    57  VAL57       0.0019
     16  N        -21.1740   25.1100  -25.2870 N.3    70  ALA70      -0.1245
     17  CA       -20.0770   25.0800  -26.2480 C.3    70  ALA70       0.1562
     18  C        -20.1990   23.7950  -27.0650 C.2    70  ALA70       0.2260
     19  O        -20.1360   22.6960  -26.5110 O.2    70  ALA70      -0.2867
     20  CB       -18.7300   25.1430  -25.5250 C.3    70  ALA70       0.0290
     21  N        -18.6800   21.4150  -29.8990 N.3    72  LYS72      -0.1245
     22  CA       -17.5420   20.9990  -30.7060 C.3    72  LYS72       0.1561
     23  C        -18.0680   20.2810  -31.9440 C.2    72  LYS72       0.2260
     24  O        -18.8900   19.3650  -31.8330 O.2    72  LYS72      -0.2867
     25  CB       -16.6360   20.0880  -29.8690 C.3    72  LYS72       0.0271
     26  CG       -15.3720   19.6350  -30.5630 C.3    72  LYS72       0.0035
     27  CD       -14.4470   18.8820  -29.5890 C.3    72  LYS72       0.0206
     28  CE       -13.1610   18.4590  -30.2310 C.3    72  LYS72       0.1093
     29  NZ       -12.2390   17.9580  -29.1770 N.3    72  LYS72      -0.1314
     30  N        -12.9190   10.2090  -26.9980 N.3    91  GLU91      -0.1245
     31  CA       -13.3230   11.4610  -26.3630 C.3    91  GLU91       0.1567
     32  C        -14.7720   11.4110  -25.9030 C.2    91  GLU91       0.2260
     33  O        -15.0810   11.7720  -24.7630 O.2    91  GLU91      -0.2867
     34  CB       -13.0950   12.6740  -27.2720 C.3    91  GLU91       0.0388
     35  CG       -13.7520   13.9380  -26.6590 C.3    91  GLU91       0.1160
     36  CD       -13.2580   15.2630  -27.1940 C.2    91  GLU91       0.3649
     37  OE1      -13.0630   15.3600  -28.4170 O.co2  91  GLU91      -0.2457
     38  OE2      -13.0840   16.2160  -26.3660 O.co2  91  GLU91      -0.2457
     39  N        -14.7840   19.2140  -17.7930 N.3   104  VAL104     -0.1245
     40  CA       -15.9430   19.7710  -18.4740 C.3   104  VAL104      0.1561
     41  C        -17.0130   18.6980  -18.6530 C.2   104  VAL104      0.2260
     42  O        -16.7250   17.5290  -18.9500 O.2   104  VAL104     -0.2867
     43  CB       -15.5100   20.4020  -19.8080 C.3   104  VAL104      0.0252
     44  CG1      -15.1430   19.3280  -20.8800 C.3   104  VAL104      0.0019
     45  CG2      -16.5930   21.3340  -20.3540 C.3   104  VAL104      0.0019
     46  N        -21.1080   20.7170  -24.8430 N.3   120  MET120     -0.1230
     47  CA       -20.5480   20.7210  -23.5000 C.3   120  MET120      0.1702
     48  C        -20.8410   22.0400  -22.7910 C.2   120  MET120      0.2592
     49  O        -21.2250   23.0430  -23.3980 O.2   120  MET120     -0.2718
     50  CB       -19.0340   20.4850  -23.5520 C.3   120  MET120      0.0401
     51  CG       -18.6760   19.0890  -23.9980 C.3   120  MET120      0.0596
     52  SD       -16.9960   18.9570  -24.5940 S.3   120  MET120     -0.1393
     53  CE       -17.1710   19.7150  -26.2060 C.3   120  MET120      0.0692
     54  N        -20.6280   22.0270  -21.4760 N.am  121  GLU121     -0.1966
     55  CA       -20.8270   23.2180  -20.6640 C.3   121  GLU121      0.1733
     56  C        -19.9760   24.3760  -21.1910 C.2   121  GLU121      0.2616
     57  O        -18.7950   24.2060  -21.5000 O.2   121  GLU121     -0.2715
     58  CB       -20.4470   22.8870  -19.2230 C.3   121  GLU121      0.0429
     59  CG       -20.8940   23.8990  -18.2100 C.3   121  GLU121      0.1163
     60  CD       -21.2280   23.2720  -16.8710 C.2   121  GLU121      0.3649
     61  OE1      -20.3320   23.2010  -16.0050 O.co2 121  GLU121     -0.2457
     62  OE2      -22.3930   22.8550  -16.6830 O.co2 121  GLU121     -0.2457
     63  N        -20.5960   25.5510  -21.3110 N.am  122  TYR122     -0.1960
     64  CA       -19.8970   26.7660  -21.6940 C.3   122  TYR122      0.1771
     65  C        -19.2570   27.3610  -20.4470 C.2   122  TYR122      0.2619
     66  O        -19.9070   27.4970  -19.3960 O.2   122  TYR122     -0.2715
     67  CB       -20.8750   27.7650  -22.3200 C.3   122  TYR122      0.0574
     68  CG       -20.2540   29.0940  -22.6850 C.ar  122  TYR122     -0.0198
     69  CD1      -19.0660   29.1610  -23.3960 C.ar  122  TYR122     -0.0009
     70  CD2      -20.8590   30.2880  -22.3030 C.ar  122  TYR122     -0.0009
     71  CE1      -18.5110   30.3670  -23.7270 C.ar  122  TYR122      0.0417
     72  CE2      -20.3140   31.4990  -22.6270 C.ar  122  TYR122      0.0417
     73  CZ       -19.1190   31.5390  -23.3380 C.ar  122  TYR122      0.1957
     74  OH       -18.5270   32.7410  -23.6820 O.3   122  TYR122     -0.2866
     75  N        -17.9740   27.6900  -20.5670 N.am  123  VAL123     -0.1977
     76  CA       -17.1860   28.2440  -19.4690 C.3   123  VAL123      0.1596
     77  C        -16.7930   29.6680  -19.8490 C.2   123  VAL123      0.2287
     78  O        -15.8000   29.8750  -20.5570 O.2   123  VAL123     -0.2864
     79  CB       -15.9680   27.3690  -19.1550 C.3   123  VAL123      0.0276
     80  CG1      -15.2610   27.8560  -17.8780 C.3   123  VAL123      0.0022
     81  CG2      -16.3760   25.9120  -19.0100 C.3   123  VAL123      0.0022
     82  N        -10.0140   30.9640  -21.8080 N.3   127  GLU127     -0.1245
     83  CA        -8.8770   30.0640  -21.6710 C.3   127  GLU127      0.1567
     84  C         -7.8110   30.6440  -20.7490 C.2   127  GLU127      0.2260
     85  O         -7.4840   31.8390  -20.8160 O.2   127  GLU127     -0.2867
     86  CB        -8.2130   29.8320  -23.0280 C.3   127  GLU127      0.0388
     87  CG        -9.1060   29.1550  -24.0480 C.3   127  GLU127      0.1160
     88  CD        -8.4980   29.0510  -25.4390 C.2   127  GLU127      0.3649
     89  OE1       -7.3500   29.4970  -25.6230 O.co2 127  GLU127     -0.2457
     90  OE2       -9.1760   28.5180  -26.3550 O.co2 127  GLU127     -0.2457
     91  N         -9.9780   26.0890  -19.0690 N.3   172  LEU172     -0.1245
     92  CA       -10.8430   27.2490  -19.0210 C.3   172  LEU172      0.1561
     93  C        -11.0560   27.6450  -17.5730 C.2   172  LEU172      0.2260
     94  O        -10.9680   26.8150  -16.6700 O.2   172  LEU172     -0.2867
     95  CB       -12.1920   26.9620  -19.6850 C.3   172  LEU172      0.0270
     96  CG       -12.1240   26.3360  -21.0730 C.3   172  LEU172      0.0019
     97  CD1      -13.4960   26.2150  -21.6900 C.3   172  LEU172      0.0001
     98  CD2      -11.1830   27.0950  -21.9950 C.3   172  LEU172      0.0001
     99  N        -10.7240   20.7590  -20.7410 N.3   182  THR182     -0.1203
    100  CA       -11.4470   20.4620  -21.9700 C.3   182  THR182      0.1994
    101  C        -10.5170   19.7140  -22.9270 C.2   182  THR182      0.2617
    102  O         -9.3050   19.5790  -22.7160 O.2   182  THR182     -0.2717
    103  CB       -11.9050   21.7610  -22.6410 C.3   182  THR182      0.1784
    104  OG1      -10.7540   22.4760  -23.0920 O.3   182  THR182     -0.2211
    105  CG2      -12.6900   22.6290  -21.7000 C.3   182  THR182      0.0376
    106  N        -11.0990   19.2590  -24.0070 N.am  183  ASP183     -0.1973
    107  CA       -10.4060   18.5600  -25.0630 C.3   183  ASP183      0.1709
    108  C         -9.8750   17.2260  -24.5820 C.2   183  ASP183      0.2293
    109  O         -8.7150   17.0990  -24.1720 O.2   183  ASP183     -0.2864
    110  CB        -9.3330   19.3850  -25.7440 C.3   183  ASP183      0.1436
    111  CG        -9.0910   18.8980  -27.1250 C.2   183  ASP183      0.3671
    112  OD1       -9.4910   17.7370  -27.3960 O.co2 183  ASP183     -0.2456
    113  OD2       -8.5290   19.6740  -27.9200 O.co2 183  ASP183     -0.2456
    114  N        -13.1250   35.6140  -24.7420 N.3   325  PHE325     -0.1241
    115  CA       -12.5810   34.7930  -25.8080 C.3   325  PHE325      0.1605
    116  C        -12.1030   35.6670  -26.9570 C.2   325  PHE325      0.2264
    117  O        -12.6430   36.7530  -27.2140 O.2   325  PHE325     -0.2867
    118  CB       -13.6270   33.7990  -26.3310 C.3   325  PHE325      0.0534
    119  CG       -13.9190   32.7000  -25.3580 C.ar  325  PHE325     -0.0203
    120  CD1      -13.2200   31.5010  -25.4140 C.ar  325  PHE325     -0.0042
    121  CD2      -14.8770   32.8710  -24.3730 C.ar  325  PHE325     -0.0042
    122  CE1      -13.4800   30.4820  -24.5190 C.ar  325  PHE325     -0.0003
    123  CE2      -15.1360   31.8610  -23.4680 C.ar  325  PHE325     -0.0003
    124  CZ       -14.4410   30.6600  -23.5410 C.ar  325  PHE325     -0.0000
@<TRIPOS>BOND
     1     9    10    1
     2    23    24    2
     3    23    22    1
     4    12    11    2
     5    11    10    1
     6    10    13    1
     7     1     2    1
     8    22    21    1
     9    22    25    1
    10    26    25    1
    11    26    27    1
    12    28    27    1
    13    28    29    1
    14     3     2    1
    15     3     4    2
    16    13    15    1
    17    13    14    1
    18     2     5    1
    19     5     6    1
    20    37    36   ar
    21     6     8    1
    22     6     7    1
    23   113   111   ar
    24   112   111   ar
    25    34    35    1
    26    34    31    1
    27   117   116    2
    28    36    35    1
    29    36    38   ar
    30   111   110    1
    31    18    19    2
    32    18    17    1
    33    30    31    1
    34   116   115    1
    35    31    32    1
    36    90    88   ar
    37   118   115    1
    38   118   119    1
    39    17    20    1
    40    17    16    1
    41    53    52    1
    42    32    33    2
    43   115   114    1
    44   110   107    1
    45    89    88   ar
    46    88    87    1
    47   120   119   ar
    48   120   122   ar
    49   119   121   ar
    50   107   108    1
    51   107   106    1
    52    46    47    1
    53    52    51    1
    54   108   109    2
    55   122   124   ar
    56   121   123   ar
    57    87    86    1
    58   106   101   am
    59    51    50    1
    60    71    69   ar
    61    71    73   ar
    62    74    73    1
    63    50    47    1
    64   124   123   ar
    65    47    48    1
    66    49    48    2
    67    69    68   ar
    68    73    72   ar
    69   104   103    1
    70    86    83    1
    71   101   102    2
    72   101   100    1
    73    48    54   am
    74    68    67    1
    75    68    70   ar
    76   103   100    1
    77   103   105    1
    78    72    70   ar
    79    67    64    1
    80    98    96    1
    81   100    99    1
    82    82    83    1
    83    64    63    1
    84    64    65    1
    85    97    96    1
    86    83    84    1
    87    57    56    2
    88    54    55    1
    89    63    56   am
    90    56    55    1
    91    96    95    1
    92    44    43    1
    93    85    84    2
    94    55    58    1
    95    75    65   am
    96    75    76    1
    97    78    77    2
    98    65    66    2
    99    45    43    1
   100    77    76    1
   101    43    40    1
   102    95    92    1
   103    76    79    1
   104    58    59    1
   105    79    81    1
   106    79    80    1
   107    91    92    1
   108    92    93    1
   109    42    41    2
   110    41    40    1
   111    40    39    1
   112    59    60    1
   113    93    94    2
   114    60    62   ar
   115    60    61   ar
