@<TRIPOS>MOLECULE
tmp/5n34A01.pdb
 183 179 0 0 0
SMALL
GASTEIGER

@<TRIPOS>ATOM
      1  N         13.7940   46.5640    1.2260 N.3   111  ASN111     -0.1225
      2  CA        12.6130   45.7610    1.5270 C.3   111  ASN111      0.1785
      3  C         12.3560   44.7140    0.4590 C.2   111  ASN111      0.2597
      4  O         11.2620   44.6140   -0.0820 O.2   111  ASN111     -0.2718
      5  CB        11.3940   46.6620    1.6890 C.3   111  ASN111      0.1169
      6  CG        11.4140   47.4460    2.9820 C.2   111  ASN111      0.2627
      7  OD1       11.7670   46.9190    4.0530 O.2   111  ASN111     -0.2716
      8  ND2       11.0090   48.7020    2.9140 N.am  111  ASN111     -0.0877
      9  N         13.3530   43.8980    0.1460 N.am  112  ASN112     -0.1960
     10  CA        13.1880   42.9200   -0.9140 C.3   112  ASN112      0.1819
     11  C         14.3350   41.9270   -0.8710 C.2   112  ASN112      0.2621
     12  O         15.3030   42.0600   -0.1020 O.2   112  ASN112     -0.2715
     13  CB        13.1410   43.6220   -2.2750 C.3   112  ASN112      0.1195
     14  CG        12.2180   42.9660   -3.2870 C.2   112  ASN112      0.2630
     15  OD1       11.6560   41.9340   -3.0830 O.2   112  ASN112     -0.2716
     16  ND2       11.9490   43.6840   -4.3620 N.am  112  ASN112     -0.0877
     17  N         14.1790   40.9010   -1.7000 N.am  113  ALA113     -0.1963
     18  CA        15.1890   39.8770   -1.9620 C.3   113  ALA113      0.1728
     19  C         15.0190   39.4790   -3.4170 C.2   113  ALA113      0.2616
     20  O         13.9400   39.6450   -3.9900 O.2   113  ALA113     -0.2715
     21  CB        15.0060   38.6800   -1.0310 C.3   113  ALA113      0.0334
     22  N         16.0820   38.9560   -4.0260 N.am  114  PHE114     -0.1960
     23  CA        16.0240   38.6130   -5.4370 C.3   114  PHE114      0.1771
     24  C         17.1410   37.6590   -5.8050 C.2   114  PHE114      0.2620
     25  O         18.1580   37.5680   -5.1190 O.2   114  PHE114     -0.2715
     26  CB        16.0310   39.8540   -6.3520 C.3   114  PHE114      0.0574
     27  CG        17.2390   40.7530   -6.2220 C.ar  114  PHE114     -0.0200
     28  CD1       17.2880   41.7030   -5.2150 C.ar  114  PHE114     -0.0042
     29  CD2       18.2770   40.7200   -7.1250 C.ar  114  PHE114     -0.0042
     30  CE1       18.3640   42.5800   -5.0960 C.ar  114  PHE114     -0.0003
     31  CE2       19.3570   41.5920   -7.0150 C.ar  114  PHE114     -0.0003
     32  CZ        19.3870   42.5280   -6.0170 C.ar  114  PHE114     -0.0000
     33  N         16.9330   36.9830   -6.9210 N.am  115  TRP115     -0.1960
     34  CA        17.9570   36.2670   -7.6690 C.3   115  TRP115      0.1771
     35  C         18.3860   37.2000   -8.7970 C.2   115  TRP115      0.2620
     36  O         17.5460   37.6970   -9.5510 O.2   115  TRP115     -0.2715
     37  CB        17.3750   34.9550   -8.2110 C.3   115  TRP115      0.0590
     38  CG        18.2650   34.1900   -9.1300 C.ar  115  TRP115      0.0006
     39  CD1       18.2430   34.2060  -10.4920 C.ar  115  TRP115      0.0946
     40  CD2       19.3490   33.3160   -8.7690 C.ar  115  TRP115      0.0152
     41  NE1       19.2300   33.4010  -10.9960 N.ar  115  TRP115     -0.2442
     42  CE2       19.9390   32.8470   -9.9600 C.ar  115  TRP115      0.0810
     43  CE3       19.8730   32.8760   -7.5510 C.ar  115  TRP115      0.0012
     44  CZ2       21.0080   31.9300   -9.9560 C.ar  115  TRP115      0.0191
     45  CZ3       20.8960   31.9670   -7.5540 C.ar  115  TRP115      0.0001
     46  CH2       21.4700   31.5280   -8.7400 C.ar  115  TRP115      0.0015
     47  N         19.6840   37.4610   -8.9100 N.am  116  ASN116     -0.1958
     48  CA        20.1760   38.4550   -9.8590 C.3   116  ASN116      0.1819
     49  C         20.6630   37.8650  -11.1770 C.2   116  ASN116      0.2621
     50  O         21.2920   38.5700  -11.9660 O.2   116  ASN116     -0.2715
     51  CB        21.2770   39.3160   -9.2540 C.3   116  ASN116      0.1195
     52  CG        22.6200   38.6490   -9.2590 C.2   116  ASN116      0.2630
     53  OD1       22.7150   37.4210   -9.3460 O.2   116  ASN116     -0.2716
     54  ND2       23.6680   39.4550   -9.1190 N.am  116  ASN116     -0.0877
     55  N         20.3270   36.6020  -11.4420 N.am  117  GLY117     -0.1954
     56  CA        20.8000   35.8430  -12.5700 C.3   117  GLY117      0.1869
     57  C         21.9160   34.8840  -12.2200 C.2   117  GLY117      0.2309
     58  O         22.1880   33.9590  -12.9940 O.2   117  GLY117     -0.2863
     59  N          9.7860   45.2080    6.4950 N.3   130  PHE130     -0.1241
     60  CA        10.4600   43.9190    6.6520 C.3   130  PHE130      0.1605
     61  C         11.5630   44.0250    7.6880 C.2   130  PHE130      0.2264
     62  O         12.1520   45.0900    7.8730 O.2   130  PHE130     -0.2867
     63  CB        11.1500   43.4450    5.3600 C.3   130  PHE130      0.0534
     64  CG        10.2180   42.8700    4.3210 C.ar  130  PHE130     -0.0203
     65  CD1        9.7780   41.5770    4.4380 C.ar  130  PHE130     -0.0042
     66  CD2        9.8440   43.5970    3.1950 C.ar  130  PHE130     -0.0042
     67  CE1        8.9620   41.0170    3.4760 C.ar  130  PHE130     -0.0003
     68  CE2        9.0150   43.0330    2.2420 C.ar  130  PHE130     -0.0003
     69  CZ         8.6040   41.7480    2.3790 C.ar  130  PHE130     -0.0000
     70  N         15.3880   39.6590    5.3170 N.3   133  LEU133     -0.1245
     71  CA        14.4200   38.8300    4.6180 C.3   133  LEU133      0.1561
     72  C         14.8130   37.3560    4.5760 C.2   133  LEU133      0.2260
     73  O         13.9450   36.4960    4.3910 O.2   133  LEU133     -0.2867
     74  CB        14.1150   39.3610    3.2250 C.3   133  LEU133      0.0270
     75  CG        13.1870   40.5950    3.2040 C.3   133  LEU133      0.0019
     76  CD1       13.9120   41.8860    3.4110 C.3   133  LEU133      0.0001
     77  CD2       12.4110   40.6450    1.9310 C.3   133  LEU133      0.0001
     78  N         10.8270   32.6440    1.8590 N.3   139  VAL139     -0.1245
     79  CA        11.5230   33.6530    1.0610 C.3   139  VAL139      0.1561
     80  C         12.7830   33.0870    0.4390 C.2   139  VAL139      0.2260
     81  O         13.0120   33.2280   -0.7600 O.2   139  VAL139     -0.2867
     82  CB        11.8460   34.8940    1.9130 C.3   139  VAL139      0.0252
     83  CG1       12.6810   35.8970    1.0950 C.3   139  VAL139      0.0019
     84  CG2       10.5710   35.5360    2.4430 C.3   139  VAL139      0.0019
     85  N         11.8020   30.6680   -2.1810 N.3   142  HIS142     -0.1226
     86  CA        11.2860   31.4370   -3.3140 C.3   142  HIS142      0.1752
     87  C         12.4290   31.9270   -4.2060 C.2   142  HIS142      0.2595
     88  O         12.3770   31.8060   -5.4350 O.2   142  HIS142     -0.2718
     89  CB        10.4530   32.6060   -2.7480 C.3   142  HIS142      0.0759
     90  CG         9.8660   33.5380   -3.7830 C.ar  142  HIS142      0.0818
     91  ND1        8.5140   33.6350   -4.0490 N.ar  142  HIS142     -0.2268
     92  CD2       10.4550   34.4480   -4.6060 C.ar  142  HIS142      0.1154
     93  CE1        8.3100   34.5350   -5.0100 C.ar  142  HIS142      0.1986
     94  NE2        9.4770   35.0490   -5.3730 N.ar  142  HIS142     -0.2212
     95  N         13.4690   32.4820   -3.5940 N.am  143  GLU143     -0.1979
     96  CA        14.5900   33.0130   -4.3520 C.3   143  GLU143      0.1602
     97  C         15.3470   31.9140   -5.0770 C.2   143  GLU143      0.2287
     98  O         15.6640   32.0470   -6.2650 O.2   143  GLU143     -0.2864
     99  CB        15.5290   33.8300   -3.4730 C.3   143  GLU143      0.0415
    100  CG        14.8910   34.9950   -2.7060 C.3   143  GLU143      0.1163
    101  CD        13.9370   35.8500   -3.4820 C.2   143  GLU143      0.3649
    102  OE1       14.1660   35.9800   -4.6930 O.co2 143  GLU143     -0.2457
    103  OE2       12.9580   36.3850   -2.8830 O.co2 143  GLU143     -0.2457
    104  N         13.6340   30.7270   -8.1980 N.3   146  HIS146     -0.1241
    105  CA        13.8360   31.5080   -9.4140 C.3   146  HIS146      0.1621
    106  C         15.0090   30.9590  -10.2350 C.2   146  HIS146      0.2264
    107  O         14.9460   30.9000  -11.4740 O.2   146  HIS146     -0.2867
    108  CB        14.0660   32.9860   -9.0940 C.3   146  HIS146      0.0745
    109  CG        12.8000   33.7580   -8.8340 C.ar  146  HIS146      0.0817
    110  ND1       11.7620   33.7960   -9.7320 N.ar  146  HIS146     -0.2268
    111  CD2       12.3990   34.5070   -7.7700 C.ar  146  HIS146      0.1154
    112  CE1       10.7900   34.5520   -9.2450 C.ar  146  HIS146      0.1986
    113  NE2       11.1480   35.0110   -8.0560 N.ar  146  HIS146     -0.2212
    114  N         10.0790   37.0340  -17.4520 N.3   157  TYR157     -0.1241
    115  CA         9.5770   37.7020  -16.2360 C.3   157  TYR157      0.1605
    116  C          8.6590   38.8800  -16.5700 C.2   157  TYR157      0.2264
    117  O          8.9020   40.0190  -16.1900 O.2   157  TYR157     -0.2867
    118  CB        10.7340   38.1160  -15.3380 C.3   157  TYR157      0.0534
    119  CG        10.3630   38.2940  -13.8860 C.ar  157  TYR157     -0.0201
    120  CD1        9.8910   37.2260  -13.1430 C.ar  157  TYR157     -0.0009
    121  CD2       10.5400   39.4920  -13.2390 C.ar  157  TYR157     -0.0009
    122  CE1        9.6010   37.3410  -11.8100 C.ar  157  TYR157      0.0417
    123  CE2       10.2440   39.6370  -11.8770 C.ar  157  TYR157      0.0417
    124  CZ         9.7800   38.5560  -11.1610 C.ar  157  TYR157      0.1957
    125  OH         9.5050   38.7350   -9.8340 O.3   157  TYR157     -0.2866
    126  N          6.5130   33.6450  -10.8830 N.3   166  GLU166     -0.1245
    127  CA         6.3000   34.0310   -9.4890 C.3   166  GLU166      0.1567
    128  C          5.5790   32.9400   -8.7060 C.2   166  GLU166      0.2260
    129  O          5.9820   32.6040   -7.5830 O.2   166  GLU166     -0.2867
    130  CB         5.5100   35.3230   -9.4170 C.3   166  GLU166      0.0388
    131  CG         6.3880   36.5450   -9.4050 C.3   166  GLU166      0.1160
    132  CD         7.3630   36.4560   -8.2500 C.2   166  GLU166      0.3649
    133  OE1        6.9100   36.3190   -7.0900 O.co2 166  GLU166     -0.2457
    134  OE2        8.6050   36.4850   -8.5110 O.co2 166  GLU166     -0.2457
    135  N          2.9360   33.8350    2.3820 N.3   188  ILE188     -0.1231
    136  CA         4.2960   34.1290    1.9080 C.3   188  ILE188      0.1692
    137  C          4.9000   35.2560    2.7320 C.2   188  ILE188      0.2592
    138  O          4.3910   36.3790    2.7340 O.2   188  ILE188     -0.2718
    139  CB         4.3350   34.5000    0.4170 C.3   188  ILE188      0.0266
    140  CG1        3.6670   33.4280   -0.4280 C.3   188  ILE188      0.0019
    141  CG2        5.7690   34.7920   -0.0390 C.3   188  ILE188      0.0020
    142  CD1        4.3390   32.0820   -0.4140 C.3   188  ILE188      0.0001
    143  N          6.0330   34.9680    3.3750 N.am  189  GLY189     -0.1957
    144  CA         6.8320   35.9900    4.0240 C.3   189  GLY189      0.1869
    145  C          6.4250   36.3910    5.4260 C.2   189  GLY189      0.2309
    146  O          6.9930   37.3550    5.9680 O.2   189  GLY189     -0.2863
    147  N          2.9070   38.8800    3.0670 N.3   202  LEU202     -0.1231
    148  CA         3.0040   39.6160    1.8140 C.3   202  LEU202      0.1693
    149  C          1.9370   39.1670    0.8090 C.2   202  LEU202      0.2591
    150  O          1.3600   39.9860    0.0770 O.2   202  LEU202     -0.2718
    151  CB         4.3810   39.3840    1.2320 C.3   202  LEU202      0.0284
    152  CG         4.7150   40.1110   -0.0240 C.3   202  LEU202      0.0019
    153  CD1        4.7150   41.6260    0.2040 C.3   202  LEU202      0.0001
    154  CD2        6.1320   39.6780   -0.4790 C.3   202  LEU202      0.0001
    155  N          1.7150   37.8620    0.7230 N.am  203  ARG203     -0.1980
    156  CA         0.7320   37.2420   -0.1500 C.3   203  ARG203      0.1597
    157  C          0.1400   36.0550    0.5910 C.2   203  ARG203      0.2287
    158  O          0.7700   35.4980    1.4780 O.2   203  ARG203     -0.2864
    159  CB         1.3490   36.7000   -1.4620 C.3   203  ARG203      0.0334
    160  CG         1.8040   37.7410   -2.4440 C.3   203  ARG203      0.0492
    161  CD         2.4070   37.1120   -3.6680 C.3   203  ARG203      0.2205
    162  NE         3.7220   36.5320   -3.4520 N.pl3 203  ARG203     -0.0865
    163  CZ         4.8560   37.1970   -3.4940 C.cat 203  ARG203      0.5346
    164  NH1        4.8700   38.5190   -3.5580 N.pl3 203  ARG203      0.1354
    165  NH2        6.0040   36.5320   -3.4430 N.pl3 203  ARG203      0.1354
    166  N          6.0040   44.6450  -13.9750 N.3   227  ASN227     -0.1240
    167  CA         6.2630   43.7900  -15.1460 C.3   227  ASN227      0.1653
    168  C          4.9830   43.1300  -15.6580 C.2   227  ASN227      0.2266
    169  O          4.9670   41.9470  -16.0510 O.2   227  ASN227     -0.2867
    170  CB         7.3270   42.7390  -14.8540 C.3   227  ASN227      0.1155
    171  CG         8.6960   43.3350  -14.7230 C.2   227  ASN227      0.2627
    172  OD1        9.3340   43.2960  -13.6580 O.2   227  ASN227     -0.2716
    173  ND2        9.1690   43.8780  -15.8000 N.am  227  ASN227     -0.0877
    174  N          3.6780   39.7760   -9.5800 N.3   231  HIS231     -0.1241
    175  CA         3.4330   39.4680   -8.1730 C.3   231  HIS231      0.1621
    176  C          1.9640   39.6020   -7.7880 C.2   231  HIS231      0.2264
    177  O          1.6090   39.4050   -6.6120 O.2   231  HIS231     -0.2867
    178  CB         4.2540   40.4010   -7.2660 C.3   231  HIS231      0.0745
    179  CG         5.7330   40.2460   -7.4010 C.ar  231  HIS231      0.0817
    180  ND1        6.5030   41.0540   -8.2020 N.ar  231  HIS231     -0.2268
    181  CD2        6.5840   39.3540   -6.8300 C.ar  231  HIS231      0.1154
    182  CE1        7.7680   40.6710   -8.1240 C.ar  231  HIS231      0.1986
    183  NE2        7.8400   39.6410   -7.2960 N.ar  231  HIS231     -0.2212
@<TRIPOS>BOND
     1   114   115    1
     2   116   115    1
     3   116   117    2
     4   115   118    1
     5   169   168    2
     6   173   171   am
     7   168   167    1
     8   118   119    1
     9   167   170    1
    10   167   166    1
    11   170   171    1
    12   171   172    2
    13   119   121   ar
    14   119   120   ar
    15   121   123   ar
    16   120   122   ar
    17    58    57    2
    18    56    57    1
    19    56    55    1
    20    50    49    2
    21   123   124   ar
    22   122   124   ar
    23   107   106    2
    24    55    49   am
    25    49    48    1
    26   124   125    1
    27    41    39   ar
    28    41    42   ar
    29   126   127    1
    30    39    38   ar
    31   106   105    1
    32    42    44   ar
    33    42    40   ar
    34    44    46   ar
    35    48    51    1
    36    48    47    1
    37   110   112   ar
    38   110   109   ar
    39   174   175    1
    40    36    35    2
    41   127   130    1
    42   127   128    1
    43   130   131    1
    44   105   108    1
    45   105   104    1
    46   131   132    1
    47    53    52    2
    48    52    51    1
    49    52    54   am
    50   112   113   ar
    51    38    40   ar
    52    38    37    1
    53   108   109    1
    54    47    35   am
    55   109   111   ar
    56    35    34    1
    57    40    43   ar
    58    46    45   ar
    59   128   129    2
    60   134   132   ar
    61   132   133   ar
    62    37    34    1
    63   180   182   ar
    64   180   179   ar
    65   175   176    1
    66   175   178    1
    67   182   183   ar
    68   113   111   ar
    69   176   177    2
    70    34    33    1
    71    45    43   ar
    72   179   178    1
    73   179   181   ar
    74   183   181   ar
    75    29    31   ar
    76    29    27   ar
    77    31    32   ar
    78    33    24   am
    79    26    27    1
    80    26    23    1
    81    98    97    2
    82    27    28   ar
    83    32    30   ar
    84    24    23    1
    85    24    25    2
    86    23    22    1
    87    88    87    2
    88    94    93   ar
    89    94    92   ar
    90    28    30   ar
    91    97    96    1
    92    93    91   ar
    93   102   101   ar
    94    92    90   ar
    95    16    14   am
    96    96    95    1
    97    96    99    1
    98    87    95   am
    99    87    86    1
   100    91    90   ar
   101    22    19   am
   102    20    19    2
   103    90    89    1
   104   161   162    1
   105   161   160    1
   106   164   163    1
   107   163   162    2
   108   163   165    1
   109   101   103   ar
   110   101   100    1
   111    99   100    1
   112    19    18    1
   113    86    89    1
   114    86    85    1
   115    14    15    2
   116    14    13    1
   117   160   159    1
   118    13    10    1
   119    18    17    1
   120    18    21    1
   121    17    11   am
   122   159   156    1
   123    10    11    1
   124    10     9    1
   125    11    12    2
   126    81    80    2
   127   154   152    1
   128   140   142    1
   129   140   139    1
   130   156   157    1
   131   156   155    1
   132     4     3    2
   133   141   139    1
   134   152   153    1
   135   152   151    1
   136   150   149    2
   137     9     3   am
   138   139   136    1
   139    80    79    1
   140     3     2    1
   141   157   158    2
   142   155   149   am
   143   149   148    1
   144    79    78    1
   145    79    82    1
   146    83    82    1
   147     1     2    1
   148   151   148    1
   149     2     5    1
   150     5     6    1
   151   148   147    1
   152   136   135    1
   153   136   137    1
   154    82    84    1
   155    77    75    1
   156    68    69   ar
   157    68    66   ar
   158    69    67   ar
   159   137   138    2
   160   137   143   am
   161     8     6   am
   162     6     7    2
   163    66    64   ar
   164    75    74    1
   165    75    76    1
   166    74    71    1
   167   143   144    1
   168    67    65   ar
   169   144   145    1
   170    64    65   ar
   171    64    63    1
   172    73    72    2
   173    72    71    1
   174    71    70    1
   175    63    60    1
   176   145   146    2
   177    59    60    1
   178    60    61    1
   179    61    62    2
