@<TRIPOS>MOLECULE
tmp/5n36A01.pdb
 122 114 0 0 0
SMALL
GASTEIGER

@<TRIPOS>ATOM
      1  N        -15.7100   30.0790  -30.8410 N.3    49  LEU49      -0.1231
      2  CA       -14.8750   30.2830  -29.6570 C.3    49  LEU49       0.1693
      3  C        -13.4590   29.7490  -29.7960 C.2    49  LEU49       0.2592
      4  O        -12.6080   30.0740  -28.9520 O.2    49  LEU49      -0.2718
      5  CB       -15.5190   29.6040  -28.4480 C.3    49  LEU49       0.0284
      6  CG       -16.9340   30.0400  -28.0660 C.3    49  LEU49       0.0019
      7  CD1      -17.5050   29.1540  -26.9280 C.3    49  LEU49       0.0001
      8  CD2      -16.9570   31.5190  -27.6670 C.3    49  LEU49       0.0001
      9  N        -13.1980   28.9010  -30.7880 N.am   50  GLY50      -0.1957
     10  CA       -11.8930   28.3010  -31.0050 C.3    50  GLY50       0.1869
     11  C        -11.9280   27.4380  -32.2610 C.2    50  GLY50       0.2309
     12  O        -13.0010   26.9560  -32.6350 O.2    50  GLY50      -0.2863
     13  N        -15.1800   24.9880  -32.1640 N.3    57  VAL57      -0.1245
     14  CA       -16.1060   25.0510  -31.0380 C.3    57  VAL57       0.1561
     15  C        -16.8650   26.3640  -31.1300 C.2    57  VAL57       0.2260
     16  O        -16.2510   27.4210  -31.3290 O.2    57  VAL57      -0.2867
     17  CB       -15.3920   24.9460  -29.6810 C.3    57  VAL57       0.0252
     18  CG1      -16.4280   25.0860  -28.5720 C.3    57  VAL57       0.0019
     19  CG2      -14.6710   23.6260  -29.5650 C.3    57  VAL57       0.0019
     20  N        -21.3280   25.2140  -25.1910 N.3    70  ALA70      -0.1245
     21  CA       -20.2590   25.1370  -26.1870 C.3    70  ALA70       0.1562
     22  C        -20.4540   23.8920  -27.0530 C.2    70  ALA70       0.2260
     23  O        -20.5810   22.7770  -26.5360 O.2    70  ALA70      -0.2867
     24  CB       -18.8860   25.1220  -25.5100 C.3    70  ALA70       0.0290
     25  N        -18.8470   21.5530  -29.9440 N.3    72  LYS72      -0.1245
     26  CA       -17.7260   21.1290  -30.7810 C.3    72  LYS72       0.1561
     27  C        -18.2820   20.4680  -32.0410 C.2    72  LYS72       0.2260
     28  O        -19.1230   19.5690  -31.9490 O.2    72  LYS72      -0.2867
     29  CB       -16.8190   20.1690  -30.0010 C.3    72  LYS72       0.0271
     30  CG       -15.5300   19.7540  -30.7130 C.3    72  LYS72       0.0035
     31  CD       -14.5700   19.0520  -29.7400 C.3    72  LYS72       0.0206
     32  CE       -13.3250   18.6110  -30.4740 C.3    72  LYS72       0.1093
     33  NZ       -12.2840   18.0900  -29.5370 N.3    72  LYS72      -0.1314
     34  N        -21.3590   20.7820  -24.8000 N.3   120  MET120     -0.1230
     35  CA       -20.8570   20.7810  -23.4350 C.3   120  MET120      0.1702
     36  C        -21.3200   22.0250  -22.6980 C.2   120  MET120      0.2592
     37  O        -21.8930   22.9450  -23.2780 O.2   120  MET120     -0.2718
     38  CB       -19.3320   20.7500  -23.4190 C.3   120  MET120      0.0401
     39  CG       -18.7530   19.7480  -24.3340 C.3   120  MET120      0.0596
     40  SD       -17.0170   20.1300  -24.4430 S.3   120  MET120     -0.1393
     41  CE       -17.0110   21.8680  -24.8390 C.3   120  MET120      0.0692
     42  N        -21.0280   22.0520  -21.3990 N.am  121  GLU121     -0.1966
     43  CA       -21.2290   23.2700  -20.6120 C.3   121  GLU121      0.1733
     44  C        -20.3520   24.4120  -21.1500 C.2   121  GLU121      0.2616
     45  O        -19.1710   24.2160  -21.4730 O.2   121  GLU121     -0.2715
     46  CB       -20.9150   23.0010  -19.1320 C.3   121  GLU121      0.0429
     47  CG       -21.0160   24.2730  -18.2720 C.3   121  GLU121      0.1163
     48  CD       -20.9560   24.0370  -16.7760 C.2   121  GLU121      0.3649
     49  OE1      -21.1490   22.8940  -16.3410 O.co2 121  GLU121     -0.2457
     50  OE2      -20.7180   25.0210  -16.0350 O.co2 121  GLU121     -0.2457
     51  N        -20.9510   25.6020  -21.2800 N.am  122  TYR122     -0.1974
     52  CA       -20.2220   26.8060  -21.6560 C.3   122  TYR122      0.1639
     53  C        -19.4980   27.3780  -20.4360 C.2   122  TYR122      0.2290
     54  O        -20.1150   27.5910  -19.3820 O.2   122  TYR122     -0.2864
     55  CB       -21.1870   27.8400  -22.2490 C.3   122  TYR122      0.0560
     56  CG       -20.5310   29.1530  -22.6190 C.ar  122  TYR122     -0.0198
     57  CD1      -19.3350   29.1850  -23.3560 C.ar  122  TYR122     -0.0009
     58  CD2      -21.0890   30.3600  -22.2370 C.ar  122  TYR122     -0.0009
     59  CE1      -18.7300   30.3810  -23.6910 C.ar  122  TYR122      0.0417
     60  CE2      -20.4870   31.5680  -22.5750 C.ar  122  TYR122      0.0417
     61  CZ       -19.3100   31.5790  -23.3010 C.ar  122  TYR122      0.1957
     62  OH       -18.7100   32.7950  -23.6270 O.3   122  TYR122     -0.2866
     63  N         -9.9940   31.0080  -21.9640 N.3   127  GLU127     -0.1245
     64  CA        -8.8350   30.1250  -21.8150 C.3   127  GLU127      0.1567
     65  C         -7.8090   30.7070  -20.8410 C.2   127  GLU127      0.2260
     66  O         -7.4680   31.8990  -20.9020 O.2   127  GLU127     -0.2867
     67  CB        -8.1410   29.9250  -23.1760 C.3   127  GLU127      0.0388
     68  CG        -9.0180   29.2440  -24.2430 C.3   127  GLU127      0.1160
     69  CD        -8.3120   29.1680  -25.5900 C.2   127  GLU127      0.3649
     70  OE1       -7.1580   29.6450  -25.6890 O.co2 127  GLU127     -0.2457
     71  OE2       -8.9070   28.6050  -26.5340 O.co2 127  GLU127     -0.2457
     72  N         -4.1140   26.3480  -23.4310 N.3   169  GLU169     -0.1231
     73  CA        -5.1940   26.4940  -24.4040 C.3   169  GLU169      0.1699
     74  C         -6.3960   25.6110  -24.0900 C.2   169  GLU169      0.2592
     75  O         -7.5140   25.8890  -24.5800 O.2   169  GLU169     -0.2718
     76  CB        -4.6930   26.0890  -25.8000 C.3   169  GLU169      0.0402
     77  CG        -3.6260   26.9910  -26.4410 C.3   169  GLU169      0.1161
     78  CD        -2.1880   26.6210  -26.1030 C.2   169  GLU169      0.3649
     79  OE1       -1.8770   26.1950  -24.9390 O.co2 169  GLU169     -0.2457
     80  OE2       -1.3060   26.7390  -26.9800 O.co2 169  GLU169     -0.2457
     81  N         -6.1950   24.5250  -23.3220 N.am  170  ASN170     -0.1974
     82  CA        -7.2340   23.5400  -23.0420 C.3   170  ASN170      0.1688
     83  C         -7.8180   23.6970  -21.6410 C.2   170  ASN170      0.2292
     84  O         -8.5830   22.8450  -21.2080 O.2   170  ASN170     -0.2864
     85  CB        -6.6870   22.1080  -23.1960 C.3   170  ASN170      0.1181
     86  CG        -6.5330   21.7040  -24.6370 C.2   170  ASN170      0.2629
     87  OD1       -6.9560   22.4440  -25.5370 O.2   170  ASN170     -0.2716
     88  ND2       -5.9950   20.5230  -24.8760 N.am  170  ASN170     -0.0877
     89  N        -10.0700   26.1190  -19.2680 N.3   172  LEU172     -0.1245
     90  CA       -10.9350   27.2840  -19.2100 C.3   172  LEU172      0.1561
     91  C        -11.1530   27.7100  -17.7580 C.2   172  LEU172      0.2260
     92  O        -11.0820   26.8960  -16.8330 O.2   172  LEU172     -0.2867
     93  CB       -12.2810   26.9950  -19.8870 C.3   172  LEU172      0.0270
     94  CG       -12.2340   26.3850  -21.2950 C.3   172  LEU172      0.0019
     95  CD1      -13.6390   26.2930  -21.9310 C.3   172  LEU172      0.0001
     96  CD2      -11.2930   27.1470  -22.2260 C.3   172  LEU172      0.0001
     97  N        -11.0240   20.9530  -20.7480 N.3   182  THR182     -0.1203
     98  CA       -11.7920   20.5790  -21.8950 C.3   182  THR182      0.1994
     99  C        -10.8600   19.8370  -22.8420 C.2   182  THR182      0.2617
    100  O         -9.6890   19.5560  -22.5300 O.2   182  THR182     -0.2717
    101  CB       -12.3980   21.7960  -22.5710 C.3   182  THR182      0.1784
    102  OG1      -13.1940   21.3200  -23.6840 O.3   182  THR182     -0.2211
    103  CG2      -11.2620   22.7510  -23.0670 C.3   182  THR182      0.0376
    104  N        -11.4170   19.4400  -23.9700 N.am  183  ASP183     -0.1973
    105  CA       -10.7080   18.8600  -25.1000 C.3   183  ASP183      0.1709
    106  C        -10.0850   17.5010  -24.7750 C.2   183  ASP183      0.2293
    107  O         -8.8520   17.3520  -24.6670 O.2   183  ASP183     -0.2864
    108  CB        -9.7000   19.8620  -25.6480 C.3   183  ASP183      0.1436
    109  CG       -10.2160   20.5660  -26.9020 C.2   183  ASP183      0.3671
    110  OD1      -11.1030   19.9880  -27.5900 O.co2 183  ASP183     -0.2456
    111  OD2       -9.7320   21.6790  -27.1960 O.co2 183  ASP183     -0.2456
    112  N        -13.1670   35.6640  -24.8390 N.3   325  PHE325     -0.1241
    113  CA       -12.6050   34.8530  -25.9120 C.3   325  PHE325      0.1605
    114  C        -12.1390   35.7310  -27.0650 C.2   325  PHE325      0.2264
    115  O        -12.6730   36.8220  -27.2910 O.2   325  PHE325     -0.2867
    116  CB       -13.6250   33.8290  -26.4280 C.3   325  PHE325      0.0534
    117  CG       -13.9820   32.7730  -25.4180 C.ar  325  PHE325     -0.0203
    118  CD1      -13.2670   31.5770  -25.3830 C.ar  325  PHE325     -0.0042
    119  CD2      -15.0070   32.9850  -24.4790 C.ar  325  PHE325     -0.0042
    120  CE1      -13.5510   30.5870  -24.4540 C.ar  325  PHE325     -0.0003
    121  CE2      -15.3200   31.9940  -23.5290 C.ar  325  PHE325     -0.0003
    122  CZ       -14.5640   30.7860  -23.5040 C.ar  325  PHE325     -0.0000
@<TRIPOS>BOND
     1    12    11    2
     2    11    10    1
     3    13    14    1
     4    27    28    2
     5    27    26    1
     6    16    15    2
     7    15    14    1
     8    14    17    1
     9    10     9    1
    10     1     2    1
    11     9     3   am
    12    26    29    1
    13    26    25    1
    14    30    29    1
    15    30    31    1
    16    32    31    1
    17    32    33    1
    18     3     2    1
    19     3     4    2
    20    17    19    1
    21    17    18    1
    22     2     5    1
    23     5     6    1
    24     6     8    1
    25     6     7    1
    26   110   109   ar
    27   115   114    2
    28   111   109   ar
    29   114   113    1
    30    22    23    2
    31    22    21    1
    32    80    78   ar
    33   109   108    1
    34    71    69   ar
    35    77    78    1
    36    77    76    1
    37   116   113    1
    38   116   117    1
    39    21    24    1
    40    21    20    1
    41    78    79   ar
    42   113   112    1
    43    76    73    1
    44    70    69   ar
    45   108   105    1
    46    69    68    1
    47    87    86    2
    48   117   118   ar
    49   117   119   ar
    50   118   120   ar
    51   105   106    1
    52   105   104    1
    53    88    86   am
    54    41    40    1
    55    34    35    1
    56   106   107    2
    57    86    85    1
    58    75    74    2
    59   119   121   ar
    60   120   122   ar
    61    40    39    1
    62    73    74    1
    63    73    72    1
    64    39    38    1
    65    68    67    1
    66    74    81   am
    67   104    99   am
    68    59    57   ar
    69    59    61   ar
    70   102   101    1
    71    62    61    1
    72   121   122   ar
    73    35    38    1
    74    35    36    1
    75    57    56   ar
    76    81    82    1
    77    61    60   ar
    78    37    36    2
    79    85    82    1
    80    67    64    1
    81   103   101    1
    82    82    83    1
    83    99   100    2
    84    99    98    1
    85    36    42   am
    86    56    55    1
    87    56    58   ar
    88    60    58   ar
    89   101    98    1
    90    55    52    1
    91    96    94    1
    92    63    64    1
    93    95    94    1
    94    98    97    1
    95    64    65    1
    96    52    51    1
    97    52    53    1
    98    83    84    2
    99    45    44    2
   100    42    43    1
   101    94    93    1
   102    51    44   am
   103    44    43    1
   104    66    65    2
   105    43    46    1
   106    53    54    2
   107    93    90    1
   108    89    90    1
   109    90    91    1
   110    46    47    1
   111    47    48    1
   112    91    92    2
   113    48    49   ar
   114    48    50   ar
