@<TRIPOS>MOLECULE
tmp/5n37A02.pdb
 125 118 0 0 0
SMALL
GASTEIGER

@<TRIPOS>ATOM
      1  N        -15.8860   30.0860  -30.4310 N.3    49  LEU49      -0.1231
      2  CA       -15.0290   30.3280  -29.2700 C.3    49  LEU49       0.1693
      3  C        -13.6050   29.8390  -29.4570 C.2    49  LEU49       0.2593
      4  O        -12.7250   30.2310  -28.6890 O.2    49  LEU49      -0.2718
      5  CB       -15.5910   29.6190  -28.0350 C.3    49  LEU49       0.0284
      6  CG       -17.0220   29.9910  -27.6920 C.3    49  LEU49       0.0019
      7  CD1      -17.6250   28.9960  -26.6770 C.3    49  LEU49       0.0001
      8  CD2      -17.0230   31.3910  -27.1030 C.3    49  LEU49       0.0001
      9  N        -13.3800   28.9500  -30.4050 N.am   50  GLY50      -0.1942
     10  CA       -12.0500   28.4900  -30.7060 C.3    50  GLY50       0.2014
     11  C        -12.1370   27.4750  -31.8160 C.2    50  GLY50       0.2640
     12  O        -13.2120   26.9620  -32.1340 O.2    50  GLY50      -0.2714
     13  N        -10.9860   27.2050  -32.4150 N.am   51  THR51      -0.1936
     14  CA       -10.9200   26.2540  -33.5070 C.3    51  THR51       0.2032
     15  C         -9.8520   25.2250  -33.1860 C.2    51  THR51       0.2681
     16  O         -9.0140   25.4090  -32.2960 O.2    51  THR51      -0.2710
     17  CB       -10.6170   26.9260  -34.8460 C.3    51  THR51       0.1808
     18  OG1       -9.3500   27.5860  -34.7530 O.3    51  THR51      -0.2208
     19  CG2      -11.7020   27.9430  -35.2060 C.3    51  THR51       0.0379
     20  N         -9.8700   24.1130  -33.9410 N.am   52  GLY52      -0.1729
     21  CA        -8.8970   23.0460  -33.7490 C.2    52  GLY52       0.1340
     22  C         -8.9370   21.8400  -34.6880 C.2    52  GLY52       0.2521
     23  O         -9.4880   20.7910  -34.3260 O.2    52  GLY52      -0.2816
     24  N        -10.1960   19.7130  -37.0830 N.3    54  PHE54      -0.1227
     25  CA       -11.4370   19.1440  -37.6120 C.3    54  PHE54       0.1736
     26  C        -12.6710   20.0120  -37.4400 C.2    54  PHE54       0.2596
     27  O        -13.7510   19.5770  -37.8350 O.2    54  PHE54      -0.2718
     28  CB       -11.7500   17.7910  -36.9710 C.3    54  PHE54       0.0547
     29  CG       -10.5650   16.8940  -36.8080 C.ar   54  PHE54      -0.0202
     30  CD1       -9.6680   16.7080  -37.8480 C.ar   54  PHE54      -0.0042
     31  CD2      -10.3580   16.2420  -35.6200 C.ar   54  PHE54      -0.0042
     32  CE1       -8.5810   15.8760  -37.6980 C.ar   54  PHE54      -0.0003
     33  CE2       -9.2750   15.4010  -35.4560 C.ar   54  PHE54      -0.0003
     34  CZ        -8.3760   15.2340  -36.4840 C.ar   54  PHE54      -0.0000
     35  N        -12.5650   21.2030  -36.8720 N.am   55  GLY55      -0.1942
     36  CA       -13.7590   22.0040  -36.7360 C.3    55  GLY55       0.2014
     37  C        -13.5810   23.1070  -35.7260 C.2    55  GLY55       0.2639
     38  O        -12.5410   23.7800  -35.6840 O.2    55  GLY55      -0.2714
     39  N        -14.5820   23.2780  -34.8740 N.am   56  ARG56      -0.1963
     40  CA       -14.6170   24.4630  -34.0360 C.3    56  ARG56       0.1729
     41  C        -15.4960   24.1730  -32.8390 C.2    56  ARG56       0.2616
     42  O        -16.2260   23.1780  -32.7990 O.2    56  ARG56      -0.2715
     43  CB       -15.1460   25.6800  -34.8110 C.3    56  ARG56       0.0348
     44  CG       -16.5560   25.4520  -35.3860 C.3    56  ARG56       0.0492
     45  CD       -17.0600   26.6530  -36.1810 C.3    56  ARG56       0.2205
     46  NE       -16.2570   26.8230  -37.3810 N.pl3  56  ARG56      -0.0865
     47  CZ       -15.5850   27.9200  -37.7200 C.cat  56  ARG56       0.5346
     48  NH1      -15.6120   29.0090  -36.9750 N.pl3  56  ARG56       0.1354
     49  NH2      -14.8790   27.9200  -38.8380 N.pl3  56  ARG56       0.1354
     50  N        -15.3730   25.0340  -31.8450 N.am   57  VAL57      -0.1977
     51  CA       -16.2770   25.0640  -30.7100 C.3    57  VAL57       0.1596
     52  C        -17.0360   26.3790  -30.7810 C.2    57  VAL57       0.2287
     53  O        -16.4330   27.4380  -30.9980 O.2    57  VAL57      -0.2864
     54  CB       -15.5290   24.9200  -29.3770 C.3    57  VAL57       0.0276
     55  CG1      -16.4980   25.0570  -28.2640 C.3    57  VAL57       0.0022
     56  CG2      -14.8420   23.5630  -29.3100 C.3    57  VAL57       0.0022
     57  N        -18.9180   21.5060  -29.6460 N.3    72  LYS72      -0.1245
     58  CA       -17.8000   21.1190  -30.4910 C.3    72  LYS72       0.1561
     59  C        -18.3540   20.4400  -31.7270 C.2    72  LYS72       0.2260
     60  O        -19.1470   19.5000  -31.6130 O.2    72  LYS72      -0.2867
     61  CB       -16.8360   20.1840  -29.7500 C.3    72  LYS72       0.0271
     62  CG       -15.5950   19.8080  -30.5560 C.3    72  LYS72       0.0035
     63  CD       -14.6120   19.0030  -29.6990 C.3    72  LYS72       0.0206
     64  CE       -13.8990   19.8820  -28.7010 C.3    72  LYS72       0.1093
     65  NZ       -12.8190   19.0870  -28.0690 N.3    72  LYS72      -0.1314
     66  N        -17.2590   18.6150  -35.2650 N.3    74  LEU74      -0.1245
     67  CA       -16.2040   17.9460  -36.0090 C.3    74  LEU74       0.1561
     68  C        -16.7060   17.5290  -37.3880 C.2    74  LEU74       0.2260
     69  O        -17.7280   16.8500  -37.5130 O.2    74  LEU74      -0.2867
     70  CB       -15.7030   16.7260  -35.2580 C.3    74  LEU74       0.0270
     71  CG       -15.2360   17.0400  -33.8440 C.3    74  LEU74       0.0019
     72  CD1      -14.7720   15.7740  -33.1810 C.3    74  LEU74       0.0001
     73  CD2      -14.1200   18.0660  -33.8790 C.3    74  LEU74       0.0001
     74  N         -9.9740   30.8990  -21.6430 N.3   127  GLU127     -0.1245
     75  CA        -8.8480   29.9850  -21.5360 C.3   127  GLU127      0.1567
     76  C         -7.7800   30.5420  -20.6080 C.2   127  GLU127      0.2260
     77  O         -7.4600   31.7400  -20.6600 O.2   127  GLU127     -0.2867
     78  CB        -8.1920   29.7670  -22.8970 C.3   127  GLU127      0.0388
     79  CG        -9.1120   29.2250  -23.9400 C.3   127  GLU127      0.1160
     80  CD        -8.4770   29.2250  -25.3390 C.2   127  GLU127      0.3649
     81  OE1       -7.3370   29.7010  -25.4920 O.co2 127  GLU127     -0.2457
     82  OE2       -9.0920   28.6960  -26.2690 O.co2 127  GLU127     -0.2457
     83  N         -4.0350   26.1730  -23.1990 N.3   169  GLU169     -0.1245
     84  CA        -5.1360   26.2660  -24.1540 C.3   169  GLU169      0.1567
     85  C         -6.3060   25.3850  -23.7710 C.2   169  GLU169      0.2260
     86  O         -7.4410   25.6300  -24.2240 O.2   169  GLU169     -0.2867
     87  CB        -4.6650   25.8500  -25.5670 C.3   169  GLU169      0.0388
     88  CG        -3.6350   26.7300  -26.2290 C.3   169  GLU169      0.1160
     89  CD        -2.1480   26.4150  -25.9030 C.2   169  GLU169      0.3649
     90  OE1       -1.7800   26.0620  -24.7610 O.co2 169  GLU169     -0.2457
     91  OE2       -1.3260   26.5340  -26.8570 O.co2 169  GLU169     -0.2457
     92  N         -9.9340   25.9610  -18.9430 N.3   172  LEU172     -0.1245
     93  CA       -10.8060   27.1120  -18.8540 C.3   172  LEU172      0.1561
     94  C        -10.9760   27.5420  -17.4070 C.2   172  LEU172      0.2260
     95  O        -10.8150   26.7510  -16.4820 O.2   172  LEU172     -0.2867
     96  CB       -12.1580   26.7960  -19.4680 C.3   172  LEU172      0.0270
     97  CG       -12.1260   26.1770  -20.8530 C.3   172  LEU172      0.0019
     98  CD1      -13.4970   25.7190  -21.2980 C.3   172  LEU172      0.0001
     99  CD2      -11.5670   27.1630  -21.8280 C.3   172  LEU172      0.0001
    100  N        -10.8840   20.8490  -20.4560 N.3   182  THR182     -0.1203
    101  CA       -11.6520   20.4290  -21.5850 C.3   182  THR182      0.1994
    102  C        -10.7070   19.7710  -22.5950 C.2   182  THR182      0.2617
    103  O         -9.5340   19.4880  -22.3160 O.2   182  THR182     -0.2717
    104  CB       -12.4470   21.6140  -22.1340 C.3   182  THR182      0.1784
    105  OG1      -13.3440   21.1250  -23.1370 O.3   182  THR182     -0.2211
    106  CG2      -11.5380   22.7070  -22.7310 C.3   182  THR182      0.0376
    107  N        -11.2340   19.5050  -23.7740 N.am  183  ASP183     -0.1973
    108  CA       -10.4810   18.9970  -24.9170 C.3   183  ASP183      0.1709
    109  C         -9.8290   17.6470  -24.5780 C.2   183  ASP183      0.2293
    110  O         -8.6040   17.5150  -24.4280 O.2   183  ASP183     -0.2864
    111  CB        -9.4730   20.0490  -25.3960 C.3   183  ASP183      0.1436
    112  CG       -10.1490   21.3010  -25.9970 C.2   183  ASP183      0.3671
    113  OD1       -9.4600   22.3570  -26.1610 O.co2 183  ASP183     -0.2456
    114  OD2      -11.3440   21.2210  -26.3740 O.co2 183  ASP183     -0.2456
    115  N        -13.1290   35.4970  -24.6180 N.3   325  PHE325     -0.1241
    116  CA       -12.5950   34.6870  -25.7040 C.3   325  PHE325      0.1605
    117  C        -12.1890   35.5620  -26.8780 C.2   325  PHE325      0.2264
    118  O        -12.7470   36.6400  -27.0990 O.2   325  PHE325     -0.2867
    119  CB       -13.6090   33.6520  -26.1950 C.3   325  PHE325      0.0534
    120  CG       -13.9140   32.5800  -25.1900 C.ar  325  PHE325     -0.0203
    121  CD1      -13.2350   31.3840  -25.2020 C.ar  325  PHE325     -0.0042
    122  CD2      -14.8890   32.7930  -24.2310 C.ar  325  PHE325     -0.0042
    123  CE1      -13.5030   30.4060  -24.2560 C.ar  325  PHE325     -0.0003
    124  CE2      -15.1630   31.8210  -23.2750 C.ar  325  PHE325     -0.0003
    125  CZ       -14.4590   30.6210  -23.3090 C.ar  325  PHE325     -0.0000
@<TRIPOS>BOND
     1    49    47    1
     2    30    32   ar
     3    30    29   ar
     4    27    26    2
     5    47    46    2
     6    47    48    1
     7    32    34   ar
     8    25    26    1
     9    25    24    1
    10    25    28    1
    11    69    68    2
    12    26    35   am
    13    68    67    1
    14    46    45    1
    15    28    29    1
    16    35    36    1
    17    29    31   ar
    18    36    37    1
    19    34    33   ar
    20    45    44    1
    21    67    66    1
    22    67    70    1
    23    37    38    2
    24    37    39   am
    25    31    33   ar
    26    44    43    1
    27    70    71    1
    28    19    17    1
    29    39    40    1
    30    17    18    1
    31    17    14    1
    32    43    40    1
    33    22    23    2
    34    22    21    1
    35    40    41    1
    36    20    21    2
    37    20    15    1
    38    73    71    1
    39    71    72    1
    40    14    15    1
    41    14    13    1
    42    15    16    2
    43    41    42    2
    44    41    50   am
    45    13    11   am
    46    12    11    2
    47    50    51    1
    48    11    10    1
    49    59    60    2
    50    59    58    1
    51    53    52    2
    52    52    51    1
    53    51    54    1
    54    10     9    1
    55    62    61    1
    56    62    63    1
    57    58    61    1
    58    58    57    1
    59     1     2    1
    60     9     3   am
    61    63    64    1
    62     3     2    1
    63     3     4    2
    64    54    56    1
    65    54    55    1
    66     2     5    1
    67    64    65    1
    68     5     6    1
    69     6     8    1
    70     6     7    1
    71   118   117    2
    72   117   116    1
    73    91    89   ar
    74   114   112   ar
    75    82    80   ar
    76    88    89    1
    77    88    87    1
    78   119   116    1
    79   119   120    1
    80   113   112   ar
    81   112   111    1
    82    89    90   ar
    83   116   115    1
    84    87    84    1
    85    81    80   ar
    86   111   108    1
    87    80    79    1
    88   121   120   ar
    89   121   123   ar
    90   120   122   ar
    91   108   109    1
    92   108   107    1
    93   109   110    2
    94   123   125   ar
    95   122   124   ar
    96    86    85    2
    97    84    85    1
    98    84    83    1
    99    79    78    1
   100   107   102   am
   101   125   124   ar
   102   105   104    1
   103    78    75    1
   104   106   104    1
   105   102   103    2
   106   102   101    1
   107   104   101    1
   108    99    97    1
   109    74    75    1
   110   101   100    1
   111    75    76    1
   112    98    97    1
   113    97    96    1
   114    77    76    2
   115    96    93    1
   116    92    93    1
   117    93    94    1
   118    94    95    2
