@<TRIPOS>MOLECULE
tmp/5n39A01.pdb
 134 126 0 0 0
SMALL
GASTEIGER

@<TRIPOS>ATOM
      1  N        -15.6810   29.9230  -30.7720 N.3    49  LEU49      -0.1231
      2  CA       -14.8710   30.1380  -29.5670 C.3    49  LEU49       0.1693
      3  C        -13.4400   29.6280  -29.6770 C.2    49  LEU49       0.2593
      4  O        -12.6180   29.9410  -28.7990 O.2    49  LEU49      -0.2718
      5  CB       -15.5340   29.4660  -28.3640 C.3    49  LEU49       0.0284
      6  CG       -16.9290   29.9700  -27.9930 C.3    49  LEU49       0.0019
      7  CD1      -17.5260   29.0830  -26.8770 C.3    49  LEU49       0.0001
      8  CD2      -16.9450   31.4210  -27.5700 C.3    49  LEU49       0.0001
      9  N        -13.1770   28.7670  -30.6410 N.am   50  GLY50      -0.1942
     10  CA       -11.8660   28.1700  -30.8360 C.3    50  GLY50       0.2014
     11  C        -11.9300   27.2840  -32.0680 C.2    50  GLY50       0.2639
     12  O        -12.9970   26.8200  -32.4710 O.2    50  GLY50      -0.2714
     13  N        -10.7660   27.0690  -32.6650 N.am   51  THR51      -0.1950
     14  CA       -10.6680   26.3240  -33.9250 C.3    51  THR51       0.1897
     15  C         -9.3980   25.4830  -33.9410 C.2    51  THR51       0.2313
     16  O         -8.3290   25.9690  -33.5690 O.2    51  THR51      -0.2863
     17  CB       -10.5700   27.2530  -35.1390 C.3    51  THR51       0.1794
     18  OG1       -9.3870   28.0580  -35.0050 O.3    51  THR51      -0.2208
     19  CG2      -11.7930   28.1260  -35.2880 C.3    51  THR51       0.0378
     20  N        -15.1090   24.8900  -32.0170 N.3    57  VAL57      -0.1245
     21  CA       -16.0390   24.9510  -30.9010 C.3    57  VAL57       0.1561
     22  C        -16.8180   26.2450  -31.0460 C.2    57  VAL57       0.2260
     23  O        -16.2290   27.3140  -31.2490 O.2    57  VAL57      -0.2867
     24  CB       -15.3220   24.9130  -29.5550 C.3    57  VAL57       0.0252
     25  CG1      -16.3240   25.0720  -28.4320 C.3    57  VAL57       0.0019
     26  CG2      -14.5280   23.6060  -29.3850 C.3    57  VAL57       0.0019
     27  N        -21.2950   25.1530  -25.2510 N.3    70  ALA70      -0.1245
     28  CA       -20.1830   25.0790  -26.1840 C.3    70  ALA70       0.1562
     29  C        -20.3090   23.8000  -26.9970 C.2    70  ALA70       0.2260
     30  O        -20.2820   22.7060  -26.4480 O.2    70  ALA70      -0.2867
     31  CB       -18.8670   25.0780  -25.4100 C.3    70  ALA70       0.0290
     32  N        -14.9090   19.3220  -17.7530 N.3   104  VAL104     -0.1245
     33  CA       -16.0960   19.8850  -18.3840 C.3   104  VAL104      0.1561
     34  C        -17.1630   18.8090  -18.5410 C.2   104  VAL104      0.2260
     35  O        -16.8800   17.6280  -18.7930 O.2   104  VAL104     -0.2867
     36  CB       -15.7280   20.5630  -19.7070 C.3   104  VAL104      0.0252
     37  CG1      -15.3630   19.5230  -20.7910 C.3   104  VAL104      0.0019
     38  CG2      -16.8820   21.4490  -20.1740 C.3   104  VAL104      0.0019
     39  N        -21.3370   20.7780  -24.7590 N.3   120  MET120     -0.1230
     40  CA       -20.7980   20.8080  -23.4120 C.3   120  MET120      0.1702
     41  C        -21.1970   22.0910  -22.7120 C.2   120  MET120      0.2592
     42  O        -21.6060   23.0660  -23.3340 O.2   120  MET120     -0.2718
     43  CB       -19.2820   20.7770  -23.4620 C.3   120  MET120      0.0401
     44  CG       -18.7900   19.5110  -24.0020 C.3   120  MET120      0.0596
     45  SD       -17.0830   19.7440  -24.4400 S.3   120  MET120     -0.1393
     46  CE       -17.2380   20.3420  -26.1200 C.3   120  MET120      0.0692
     47  N        -21.0380   22.0850  -21.3910 N.am  121  GLU121     -0.1966
     48  CA       -21.2560   23.3020  -20.6180 C.3   121  GLU121      0.1733
     49  C        -20.3830   24.4220  -21.1600 C.2   121  GLU121      0.2616
     50  O        -19.2160   24.2110  -21.5110 O.2   121  GLU121     -0.2715
     51  CB       -20.8950   23.0640  -19.1500 C.3   121  GLU121      0.0429
     52  CG       -21.2080   24.2650  -18.2690 C.3   121  GLU121      0.1163
     53  CD       -20.9750   24.0760  -16.7820 C.2   121  GLU121      0.3649
     54  OE1      -21.0470   22.9410  -16.2930 O.co2 121  GLU121     -0.2457
     55  OE2      -20.7260   25.1010  -16.1020 O.co2 121  GLU121     -0.2457
     56  N        -20.9810   25.6070  -21.3010 N.am  122  TYR122     -0.1960
     57  CA       -20.2470   26.7970  -21.6840 C.3   122  TYR122      0.1771
     58  C        -19.6000   27.4120  -20.4370 C.2   122  TYR122      0.2619
     59  O        -20.2660   27.6560  -19.4250 O.2   122  TYR122     -0.2715
     60  CB       -21.1730   27.8100  -22.3650 C.3   122  TYR122      0.0574
     61  CG       -20.4790   29.1210  -22.6990 C.ar  122  TYR122     -0.0198
     62  CD1      -19.2720   29.1480  -23.3910 C.ar  122  TYR122     -0.0009
     63  CD2      -21.0510   30.3400  -22.3690 C.ar  122  TYR122     -0.0009
     64  CE1      -18.6490   30.3320  -23.7060 C.ar  122  TYR122      0.0417
     65  CE2      -20.4270   31.5200  -22.6680 C.ar  122  TYR122      0.0417
     66  CZ       -19.2130   31.5180  -23.3490 C.ar  122  TYR122      0.1957
     67  OH       -18.5540   32.7050  -23.6620 O.3   122  TYR122     -0.2866
     68  N        -18.3010   27.6620  -20.5280 N.am  123  VAL123     -0.1977
     69  CA       -17.4920   28.1950  -19.4390 C.3   123  VAL123      0.1596
     70  C        -17.0540   29.5850  -19.8870 C.2   123  VAL123      0.2287
     71  O        -16.1310   29.7000  -20.7000 O.2   123  VAL123     -0.2864
     72  CB       -16.2730   27.3160  -19.1510 C.3   123  VAL123      0.0276
     73  CG1      -15.5090   27.8490  -17.9450 C.3   123  VAL123      0.0022
     74  CG2      -16.7240   25.8820  -18.9370 C.3   123  VAL123      0.0022
     75  N        -10.0240   30.9280  -21.8210 N.3   127  GLU127     -0.1245
     76  CA        -8.8880   30.0180  -21.6680 C.3   127  GLU127      0.1567
     77  C         -7.8330   30.6130  -20.7370 C.2   127  GLU127      0.2260
     78  O         -7.4940   31.8060  -20.8140 O.2   127  GLU127     -0.2867
     79  CB        -8.2190   29.7760  -23.0040 C.3   127  GLU127      0.0388
     80  CG        -9.1000   29.0770  -24.0230 C.3   127  GLU127      0.1160
     81  CD        -8.4520   28.9480  -25.4050 C.2   127  GLU127      0.3649
     82  OE1       -7.3120   29.4200  -25.5820 O.co2 127  GLU127     -0.2457
     83  OE2       -9.0770   28.3740  -26.3200 O.co2 127  GLU127     -0.2457
     84  N         -4.1770   26.2540  -23.2920 N.3   169  GLU169     -0.1231
     85  CA        -5.2620   26.3920  -24.2730 C.3   169  GLU169      0.1699
     86  C         -6.4650   25.5300  -23.9010 C.2   169  GLU169      0.2592
     87  O         -7.5880   25.8290  -24.3240 O.2   169  GLU169     -0.2718
     88  CB        -4.7970   25.9920  -25.6930 C.3   169  GLU169      0.0402
     89  CG        -3.7350   26.8880  -26.3240 C.3   169  GLU169      0.1161
     90  CD        -2.2710   26.5460  -25.9890 C.2   169  GLU169      0.3649
     91  OE1       -1.9490   26.1800  -24.8290 O.co2 169  GLU169     -0.2457
     92  OE2       -1.4320   26.6550  -26.9000 O.co2 169  GLU169     -0.2457
     93  N         -6.2370   24.4270  -23.2080 N.am  170  ASN170     -0.1974
     94  CA        -7.2660   23.4400  -22.8890 C.3   170  ASN170      0.1688
     95  C         -7.8480   23.6010  -21.4880 C.2   170  ASN170      0.2292
     96  O         -8.5900   22.7290  -21.0440 O.2   170  ASN170     -0.2864
     97  CB        -6.7020   22.0200  -23.0510 C.3   170  ASN170      0.1181
     98  CG        -6.5620   21.6250  -24.5070 C.2   170  ASN170      0.2629
     99  OD1       -7.1660   22.2810  -25.3950 O.2   170  ASN170     -0.2716
    100  ND2       -5.9800   20.5220  -24.7430 N.am  170  ASN170     -0.0877
    101  N        -10.0880   26.0710  -19.1100 N.3   172  LEU172     -0.1245
    102  CA       -10.9580   27.2250  -19.0230 C.3   172  LEU172      0.1561
    103  C        -11.1300   27.6520  -17.5750 C.2   172  LEU172      0.2260
    104  O        -11.0130   26.8460  -16.6690 O.2   172  LEU172     -0.2867
    105  CB       -12.3290   26.9590  -19.6220 C.3   172  LEU172      0.0270
    106  CG       -12.3300   26.5170  -21.0650 C.3   172  LEU172      0.0019
    107  CD1      -13.7240   26.1990  -21.5220 C.3   172  LEU172      0.0001
    108  CD2      -11.7420   27.5520  -21.9300 C.3   172  LEU172      0.0001
    109  N        -10.9300   20.8890  -20.7240 N.3   182  THR182     -0.1203
    110  CA       -11.6790   20.5100  -21.8940 C.3   182  THR182      0.1994
    111  C        -10.7460   19.8680  -22.9110 C.2   182  THR182      0.2617
    112  O         -9.5170   19.8250  -22.7700 O.2   182  THR182     -0.2717
    113  CB       -12.3660   21.7120  -22.5340 C.3   182  THR182      0.1784
    114  OG1      -13.1850   21.2270  -23.6030 O.3   182  THR182     -0.2211
    115  CG2      -11.3180   22.7110  -23.0740 C.3   182  THR182      0.0376
    116  N        -11.3490   19.3760  -23.9550 N.am  183  ASP183     -0.1973
    117  CA       -10.6280   18.7470  -24.9890 C.3   183  ASP183      0.1709
    118  C        -10.0250   17.4120  -24.6600 C.2   183  ASP183      0.2293
    119  O         -8.8060   17.2610  -24.4330 O.2   183  ASP183     -0.2864
    120  CB        -9.7690   19.6740  -25.7200 C.3   183  ASP183      0.1436
    121  CG        -9.9160   19.3540  -27.0990 C.2   183  ASP183      0.3671
    122  OD1       -9.4620   18.2090  -27.3810 O.co2 183  ASP183     -0.2456
    123  OD2      -10.7250   20.0510  -27.7610 O.co2 183  ASP183     -0.2456
    124  N        -13.1480   35.5330  -24.7470 N.3   325  PHE325     -0.1241
    125  CA       -12.5980   34.7190  -25.8140 C.3   325  PHE325      0.1605
    126  C        -12.1200   35.5830  -26.9780 C.2   325  PHE325      0.2264
    127  O        -12.6830   36.6450  -27.2760 O.2   325  PHE325     -0.2867
    128  CB       -13.6210   33.7180  -26.3470 C.3   325  PHE325      0.0534
    129  CG       -13.9540   32.6360  -25.3530 C.ar  325  PHE325     -0.0203
    130  CD1      -13.2290   31.4700  -25.3220 C.ar  325  PHE325     -0.0042
    131  CD2      -14.9330   32.8200  -24.4190 C.ar  325  PHE325     -0.0042
    132  CE1      -13.4890   30.4750  -24.4300 C.ar  325  PHE325     -0.0003
    133  CE2      -15.2070   31.8390  -23.4790 C.ar  325  PHE325     -0.0003
    134  CZ       -14.4750   30.6510  -23.4790 C.ar  325  PHE325     -0.0000
@<TRIPOS>BOND
     1    19    17    1
     2    17    18    1
     3    17    14    1
     4    15    14    1
     5    15    16    2
     6    14    13    1
     7    13    11   am
     8    12    11    2
     9    11    10    1
    10    20    21    1
    11    23    22    2
    12    22    21    1
    13    21    24    1
    14    10     9    1
    15     1     2    1
    16     9     3   am
    17     3     2    1
    18     3     4    2
    19     2     5    1
    20    24    26    1
    21    24    25    1
    22     5     6    1
    23     6     8    1
    24     6     7    1
    25   123   121   ar
    26   122   121   ar
    27   127   126    2
    28   121   120    1
    29    29    30    2
    30    29    28    1
    31   126   125    1
    32    92    90   ar
    33   128   125    1
    34   128   129    1
    35    89    90    1
    36    89    88    1
    37    83    81   ar
    38    28    31    1
    39    28    27    1
    40    46    45    1
    41    90    91   ar
    42   125   124    1
    43   120   117    1
    44    88    85    1
    45    82    81   ar
    46    81    80    1
    47    99    98    2
    48   129   130   ar
    49   129   131   ar
    50   130   132   ar
    51   117   118    1
    52   117   116    1
    53    39    40    1
    54   100    98   am
    55   118   119    2
    56    98    97    1
    57    45    44    1
    58   132   134   ar
    59   131   133   ar
    60    87    86    2
    61    85    86    1
    62    85    84    1
    63    80    79    1
    64    44    43    1
    65   116   111   am
    66    86    93   am
    67    64    62   ar
    68    64    66   ar
    69    67    66    1
    70   114   113    1
    71   133   134   ar
    72    43    40    1
    73    40    41    1
    74    62    61   ar
    75    66    65   ar
    76    42    41    2
    77    93    94    1
    78   115   113    1
    79    97    94    1
    80    79    76    1
    81   111   112    2
    82   111   110    1
    83    94    95    1
    84    41    47   am
    85    61    63   ar
    86    61    60    1
    87    65    63   ar
    88   113   110    1
    89    60    57    1
    90   108   106    1
    91   110   109    1
    92    75    76    1
    93    57    56    1
    94    57    58    1
    95    76    77    1
    96   107   106    1
    97    50    49    2
    98    95    96    2
    99    47    48    1
   100    56    49   am
   101    49    48    1
   102   106   105    1
   103    78    77    2
   104    37    36    1
   105    71    70    2
   106    48    51    1
   107    68    58   am
   108    68    69    1
   109    58    59    2
   110    38    36    1
   111    70    69    1
   112    36    33    1
   113   105   102    1
   114    69    72    1
   115    72    74    1
   116    72    73    1
   117    51    52    1
   118   101   102    1
   119   102   103    1
   120    35    34    2
   121    34    33    1
   122    33    32    1
   123    52    53    1
   124   103   104    2
   125    53    54   ar
   126    53    55   ar
