@<TRIPOS>MOLECULE
tmp/5n3aA01.pdb
 101 92 0 0 0
SMALL
GASTEIGER

@<TRIPOS>ATOM
      1  N        -15.7690   30.4550  -30.6160 N.3    51  LEU51      -0.1231
      2  CA       -14.9370   30.6570  -29.4340 C.3    51  LEU51       0.1693
      3  C        -13.5190   30.1380  -29.5970 C.2    51  LEU51       0.2592
      4  O        -12.6500   30.5130  -28.8050 O.2    51  LEU51      -0.2718
      5  CB       -15.5610   29.9460  -28.2230 C.3    51  LEU51       0.0284
      6  CG       -16.9700   30.3800  -27.8360 C.3    51  LEU51       0.0019
      7  CD1      -17.5490   29.4760  -26.7350 C.3    51  LEU51       0.0001
      8  CD2      -16.9780   31.8430  -27.4140 C.3    51  LEU51       0.0001
      9  N        -13.2830   29.2650  -30.5610 N.am   52  GLY52      -0.1957
     10  CA       -11.9640   28.7120  -30.7910 C.3    52  GLY52       0.1869
     11  C        -12.0220   27.8260  -32.0130 C.2    52  GLY52       0.2309
     12  O        -13.0990   27.3990  -32.4450 O.2    52  GLY52      -0.2863
     13  N        -15.1620   25.4370  -31.9840 N.3    59  VAL59      -0.1245
     14  CA       -16.0790   25.4510  -30.8530 C.3    59  VAL59       0.1561
     15  C        -16.8650   26.7470  -30.9240 C.2    59  VAL59       0.2260
     16  O        -16.2880   27.8200  -31.1260 O.2    59  VAL59      -0.2867
     17  CB       -15.3400   25.3350  -29.5110 C.3    59  VAL59       0.0252
     18  CG1      -16.3390   25.3460  -28.3540 C.3    59  VAL59       0.0019
     19  CG2      -14.4600   24.0780  -29.4780 C.3    59  VAL59       0.0019
     20  N        -21.2950   25.4290  -25.0760 N.3    72  ALA72      -0.1245
     21  CA       -20.2030   25.4010  -26.0380 C.3    72  ALA72       0.1562
     22  C        -20.3730   24.1590  -26.9030 C.2    72  ALA72       0.2260
     23  O        -20.4720   23.0450  -26.3820 O.2    72  ALA72      -0.2867
     24  CB       -18.8570   25.3580  -25.3130 C.3    72  ALA72       0.0290
     25  N        -18.7180   21.8820  -29.7760 N.3    74  LYS74      -0.1245
     26  CA       -17.5820   21.5050  -30.6020 C.3    74  LYS74       0.1561
     27  C        -18.1020   20.8060  -31.8510 C.2    74  LYS74       0.2260
     28  O        -18.9010   19.8670  -31.7550 O.2    74  LYS74      -0.2867
     29  CB       -16.6430   20.5860  -29.8210 C.3    74  LYS74       0.0271
     30  CG       -15.3770   20.2420  -30.5660 C.3    74  LYS74       0.0035
     31  CD       -14.3930   19.4960  -29.6790 C.3    74  LYS74       0.0206
     32  CE       -13.1770   19.0890  -30.4870 C.3    74  LYS74       0.1093
     33  NZ       -12.1300   18.4650  -29.6220 N.3    74  LYS74      -0.1314
     34  N        -21.3060   21.0100  -24.6620 N.3   122  MET122     -0.1245
     35  CA       -20.8360   20.9980  -23.2840 C.3   122  MET122      0.1570
     36  C        -21.2060   22.2980  -22.5940 C.2   122  MET122      0.2261
     37  O        -21.5640   23.2930  -23.2300 O.2   122  MET122     -0.2867
     38  CB       -19.3130   20.9020  -23.2070 C.3   122  MET122      0.0387
     39  CG       -18.6730   19.9080  -24.0920 C.3   122  MET122      0.0595
     40  SD       -17.0500   20.5750  -24.3930 S.3   122  MET122     -0.1393
     41  CE       -17.1660   21.0020  -26.1200 C.3   122  MET122      0.0692
     42  N         -9.9950   31.1760  -21.7640 N.3   129  GLU129     -0.1245
     43  CA        -8.8770   30.2530  -21.6080 C.3   129  GLU129      0.1567
     44  C         -7.8140   30.8090  -20.6720 C.2   129  GLU129      0.2260
     45  O         -7.4870   32.0050  -20.7210 O.2   129  GLU129     -0.2867
     46  CB        -8.1970   30.0470  -22.9550 C.3   129  GLU129      0.0388
     47  CG        -9.0820   29.3950  -23.9880 C.3   129  GLU129      0.1160
     48  CD        -8.4570   29.3570  -25.3740 C.2   129  GLU129      0.3649
     49  OE1       -7.3170   29.8390  -25.5320 O.co2 129  GLU129     -0.2457
     50  OE2       -9.0920   28.8150  -26.3040 O.co2 129  GLU129     -0.2457
     51  N         -4.1200   26.4490  -23.2620 N.3   171  GLU171     -0.1231
     52  CA        -5.1910   26.5820  -24.2490 C.3   171  GLU171      0.1699
     53  C         -6.3870   25.6930  -23.9210 C.2   171  GLU171      0.2592
     54  O         -7.4960   25.9530  -24.3970 O.2   171  GLU171     -0.2718
     55  CB        -4.6720   26.1540  -25.6310 C.3   171  GLU171      0.0402
     56  CG        -3.6320   27.0940  -26.2590 C.3   171  GLU171      0.1161
     57  CD        -2.1740   26.7460  -25.9270 C.2   171  GLU171      0.3649
     58  OE1       -1.8600   26.3860  -24.7640 O.co2 171  GLU171     -0.2457
     59  OE2       -1.3340   26.8640  -26.8460 O.co2 171  GLU171     -0.2457
     60  N         -6.1880   24.6360  -23.1330 N.am  172  ASN172     -0.1974
     61  CA        -7.2130   23.6350  -22.8560 C.3   172  ASN172      0.1688
     62  C         -7.8420   23.8040  -21.4880 C.2   172  ASN172      0.2292
     63  O         -8.6610   22.9660  -21.0850 O.2   172  ASN172     -0.2864
     64  CB        -6.6180   22.2310  -22.9660 C.3   172  ASN172      0.1181
     65  CG        -6.4750   21.8110  -24.3990 C.2   172  ASN172      0.2629
     66  OD1       -6.8710   22.5550  -25.3080 O.2   172  ASN172     -0.2716
     67  ND2       -6.0160   20.6240  -24.6240 N.am  172  ASN172     -0.0877
     68  N        -10.0610   26.2160  -19.0780 N.3   174  LEU174     -0.1245
     69  CA       -10.9420   27.3700  -19.0260 C.3   174  LEU174      0.1561
     70  C        -11.1430   27.7930  -17.5780 C.2   174  LEU174      0.2260
     71  O        -11.0590   26.9780  -16.6590 O.2   174  LEU174     -0.2867
     72  CB       -12.2970   27.0380  -19.6500 C.3   174  LEU174      0.0270
     73  CG       -12.2410   26.4990  -21.0650 C.3   174  LEU174      0.0019
     74  CD1      -13.6220   26.1020  -21.5330 C.3   174  LEU174      0.0001
     75  CD2      -11.6680   27.5720  -21.9540 C.3   174  LEU174      0.0001
     76  N        -11.0260   21.1810  -20.6520 N.3   184  THR184     -0.1203
     77  CA       -11.7850   20.7970  -21.8020 C.3   184  THR184      0.1994
     78  C        -10.8620   20.0860  -22.7870 C.2   184  THR184      0.2617
     79  O         -9.6690   19.8510  -22.5330 O.2   184  THR184     -0.2717
     80  CB       -12.4830   22.0070  -22.4250 C.3   184  THR184      0.1784
     81  OG1      -13.2920   21.5440  -23.5180 O.3   184  THR184     -0.2211
     82  CG2      -11.4710   23.0670  -22.9380 C.3   184  THR184      0.0376
     83  N        -11.4250   19.7530  -23.9200 N.am  185  ASP185     -0.1973
     84  CA       -10.7020   19.1570  -25.0230 C.3   185  ASP185      0.1709
     85  C        -10.1100   17.8100  -24.6440 C.2   185  ASP185      0.2293
     86  O         -8.9170   17.6880  -24.3280 O.2   185  ASP185     -0.2864
     87  CB        -9.6990   20.1290  -25.6270 C.3   185  ASP185      0.1436
     88  CG        -9.2200   19.6750  -26.9740 C.2   185  ASP185      0.3671
     89  OD1       -9.5490   18.5250  -27.3370 O.co2 185  ASP185     -0.2456
     90  OD2       -8.5140   20.4500  -27.6630 O.co2 185  ASP185     -0.2456
     91  N        -13.1340   35.8030  -24.6420 N.3   327  PHE327     -0.1241
     92  CA       -12.6000   34.9910  -25.7210 C.3   327  PHE327      0.1605
     93  C        -12.1640   35.8700  -26.8840 C.2   327  PHE327      0.2264
     94  O        -12.7240   36.9470  -27.1250 O.2   327  PHE327     -0.2867
     95  CB       -13.6180   33.9630  -26.2310 C.3   327  PHE327      0.0534
     96  CG       -13.9210   32.8880  -25.2350 C.ar  327  PHE327     -0.0203
     97  CD1      -13.1980   31.7090  -25.2290 C.ar  327  PHE327     -0.0042
     98  CD2      -14.9160   33.0740  -24.2860 C.ar  327  PHE327     -0.0042
     99  CE1      -13.4840   30.7090  -24.2820 C.ar  327  PHE327     -0.0003
    100  CE2      -15.1990   32.1050  -23.3560 C.ar  327  PHE327     -0.0003
    101  CZ       -14.4760   30.9140  -23.3450 C.ar  327  PHE327     -0.0000
@<TRIPOS>BOND
     1    12    11    2
     2    11    10    1
     3    13    14    1
     4    27    28    2
     5    27    26    1
     6    16    15    2
     7    15    14    1
     8    14    17    1
     9    10     9    1
    10     1     2    1
    11    26    29    1
    12    26    25    1
    13    30    29    1
    14    30    31    1
    15     9     3   am
    16    32    31    1
    17    32    33    1
    18     3     2    1
    19     3     4    2
    20    17    19    1
    21    17    18    1
    22     2     5    1
    23     5     6    1
    24     6     8    1
    25     6     7    1
    26    90    88   ar
    27    89    88   ar
    28    94    93    2
    29    88    87    1
    30    22    23    2
    31    22    21    1
    32    93    92    1
    33    59    57   ar
    34    50    48   ar
    35    56    57    1
    36    56    55    1
    37    95    92    1
    38    95    96    1
    39    41    40    1
    40    21    24    1
    41    21    20    1
    42    57    58   ar
    43    92    91    1
    44    55    52    1
    45    87    84    1
    46    49    48   ar
    47    48    47    1
    48    66    65    2
    49    96    97   ar
    50    96    98   ar
    51    97    99   ar
    52    84    85    1
    53    84    83    1
    54    34    35    1
    55    85    86    2
    56    67    65   am
    57    65    64    1
    58    54    53    2
    59    40    39    1
    60    98   100   ar
    61    99   101   ar
    62    52    53    1
    63    52    51    1
    64    39    38    1
    65    47    46    1
    66    53    60   am
    67    83    78   am
    68    81    80    1
    69   100   101   ar
    70    35    38    1
    71    35    36    1
    72    37    36    2
    73    60    61    1
    74    64    61    1
    75    46    43    1
    76    82    80    1
    77    61    62    1
    78    78    79    2
    79    78    77    1
    80    80    77    1
    81    75    73    1
    82    77    76    1
    83    42    43    1
    84    43    44    1
    85    74    73    1
    86    62    63    2
    87    73    72    1
    88    45    44    2
    89    72    69    1
    90    68    69    1
    91    69    70    1
    92    70    71    2
