@<TRIPOS>MOLECULE
tmp/5n3bA01.pdb
 111 103 0 0 0
SMALL
GASTEIGER

@<TRIPOS>ATOM
      1  N        -30.5160    3.4590   11.7740 N.3    44  LEU44      -0.1231
      2  CA       -29.6610    2.2970   12.0010 C.3    44  LEU44       0.1693
      3  C        -28.2590    2.4460   11.4290 C.2    44  LEU44       0.2592
      4  O        -27.3890    1.6150   11.7270 O.2    44  LEU44      -0.2718
      5  CB       -30.3010    1.0590   11.3790 C.3    44  LEU44       0.0284
      6  CG       -31.7160    0.6900   11.7950 C.3    44  LEU44       0.0019
      7  CD1      -32.2680   -0.4050   10.8830 C.3    44  LEU44       0.0001
      8  CD2      -31.7430    0.2420   13.2590 C.3    44  LEU44       0.0001
      9  N        -28.0320    3.4400   10.5850 N.am   45  GLY45      -0.1957
     10  CA       -26.7460    3.6600    9.9620 C.3    45  GLY45       0.1869
     11  C        -26.7760    4.9270    9.1290 C.2    45  GLY45       0.2309
     12  O        -27.8480    5.3220    8.6550 O.2    45  GLY45      -0.2863
     13  N        -29.9500    4.8400    6.7330 N.3    52  VAL52      -0.1245
     14  CA       -30.8510    3.6970    6.7800 C.3    52  VAL52       0.1561
     15  C        -31.6350    3.7810    8.0820 C.2    52  VAL52       0.2260
     16  O        -31.0450    3.9020    9.1630 O.2    52  VAL52      -0.2867
     17  CB       -30.0950    2.3600    6.6760 C.3    52  VAL52       0.0252
     18  CG1      -31.0950    1.1900    6.7670 C.3    52  VAL52       0.0019
     19  CG2      -29.3200    2.2790    5.3660 C.3    52  VAL52       0.0019
     20  N        -36.0520   -2.1200    6.7900 N.3    65  ALA65      -0.1245
     21  CA       -34.9580   -1.1560    6.7510 C.3    65  ALA65       0.1562
     22  C        -35.1090   -0.3070    5.4950 C.2    65  ALA65       0.2260
     23  O        -35.1170   -0.8420    4.3800 O.2    65  ALA65      -0.2867
     24  CB       -33.6030   -1.8570    6.7780 C.3    65  ALA65       0.0290
     25  N        -36.0480   -2.5670    2.4100 N.3   115  MET115     -0.1245
     26  CA       -35.5150   -3.9190    2.4460 C.3   115  MET115      0.1570
     27  C        -36.0000   -4.6330    3.6980 C.2   115  MET115      0.2261
     28  O        -36.4860   -4.0190    4.6490 O.2   115  MET115     -0.2867
     29  CB       -33.9830   -3.8980    2.4510 C.3   115  MET115      0.0387
     30  CG       -33.3450   -2.9590    1.4560 C.3   115  MET115      0.0595
     31  SD       -31.6200   -2.7460    1.8860 S.3   115  MET115     -0.1393
     32  CE       -31.6270   -1.2250    2.8540 C.3   115  MET115      0.0692
     33  N        -35.7900   -6.1140    7.2360 N.3   117  TYR117     -0.1227
     34  CA       -35.0290   -5.7150    8.4110 C.3   117  TYR117      0.1736
     35  C        -34.3300   -6.9300    8.9950 C.2   117  TYR117      0.2595
     36  O        -34.9510   -7.9690    9.2260 O.2   117  TYR117     -0.2718
     37  CB       -35.9490   -5.0670    9.4510 C.3   117  TYR117      0.0548
     38  CG       -35.2600   -4.7080   10.7710 C.ar  117  TYR117     -0.0200
     39  CD1      -34.0750   -3.9860   10.7850 C.ar  117  TYR117     -0.0009
     40  CD2      -35.8060   -5.0940   11.9880 C.ar  117  TYR117     -0.0009
     41  CE1      -33.4490   -3.6600   11.9720 C.ar  117  TYR117      0.0417
     42  CE2      -35.1900   -4.7550   13.1910 C.ar  117  TYR117      0.0417
     43  CZ       -34.0060   -4.0480   13.1710 C.ar  117  TYR117      0.1957
     44  OH       -33.3680   -3.7110   14.3630 O.3   117  TYR117     -0.2866
     45  N        -33.0220   -6.8090    9.1970 N.am  118  VAL118     -0.1980
     46  CA       -32.1940   -7.8760    9.7410 C.3   118  VAL118      0.1595
     47  C        -31.7160   -7.4140   11.1090 C.2   118  VAL118      0.2287
     48  O        -30.8090   -6.5690   11.1910 O.2   118  VAL118     -0.2864
     49  CB       -31.0190   -8.1980    8.8130 C.3   118  VAL118      0.0276
     50  CG1      -30.1680   -9.3340    9.4060 C.3   118  VAL118      0.0022
     51  CG2      -31.5300   -8.5350    7.4220 C.3   118  VAL118      0.0022
     52  N        -24.7140   -5.3940   12.6040 N.3   122  GLU122     -0.1245
     53  CA       -23.5670   -5.5330   11.7130 C.3   122  GLU122      0.1567
     54  C        -22.5160   -6.4510   12.3110 C.2   122  GLU122      0.2260
     55  O        -22.1890   -6.3670   13.5000 O.2   122  GLU122     -0.2867
     56  CB       -22.9020   -4.1760   11.4610 C.3   122  GLU122      0.0388
     57  CG       -23.8080   -3.1320   10.8580 C.3   122  GLU122      0.1160
     58  CD       -23.1370   -1.7620   10.7030 C.2   122  GLU122      0.3649
     59  OE1      -21.9630   -1.6090   11.1080 O.co2 122  GLU122     -0.2457
     60  OE2      -23.7970   -0.8350   10.1640 O.co2 122  GLU122     -0.2457
     61  N        -18.8530   -3.9010    7.9660 N.3   164  GLU164     -0.1231
     62  CA       -19.9330   -2.9230    8.1110 C.3   164  GLU164      0.1699
     63  C        -21.1320   -3.2630    7.2320 C.2   164  GLU164      0.2592
     64  O        -22.2440   -2.7620    7.4860 O.2   164  GLU164     -0.2718
     65  CB       -19.4400   -1.5190    7.7140 C.3   164  GLU164      0.0402
     66  CG       -18.3710   -0.8520    8.5790 C.3   164  GLU164      0.1161
     67  CD       -16.9120   -1.1880    8.2210 C.2   164  GLU164      0.3649
     68  OE1      -16.5890   -2.3490    7.8680 O.co2 164  GLU164     -0.2457
     69  OE2      -16.0580   -0.2730    8.3430 O.co2 164  GLU164     -0.2457
     70  N        -20.9110   -4.0190    6.1600 N.am  165  ASN165     -0.1974
     71  CA       -21.9400   -4.3260    5.1840 C.3   165  ASN165      0.1688
     72  C        -22.5190   -5.7240    5.3390 C.2   165  ASN165      0.2292
     73  O        -23.2880   -6.1530    4.4800 O.2   165  ASN165     -0.2864
     74  CB       -21.3740   -4.1680    3.7820 C.3   165  ASN165      0.1181
     75  CG       -21.1920   -2.7180    3.3870 C.2   165  ASN165      0.2629
     76  OD1      -21.6200   -1.7970    4.1170 O.2   165  ASN165     -0.2716
     77  ND2      -20.6550   -2.4920    2.1960 N.am  165  ASN165     -0.0877
     78  N        -24.7650   -8.1010    7.7070 N.3   167  LEU167     -0.1245
     79  CA       -25.6590   -8.1550    8.8450 C.3   167  LEU167      0.1561
     80  C        -25.8490   -9.6020    9.3140 C.2   167  LEU167      0.2260
     81  O        -25.7890  -10.5490    8.5180 O.2   167  LEU167     -0.2867
     82  CB       -27.0090   -7.5400    8.4790 C.3   167  LEU167      0.0270
     83  CG       -26.9350   -6.1700    7.7980 C.3   167  LEU167      0.0019
     84  CD1      -28.3500   -5.6790    7.4660 C.3   167  LEU167      0.0001
     85  CD2      -26.2100   -5.1630    8.6800 C.3   167  LEU167      0.0001
     86  N        -25.6220   -6.5240    2.5850 N.3   177  THR177     -0.1203
     87  CA       -26.4070   -5.3800    2.1950 C.3   177  THR177      0.1994
     88  C        -25.4920   -4.3330    1.5760 C.2   177  THR177      0.2617
     89  O        -24.2820   -4.5230    1.4230 O.2   177  THR177     -0.2717
     90  CB       -27.1850   -4.7980    3.3760 C.3   177  THR177      0.1784
     91  OG1      -28.0420   -3.7560    2.8770 O.3   177  THR177     -0.2211
     92  CG2      -26.2330   -4.2350    4.4810 C.3   177  THR177      0.0376
     93  N        -26.0990   -3.2090    1.2530 N.am  178  ASP178     -0.1973
     94  CA       -25.4460   -2.1110    0.5710 C.3   178  ASP178      0.1709
     95  C        -24.8210   -2.5650   -0.7350 C.2   178  ASP178      0.2293
     96  O        -23.6290   -2.8880   -0.8140 O.2   178  ASP178     -0.2864
     97  CB       -24.3920   -1.4440    1.4320 C.3   178  ASP178      0.1436
     98  CG       -24.0400   -0.0640    0.9100 C.2   178  ASP178      0.3671
     99  OD1      -24.3360    0.2240   -0.2860 O.co2 178  ASP178     -0.2456
    100  OD2      -23.4900    0.7390    1.6980 O.co2 178  ASP178     -0.2456
    101  N        -27.8750   -2.5360   17.2800 N.3   320  PHE320     -0.1241
    102  CA       -27.3210   -1.4570   16.4720 C.3   320  PHE320      0.1605
    103  C        -26.8560   -0.3000   17.3480 C.2   320  PHE320      0.2264
    104  O        -27.4270   -0.0240   18.4140 O.2   320  PHE320     -0.2867
    105  CB       -28.3370   -0.9330   15.4540 C.3   320  PHE320      0.0534
    106  CG       -28.6760   -1.9390   14.3720 C.ar  320  PHE320     -0.0203
    107  CD1      -27.9310   -1.9940   13.2010 C.ar  320  PHE320     -0.0042
    108  CD2      -29.7220   -2.8440   14.5350 C.ar  320  PHE320     -0.0042
    109  CE1      -28.2070   -2.9260   12.2190 C.ar  320  PHE320     -0.0003
    110  CE2      -30.0120   -3.7750   13.5530 C.ar  320  PHE320     -0.0003
    111  CZ       -29.2480   -3.8220   12.3940 C.ar  320  PHE320     -0.0000
@<TRIPOS>BOND
     1    96    95    2
     2    95    94    1
     3    99    98   ar
     4    94    93    1
     5    94    97    1
     6    98    97    1
     7    98   100   ar
     8    93    88   am
     9    89    88    2
    10    30    31    1
    11    30    29    1
    12    88    87    1
    13    31    32    1
    14    87    86    1
    15    87    90    1
    16    77    75   am
    17    25    26    1
    18    26    29    1
    19    26    27    1
    20    91    90    1
    21    90    92    1
    22    75    74    1
    23    75    76    2
    24    27    28    2
    25    74    71    1
    26    23    22    2
    27    73    72    2
    28    71    72    1
    29    71    70    1
    30    19    17    1
    31    22    21    1
    32    70    63   am
    33    17    18    1
    34    17    14    1
    35    13    14    1
    36    21    24    1
    37    21    20    1
    38    14    15    1
    39    63    64    2
    40    63    62    1
    41    33    34    1
    42    51    49    1
    43    84    83    1
    44    78    79    1
    45    65    62    1
    46    65    66    1
    47    83    82    1
    48    83    85    1
    49    68    67   ar
    50    61    62    1
    51    15    16    2
    52    67    69   ar
    53    67    66    1
    54    34    35    1
    55    34    37    1
    56    82    79    1
    57    81    80    2
    58    12    11    2
    59    49    50    1
    60    49    46    1
    61    79    80    1
    62    35    45   am
    63    35    36    2
    64    11    10    1
    65    45    46    1
    66    37    38    1
    67    46    47    1
    68    10     9    1
    69    60    58   ar
    70     9     3   am
    71    58    57    1
    72    58    59   ar
    73    38    39   ar
    74    38    40   ar
    75    39    41   ar
    76    57    56    1
    77     7     6    1
    78    47    48    2
    79     5     6    1
    80     5     2    1
    81     3     4    2
    82     3     2    1
    83    56    53    1
    84    53    54    1
    85    53    52    1
    86     1     2    1
    87     6     8    1
    88    41    43   ar
    89    40    42   ar
    90   109   111   ar
    91   109   107   ar
    92    54    55    2
    93   111   110   ar
    94    43    42   ar
    95    43    44    1
    96   107   106   ar
    97   110   108   ar
    98   106   108   ar
    99   106   105    1
   100   105   102    1
   101   102   101    1
   102   102   103    1
   103   103   104    2
