@<TRIPOS>MOLECULE
tmp/5n3cA01.pdb
 113 104 0 0 0
SMALL
GASTEIGER

@<TRIPOS>ATOM
      1  N        -15.9100   29.8420  -30.9650 N.3    50  LEU50      -0.1231
      2  CA       -15.0640   30.0850  -29.8010 C.3    50  LEU50       0.1693
      3  C        -13.6390   29.5760  -29.9570 C.2    50  LEU50       0.2592
      4  O        -12.7550   30.0080  -29.2020 O.2    50  LEU50      -0.2718
      5  CB       -15.6720   29.4100  -28.5660 C.3    50  LEU50       0.0284
      6  CG       -17.0980   29.8000  -28.2190 C.3    50  LEU50       0.0019
      7  CD1      -17.6220   28.8860  -27.1000 C.3    50  LEU50       0.0001
      8  CD2      -17.1450   31.2620  -27.8230 C.3    50  LEU50       0.0001
      9  N        -13.4010   28.6680  -30.9020 N.am   51  GLY51      -0.1957
     10  CA       -12.0920   28.0910  -31.1390 C.3    51  GLY51       0.1869
     11  C        -12.1040   27.2550  -32.4080 C.2    51  GLY51       0.2309
     12  O        -13.1650   26.7710  -32.8170 O.2    51  GLY51      -0.2863
     13  N        -15.2170   24.7700  -32.1880 N.3    58  VAL58      -0.1245
     14  CA       -16.1200   24.8290  -31.0450 C.3    58  VAL58       0.1561
     15  C        -16.9190   26.1150  -31.1730 C.2    58  VAL58       0.2260
     16  O        -16.3380   27.1910  -31.3570 O.2    58  VAL58      -0.2867
     17  CB       -15.3620   24.7970  -29.7070 C.3    58  VAL58       0.0252
     18  CG1      -16.3400   24.9470  -28.5440 C.3    58  VAL58       0.0019
     19  CG2      -14.5660   23.4990  -29.5760 C.3    58  VAL58       0.0019
     20  N        -21.3610   24.8870  -25.1790 N.3    71  ALA71      -0.1245
     21  CA       -20.2560   24.8300  -26.1330 C.3    71  ALA71       0.1562
     22  C        -20.4450   23.5860  -26.9920 C.2    71  ALA71       0.2260
     23  O        -20.5420   22.4750  -26.4640 O.2    71  ALA71      -0.2867
     24  CB       -18.9090   24.7980  -25.4030 C.3    71  ALA71       0.0290
     25  N        -18.9070   21.2630  -29.9340 N.3    73  LYS73      -0.1245
     26  CA       -17.7700   20.8600  -30.7470 C.3    73  LYS73       0.1561
     27  C        -18.2760   20.1350  -31.9890 C.2    73  LYS73       0.2260
     28  O        -19.0810   19.2040  -31.8800 O.2    73  LYS73      -0.2867
     29  CB       -16.8440   19.9550  -29.9440 C.3    73  LYS73       0.0271
     30  CG       -15.5580   19.5560  -30.6350 C.3    73  LYS73       0.0035
     31  CD       -14.7330   18.6660  -29.7000 C.3    73  LYS73       0.0206
     32  CE       -13.2760   18.5600  -30.1070 C.3    73  LYS73       0.1093
     33  NZ       -12.4720   17.9100  -29.0330 N.3    73  LYS73      -0.1314
     34  N        -21.4050   20.4790  -24.7120 N.3   121  MET121     -0.1245
     35  CA       -21.0160   20.4480  -23.3140 C.3   121  MET121      0.1570
     36  C        -21.2530   21.7970  -22.6710 C.2   121  MET121      0.2261
     37  O        -21.5610   22.7940  -23.3240 O.2   121  MET121     -0.2867
     38  CB       -19.5550   20.0480  -23.1390 C.3   121  MET121      0.0387
     39  CG       -18.5860   20.8550  -23.9700 C.3   121  MET121      0.0595
     40  SD       -17.1280   19.8970  -24.4210 S.3   121  MET121     -0.1393
     41  CE       -17.9090   18.5140  -25.2730 C.3   121  MET121      0.0692
     42  N        -21.0260   25.2950  -21.1890 N.3   123  TYR123     -0.1241
     43  CA       -20.2880   26.4860  -21.5860 C.3   123  TYR123      0.1605
     44  C        -19.5580   27.0820  -20.3840 C.2   123  TYR123      0.2264
     45  O        -20.1530   27.3080  -19.3260 O.2   123  TYR123     -0.2867
     46  CB       -21.2430   27.5130  -22.1990 C.3   123  TYR123      0.0534
     47  CG       -20.5740   28.8180  -22.5960 C.ar  123  TYR123     -0.0201
     48  CD1      -19.4110   28.8200  -23.3580 C.ar  123  TYR123     -0.0009
     49  CD2      -21.1170   30.0420  -22.2200 C.ar  123  TYR123     -0.0009
     50  CE1      -18.7970   30.0050  -23.7350 C.ar  123  TYR123      0.0417
     51  CE2      -20.5050   31.2430  -22.5860 C.ar  123  TYR123      0.0417
     52  CZ       -19.3410   31.2110  -23.3390 C.ar  123  TYR123      0.1957
     53  OH       -18.7130   32.3690  -23.7230 O.3   123  TYR123     -0.2866
     54  N        -10.0900   30.6590  -21.9660 N.3   128  GLU128     -0.1245
     55  CA        -8.9670   29.7380  -21.8540 C.3   128  GLU128      0.1567
     56  C         -7.8980   30.2860  -20.9190 C.2   128  GLU128      0.2260
     57  O         -7.5770   31.4840  -20.9440 O.2   128  GLU128     -0.2867
     58  CB        -8.3290   29.4950  -23.2310 C.3   128  GLU128      0.0388
     59  CG        -9.2620   29.0150  -24.3110 C.3   128  GLU128      0.1160
     60  CD        -8.5660   28.8870  -25.6640 C.2   128  GLU128      0.3649
     61  OE1       -7.3870   29.2830  -25.7820 O.co2 128  GLU128     -0.2457
     62  OE2       -9.1860   28.3610  -26.6030 O.co2 128  GLU128     -0.2457
     63  N         -4.1650   25.8990  -23.3850 N.3   170  GLU170     -0.1231
     64  CA        -5.2260   25.9930  -24.3890 C.3   170  GLU170      0.1699
     65  C         -6.4200   25.1020  -24.0590 C.2   170  GLU170      0.2592
     66  O         -7.5260   25.3450  -24.5570 O.2   170  GLU170     -0.2718
     67  CB        -4.6730   25.5790  -25.7690 C.3   170  GLU170      0.0402
     68  CG        -3.6400   26.4960  -26.3770 C.3   170  GLU170      0.1161
     69  CD        -2.1910   26.1270  -26.0740 C.2   170  GLU170      0.3649
     70  OE1       -1.8710   25.7540  -24.9000 O.co2 170  GLU170     -0.2457
     71  OE2       -1.3660   26.2160  -27.0220 O.co2 170  GLU170     -0.2457
     72  N         -6.2070   24.0560  -23.2670 N.am  171  ASN171     -0.1974
     73  CA        -7.2060   23.0450  -22.9680 C.3   171  ASN171      0.1688
     74  C         -7.8650   23.2350  -21.6110 C.2   171  ASN171      0.2292
     75  O         -8.6570   22.3820  -21.2160 O.2   171  ASN171     -0.2864
     76  CB        -6.5650   21.6560  -23.0080 C.3   171  ASN171      0.1181
     77  CG        -6.4150   21.1510  -24.4150 C.2   171  ASN171      0.2629
     78  OD1       -6.7010   21.8790  -25.3630 O.2   171  ASN171     -0.2716
     79  ND2       -5.9950   19.9170  -24.5660 N.am  171  ASN171     -0.0877
     80  N        -10.1310   25.7100  -19.2590 N.3   173  LEU173     -0.1245
     81  CA       -11.0270   26.8500  -19.2060 C.3   173  LEU173      0.1561
     82  C        -11.1820   27.3030  -17.7640 C.2   173  LEU173      0.2260
     83  O        -11.0450   26.5070  -16.8330 O.2   173  LEU173     -0.2867
     84  CB       -12.3850   26.4810  -19.8110 C.3   173  LEU173      0.0270
     85  CG       -12.3050   25.8750  -21.2120 C.3   173  LEU173      0.0019
     86  CD1      -13.6630   25.3500  -21.6370 C.3   173  LEU173      0.0001
     87  CD2      -11.8090   26.9000  -22.2120 C.3   173  LEU173      0.0001
     88  N        -11.0690   20.5870  -20.6230 N.3   183  THR183     -0.1203
     89  CA       -11.8420   20.1420  -21.7630 C.3   183  THR183      0.1994
     90  C        -10.9100   19.4560  -22.7590 C.2   183  THR183      0.2617
     91  O         -9.7610   19.1320  -22.4490 O.2   183  THR183     -0.2717
     92  CB       -12.6030   21.2900  -22.4270 C.3   183  THR183      0.1784
     93  OG1      -13.2840   20.7550  -23.5740 O.3   183  THR183     -0.2211
     94  CG2      -11.6570   22.4350  -22.8610 C.3   183  THR183      0.0376
     95  N        -11.4370   19.1610  -23.9420 N.am  184  ASP184     -0.1973
     96  CA       -10.6870   18.5350  -25.0250 C.3   184  ASP184      0.1709
     97  C        -10.0880   17.1720  -24.6620 C.2   184  ASP184      0.2293
     98  O         -8.8620   17.0610  -24.4910 O.2   184  ASP184     -0.2864
     99  CB        -9.5750   19.4700  -25.5070 C.3   184  ASP184      0.1436
    100  CG       -10.1110   20.6810  -26.2570 C.2   184  ASP184      0.3671
    101  OD1       -9.4090   21.7150  -26.3200 O.co2 184  ASP184     -0.2456
    102  OD2      -11.2420   20.6060  -26.7820 O.co2 184  ASP184     -0.2456
    103  N        -13.2520   35.2670  -24.9550 N.3   326  PHE326     -0.1241
    104  CA       -12.7150   34.4730  -26.0460 C.3   326  PHE326      0.1605
    105  C        -12.2650   35.3620  -27.2010 C.2   326  PHE326      0.2264
    106  O        -12.8150   36.4480  -27.4360 O.2   326  PHE326     -0.2867
    107  CB       -13.7400   33.4620  -26.5450 C.3   326  PHE326      0.0534
    108  CG       -14.0620   32.3980  -25.5280 C.ar  326  PHE326     -0.0203
    109  CD1      -13.3020   31.2400  -25.4660 C.ar  326  PHE326     -0.0042
    110  CD2      -15.0870   32.5770  -24.6200 C.ar  326  PHE326     -0.0042
    111  CE1      -13.5680   30.2600  -24.5220 C.ar  326  PHE326     -0.0003
    112  CE2      -15.3620   31.6000  -23.6640 C.ar  326  PHE326     -0.0003
    113  CZ       -14.6030   30.4470  -23.6180 C.ar  326  PHE326     -0.0000
@<TRIPOS>BOND
     1    12    11    2
     2    11    10    1
     3    13    14    1
     4    27    28    2
     5    27    26    1
     6    16    15    2
     7    15    14    1
     8    10     9    1
     9    14    17    1
    10     1     2    1
    11     9     3   am
    12    26    29    1
    13    26    25    1
    14    30    29    1
    15    30    31    1
    16    32    31    1
    17    32    33    1
    18     3     2    1
    19     3     4    2
    20     2     5    1
    21    17    19    1
    22    17    18    1
    23     5     6    1
    24     6     8    1
    25     6     7    1
    26   106   105    2
    27   105   104    1
    28    71    69   ar
    29    22    23    2
    30    22    21    1
    31   102   100   ar
    32    62    60   ar
    33   107   104    1
    34   107   108    1
    35    68    69    1
    36    68    67    1
    37   101   100   ar
    38   100    99    1
    39    21    24    1
    40    21    20    1
    41    69    70   ar
    42   104   103    1
    43    61    60   ar
    44    67    64    1
    45    60    59    1
    46   108   109   ar
    47   108   110   ar
    48    99    96    1
    49   109   111   ar
    50    78    77    2
    51    41    40    1
    52    96    97    1
    53    96    95    1
    54    34    35    1
    55    97    98    2
    56   110   112   ar
    57    79    77   am
    58    66    65    2
    59   111   113   ar
    60    40    39    1
    61    77    76    1
    62    64    65    1
    63    64    63    1
    64    59    58    1
    65    65    72   am
    66    39    38    1
    67    95    90   am
    68    50    48   ar
    69    50    52   ar
    70    53    52    1
    71   112   113   ar
    72    93    92    1
    73    48    47   ar
    74    52    51   ar
    75    37    36    2
    76    35    38    1
    77    35    36    1
    78    72    73    1
    79    58    55    1
    80    76    73    1
    81    73    74    1
    82    94    92    1
    83    90    91    2
    84    90    89    1
    85    47    49   ar
    86    47    46    1
    87    51    49   ar
    88    92    89    1
    89    87    85    1
    90    46    43    1
    91    54    55    1
    92    55    56    1
    93    89    88    1
    94    86    85    1
    95    74    75    2
    96    43    42    1
    97    43    44    1
    98    85    84    1
    99    57    56    2
   100    44    45    2
   101    84    81    1
   102    80    81    1
   103    81    82    1
   104    82    83    2
