@<TRIPOS>MOLECULE
tmp/5n3dA01.pdb
 127 119 0 0 0
SMALL
GASTEIGER

@<TRIPOS>ATOM
      1  N        -15.8080   30.1500  -30.7190 N.3    48  LEU48      -0.1231
      2  CA       -14.9720   30.3610  -29.5490 C.3    48  LEU48       0.1693
      3  C        -13.5630   29.8120  -29.7100 C.2    48  LEU48       0.2592
      4  O        -12.6950   30.1290  -28.8870 O.2    48  LEU48      -0.2718
      5  CB       -15.6130   29.7090  -28.3260 C.3    48  LEU48       0.0284
      6  CG       -17.0120   30.1810  -27.9380 C.3    48  LEU48       0.0019
      7  CD1      -17.5710   29.2720  -26.8370 C.3    48  LEU48       0.0001
      8  CD2      -16.9910   31.6150  -27.4850 C.3    48  LEU48       0.0001
      9  N        -13.3320   28.9750  -30.7080 N.am   49  GLY49      -0.1957
     10  CA       -12.0170   28.4000  -30.9350 C.3    49  GLY49       0.1869
     11  C        -12.0660   27.5450  -32.1810 C.2    49  GLY49       0.2309
     12  O        -13.1360   27.0900  -32.6060 O.2    49  GLY49      -0.2863
     13  N        -15.1620   25.1530  -32.1160 N.3    56  VAL56      -0.1245
     14  CA       -16.0710   25.1730  -30.9770 C.3    56  VAL56       0.1561
     15  C        -16.8810   26.4510  -31.0600 C.2    56  VAL56       0.2260
     16  O        -16.3120   27.5390  -31.1860 O.2    56  VAL56      -0.2867
     17  CB       -15.3200   25.1180  -29.6420 C.3    56  VAL56       0.0252
     18  CG1      -16.3200   25.1570  -28.4980 C.3    56  VAL56       0.0019
     19  CG2      -14.4410   23.8690  -29.5830 C.3    56  VAL56       0.0019
     20  N        -21.2480   25.1590  -25.1320 N.3    69  ALA69      -0.1245
     21  CA       -20.1540   25.1210  -26.0940 C.3    69  ALA69       0.1562
     22  C        -20.3210   23.8730  -26.9520 C.2    69  ALA69       0.2260
     23  O        -20.3350   22.7550  -26.4280 O.2    69  ALA69      -0.2867
     24  CB       -18.7970   25.1100  -25.3910 C.3    69  ALA69       0.0290
     25  N        -14.9410   19.3890  -17.6990 N.3   103  VAL103     -0.1245
     26  CA       -16.1400   19.9350  -18.3180 C.3   103  VAL103      0.1561
     27  C        -17.1740   18.8300  -18.4740 C.2   103  VAL103      0.2260
     28  O        -16.8420   17.6720  -18.7630 O.2   103  VAL103     -0.2867
     29  CB       -15.8270   20.5620  -19.6840 C.3   103  VAL103      0.0252
     30  CG1      -15.4230   19.4920  -20.6640 C.3   103  VAL103      0.0019
     31  CG2      -17.0410   21.3250  -20.2030 C.3   103  VAL103      0.0019
     32  N        -21.1920   20.7020  -24.6760 N.3   119  MET119     -0.1230
     33  CA       -20.7440   20.6890  -23.2970 C.3   119  MET119      0.1702
     34  C        -21.1020   22.0010  -22.6180 C.2   119  MET119      0.2592
     35  O        -21.5030   22.9800  -23.2540 O.2   119  MET119     -0.2718
     36  CB       -19.2350   20.4430  -23.2300 C.3   119  MET119      0.0401
     37  CG       -18.4140   21.5370  -23.8660 C.3   119  MET119      0.0596
     38  SD       -16.7580   20.9650  -24.3260 S.3   119  MET119     -0.1393
     39  CE       -17.1610   19.8340  -25.6710 C.3   119  MET119      0.0692
     40  N        -20.9600   21.9990  -21.2990 N.am  120  GLU120     -0.1966
     41  CA       -21.1960   23.1950  -20.5110 C.3   120  GLU120      0.1733
     42  C        -20.3030   24.3310  -20.9920 C.2   120  GLU120      0.2616
     43  O        -19.1380   24.1220  -21.3410 O.2   120  GLU120     -0.2715
     44  CB       -20.9380   22.8940  -19.0330 C.3   120  GLU120      0.0429
     45  CG       -21.1620   24.0500  -18.1040 C.3   120  GLU120      0.1163
     46  CD       -21.1590   23.6130  -16.6490 C.2   120  GLU120      0.3649
     47  OE1      -20.2960   24.0850  -15.8870 O.co2 120  GLU120     -0.2457
     48  OE2      -22.0190   22.7900  -16.2800 O.co2 120  GLU120     -0.2457
     49  N        -20.8790   25.5290  -21.0550 N.am  121  TYR121     -0.1960
     50  CA       -20.1520   26.7180  -21.4680 C.3   121  TYR121      0.1771
     51  C        -19.4620   27.3260  -20.2540 C.2   121  TYR121      0.2619
     52  O        -20.0820   27.5120  -19.2060 O.2   121  TYR121     -0.2715
     53  CB       -21.1000   27.7270  -22.1100 C.3   121  TYR121      0.0574
     54  CG       -20.4460   29.0290  -22.4880 C.ar  121  TYR121     -0.0198
     55  CD1      -19.2810   29.0520  -23.2540 C.ar  121  TYR121     -0.0009
     56  CD2      -20.9960   30.2390  -22.0950 C.ar  121  TYR121     -0.0009
     57  CE1      -18.6810   30.2430  -23.6100 C.ar  121  TYR121      0.0417
     58  CE2      -20.4010   31.4400  -22.4440 C.ar  121  TYR121      0.0417
     59  CZ       -19.2330   31.4340  -23.2000 C.ar  121  TYR121      0.1957
     60  OH       -18.6260   32.6260  -23.5600 O.3   121  TYR121     -0.2866
     61  N        -18.1910   27.6500  -20.4040 N.am  122  VAL122     -0.1977
     62  CA       -17.3550   28.1590  -19.3280 C.3   122  VAL122      0.1596
     63  C        -16.9060   29.5470  -19.7470 C.2   122  VAL122      0.2287
     64  O        -15.9630   29.6940  -20.5260 O.2   122  VAL122     -0.2864
     65  CB       -16.1460   27.2500  -19.0520 C.3   122  VAL122      0.0276
     66  CG1      -15.3380   27.7660  -17.8430 C.3   122  VAL122      0.0022
     67  CG2      -16.5950   25.8050  -18.8330 C.3   122  VAL122      0.0022
     68  N        -10.0260   30.9580  -21.7260 N.3   126  GLU126     -0.1245
     69  CA        -8.8960   30.0430  -21.6010 C.3   126  GLU126      0.1567
     70  C         -7.8500   30.6040  -20.6450 C.2   126  GLU126      0.2260
     71  O         -7.5370   31.7960  -20.6700 O.2   126  GLU126     -0.2867
     72  CB        -8.2210   29.8200  -22.9630 C.3   126  GLU126      0.0388
     73  CG        -9.0870   29.1610  -24.0030 C.3   126  GLU126      0.1160
     74  CD        -8.4180   29.0920  -25.3750 C.2   126  GLU126      0.3649
     75  OE1       -7.2690   29.5470  -25.4900 O.co2 126  GLU126     -0.2457
     76  OE2       -9.0420   28.5660  -26.3220 O.co2 126  GLU126     -0.2457
     77  N         -4.1320   26.2610  -23.1780 N.3   168  GLU168     -0.1231
     78  CA        -5.2070   26.3870  -24.1630 C.3   168  GLU168      0.1699
     79  C         -6.4280   25.5370  -23.8040 C.2   168  GLU168      0.2592
     80  O         -7.5460   25.8550  -24.2340 O.2   168  GLU168     -0.2718
     81  CB        -4.7000   25.9600  -25.5480 C.3   168  GLU168      0.0402
     82  CG        -3.6810   26.8790  -26.2010 C.3   168  GLU168      0.1161
     83  CD        -2.2180   26.5430  -25.8690 C.2   168  GLU168      0.3649
     84  OE1       -1.8910   26.2080  -24.6920 O.co2 168  GLU168     -0.2457
     85  OE2       -1.3900   26.5960  -26.8010 O.co2 168  GLU168     -0.2457
     86  N         -6.2290   24.4280  -23.0790 N.am  169  ASN169     -0.1974
     87  CA        -7.2530   23.4400  -22.7830 C.3   169  ASN169      0.1688
     88  C         -7.8560   23.6100  -21.4050 C.2   169  ASN169      0.2292
     89  O         -8.6530   22.7680  -20.9930 O.2   169  ASN169     -0.2864
     90  CB        -6.6650   22.0300  -22.9040 C.3   169  ASN169      0.1181
     91  CG        -6.5580   21.5870  -24.3390 C.2   169  ASN169      0.2629
     92  OD1       -7.0450   22.2860  -25.2350 O.2   169  ASN169     -0.2716
     93  ND2       -6.0050   20.4100  -24.5710 N.am  169  ASN169     -0.0877
     94  N        -10.0170   26.0260  -19.0100 N.3   171  LEU171     -0.1245
     95  CA       -10.9150   27.1640  -18.9700 C.3   171  LEU171      0.1561
     96  C        -11.1150   27.5880  -17.5230 C.2   171  LEU171      0.2260
     97  O        -10.9760   26.7820  -16.6050 O.2   171  LEU171     -0.2867
     98  CB       -12.2580   26.8340  -19.6160 C.3   171  LEU171      0.0270
     99  CG       -12.2680   26.4720  -21.0990 C.3   171  LEU171      0.0019
    100  CD1      -13.7090   26.3780  -21.6060 C.3   171  LEU171      0.0001
    101  CD2      -11.5170   27.4840  -21.9190 C.3   171  LEU171      0.0001
    102  N        -11.1530   20.9640  -20.7210 N.3   181  THR181     -0.1203
    103  CA       -12.2570   21.0260  -21.6950 C.3   181  THR181      0.1994
    104  C        -12.1040   20.3320  -23.0430 C.2   181  THR181      0.2617
    105  O        -12.9920   20.5150  -23.8900 O.2   181  THR181     -0.2717
    106  CB       -12.5900   22.4730  -22.0240 C.3   181  THR181      0.1784
    107  OG1      -11.4880   23.0540  -22.7500 O.3   181  THR181     -0.2211
    108  CG2      -12.8680   23.2050  -20.7580 C.3   181  THR181      0.0376
    109  N        -11.0410   19.5780  -23.2950 N.am  182  ASP182     -0.1973
    110  CA       -10.8290   18.9300  -24.5980 C.3   182  ASP182      0.1709
    111  C        -10.2500   17.5480  -24.3160 C.2   182  ASP182      0.2293
    112  O         -9.1340   17.4440  -23.7980 O.2   182  ASP182     -0.2864
    113  CB        -9.8650   19.7590  -25.4630 C.3   182  ASP182      0.1436
    114  CG        -9.5350   19.1310  -26.8490 C.2   182  ASP182      0.3671
    115  OD1       -9.6470   17.9110  -27.0640 O.co2 182  ASP182     -0.2456
    116  OD2       -9.0800   19.9040  -27.7340 O.co2 182  ASP182     -0.2456
    117  N        -13.1880   35.5450  -24.5950 N.3   324  PHE324     -0.1241
    118  CA       -12.6170   34.7610  -25.6800 C.3   324  PHE324      0.1605
    119  C        -12.1480   35.6550  -26.8240 C.2   324  PHE324      0.2264
    120  O        -12.6710   36.7560  -27.0370 O.2   324  PHE324     -0.2867
    121  CB       -13.6220   33.7430  -26.2190 C.3   324  PHE324      0.0534
    122  CG       -13.9730   32.6640  -25.2230 C.ar  324  PHE324     -0.0203
    123  CD1      -13.2440   31.4880  -25.1730 C.ar  324  PHE324     -0.0042
    124  CD2      -15.0080   32.8520  -24.3160 C.ar  324  PHE324     -0.0042
    125  CE1      -13.5510   30.4870  -24.2330 C.ar  324  PHE324     -0.0003
    126  CE2      -15.3350   31.8630  -23.3820 C.ar  324  PHE324     -0.0003
    127  CZ       -14.6000   30.6820  -23.3400 C.ar  324  PHE324     -0.0000
@<TRIPOS>BOND
     1    12    11    2
     2    11    10    1
     3    13    14    1
     4    16    15    2
     5    15    14    1
     6    14    17    1
     7    10     9    1
     8     1     2    1
     9     9     3   am
    10     3     2    1
    11     3     4    2
    12    17    19    1
    13    17    18    1
    14     2     5    1
    15     5     6    1
    16     6     8    1
    17     6     7    1
    18   116   114   ar
    19   115   114   ar
    20   120   119    2
    21    22    23    2
    22    22    21    1
    23   114   113    1
    24   119   118    1
    25    85    83   ar
    26    76    74   ar
    27   121   118    1
    28   121   122    1
    29    82    83    1
    30    82    81    1
    31    21    24    1
    32    21    20    1
    33    83    84   ar
    34   118   117    1
    35    39    38    1
    36    81    78    1
    37    75    74   ar
    38   113   110    1
    39    74    73    1
    40    92    91    2
    41   122   123   ar
    42   122   124   ar
    43   123   125   ar
    44    32    33    1
    45   110   111    1
    46   110   109    1
    47    93    91   am
    48    91    90    1
    49    38    37    1
    50   111   112    2
    51   124   126   ar
    52    80    79    2
    53   125   127   ar
    54    78    79    1
    55    78    77    1
    56    73    72    1
    57   105   104    2
    58    37    36    1
    59    79    86   am
    60    57    55   ar
    61    57    59   ar
    62    60    59    1
    63   126   127   ar
    64    33    36    1
    65    33    34    1
    66   109   104   am
    67    35    34    2
    68    55    54   ar
    69    59    58   ar
    70    86    87    1
    71   104   103    1
    72    72    69    1
    73    90    87    1
    74    87    88    1
    75   107   106    1
    76    34    40   am
    77    54    53    1
    78    54    56   ar
    79    58    56   ar
    80    53    50    1
    81   106   103    1
    82   106   108    1
    83   101    99    1
    84    68    69    1
    85   103   102    1
    86   100    99    1
    87    69    70    1
    88    50    49    1
    89    50    51    1
    90    88    89    2
    91    43    42    2
    92    40    41    1
    93    99    98    1
    94    49    42   am
    95    42    41    1
    96    71    70    2
    97    30    29    1
    98    64    63    2
    99    41    44    1
   100    61    51   am
   101    61    62    1
   102    51    52    2
   103    31    29    1
   104    63    62    1
   105    29    26    1
   106    98    95    1
   107    62    65    1
   108    65    67    1
   109    65    66    1
   110    44    45    1
   111    94    95    1
   112    95    96    1
   113    28    27    2
   114    27    26    1
   115    26    25    1
   116    45    46    1
   117    96    97    2
   118    46    48   ar
   119    46    47   ar
