@<TRIPOS>MOLECULE
tmp/5n3eA00.pdb
 119 111 0 0 0
SMALL
GASTEIGER

@<TRIPOS>ATOM
      1  N        -15.7720   30.1620  -30.5900 N.3    50  LEU50      -0.1231
      2  CA       -14.9350   30.3560  -29.4120 C.3    50  LEU50       0.1693
      3  C        -13.5240   29.8180  -29.5800 C.2    50  LEU50       0.2592
      4  O        -12.6600   30.1280  -28.7530 O.2    50  LEU50      -0.2718
      5  CB       -15.5670   29.6730  -28.1960 C.3    50  LEU50       0.0284
      6  CG       -16.9740   30.1270  -27.8390 C.3    50  LEU50       0.0019
      7  CD1      -17.5660   29.2160  -26.7570 C.3    50  LEU50       0.0001
      8  CD2      -16.9650   31.5770  -27.3890 C.3    50  LEU50       0.0001
      9  N        -13.2890   28.9990  -30.5920 N.am   51  GLY51      -0.1957
     10  CA       -11.9800   28.4230  -30.8250 C.3    51  GLY51       0.1869
     11  C        -12.0360   27.5640  -32.0700 C.2    51  GLY51       0.2309
     12  O        -13.1050   27.1090  -32.4880 O.2    51  GLY51      -0.2863
     13  N        -15.2500   25.2090  -31.9940 N.3    58  VAL58      -0.1245
     14  CA       -16.1660   25.2150  -30.8640 C.3    58  VAL58       0.1561
     15  C        -16.9370   26.5210  -30.9260 C.2    58  VAL58       0.2260
     16  O        -16.3370   27.5940  -31.0670 O.2    58  VAL58      -0.2867
     17  CB       -15.4290   25.0690  -29.5240 C.3    58  VAL58       0.0252
     18  CG1      -16.4210   25.1220  -28.3780 C.3    58  VAL58       0.0019
     19  CG2      -14.6420   23.7690  -29.5020 C.3    58  VAL58       0.0019
     20  N        -21.4120   25.2390  -25.1730 N.3    71  ALA71      -0.1245
     21  CA       -20.3260   25.2210  -26.1430 C.3    71  ALA71       0.1562
     22  C        -20.4590   23.9680  -26.9950 C.2    71  ALA71       0.2260
     23  O        -20.4790   22.8550  -26.4610 O.2    71  ALA71      -0.2867
     24  CB       -18.9690   25.2470  -25.4450 C.3    71  ALA71       0.0290
     25  N        -14.8670   19.6330  -17.7840 N.3   105  VAL105     -0.1245
     26  CA       -16.0490   20.1760  -18.4470 C.3   105  VAL105      0.1561
     27  C        -17.0860   19.0790  -18.6320 C.2   105  VAL105      0.2260
     28  O        -16.7610   17.9360  -18.9840 O.2   105  VAL105     -0.2867
     29  CB       -15.6710   20.8070  -19.7950 C.3   105  VAL105      0.0252
     30  CG1      -15.2010   19.7380  -20.7810 C.3   105  VAL105      0.0019
     31  CG2      -16.8570   21.5680  -20.3800 C.3   105  VAL105      0.0019
     32  N        -21.2660   20.8970  -24.7700 N.3   121  MET121     -0.1230
     33  CA       -20.7030   20.9380  -23.4290 C.3   121  MET121      0.1702
     34  C        -21.2050   22.1560  -22.6720 C.2   121  MET121      0.2592
     35  O        -21.7040   23.1140  -23.2560 O.2   121  MET121     -0.2718
     36  CB       -19.1780   21.0230  -23.4690 C.3   121  MET121      0.0401
     37  CG       -18.4820   19.9220  -24.1800 C.3   121  MET121      0.0596
     38  SD       -16.8550   20.5460  -24.5860 S.3   121  MET121     -0.1393
     39  CE       -17.1760   21.3410  -26.1490 C.3   121  MET121      0.0692
     40  N        -21.0200   22.1270  -21.3540 N.am  122  GLU122     -0.1966
     41  CA       -21.2350   23.3220  -20.5540 C.3   122  GLU122      0.1733
     42  C        -20.3650   24.4610  -21.0720 C.2   122  GLU122      0.2616
     43  O        -19.1960   24.2640  -21.4120 O.2   122  GLU122     -0.2715
     44  CB       -20.9140   23.0380  -19.0870 C.3   122  GLU122      0.0429
     45  CG       -21.2170   24.1960  -18.1640 C.3   122  GLU122      0.1163
     46  CD       -21.1820   23.7930  -16.7070 C.2   122  GLU122      0.3649
     47  OE1      -20.4500   24.4330  -15.9260 O.co2 122  GLU122     -0.2457
     48  OE2      -21.8850   22.8280  -16.3500 O.co2 122  GLU122     -0.2457
     49  N        -20.9500   25.6550  -21.1470 N.am  123  TYR123     -0.1960
     50  CA       -20.2120   26.8460  -21.5320 C.3   123  TYR123      0.1771
     51  C        -19.5110   27.4330  -20.3110 C.2   123  TYR123      0.2619
     52  O        -20.1310   27.6440  -19.2620 O.2   123  TYR123     -0.2715
     53  CB       -21.1570   27.8650  -22.1710 C.3   123  TYR123      0.0574
     54  CG       -20.4960   29.1680  -22.5160 C.ar  123  TYR123     -0.0198
     55  CD1      -19.3110   29.1940  -23.2400 C.ar  123  TYR123     -0.0009
     56  CD2      -21.0540   30.3760  -22.1250 C.ar  123  TYR123     -0.0009
     57  CE1      -18.7030   30.3790  -23.5590 C.ar  123  TYR123      0.0417
     58  CE2      -20.4500   31.5680  -22.4370 C.ar  123  TYR123      0.0417
     59  CZ       -19.2650   31.5580  -23.1520 C.ar  123  TYR123      0.1957
     60  OH       -18.6340   32.7310  -23.4800 O.3   123  TYR123     -0.2866
     61  N        -18.2130   27.6790  -20.4510 N.am  124  VAL124     -0.1977
     62  CA       -17.3730   28.1850  -19.3670 C.3   124  VAL124      0.1596
     63  C        -16.9330   29.5850  -19.7700 C.2   124  VAL124      0.2287
     64  O        -15.9980   29.7320  -20.5670 O.2   124  VAL124     -0.2864
     65  CB       -16.1730   27.2690  -19.0980 C.3   124  VAL124      0.0276
     66  CG1      -15.4030   27.7490  -17.8540 C.3   124  VAL124      0.0022
     67  CG2      -16.6400   25.8310  -18.9490 C.3   124  VAL124      0.0022
     68  N        -10.0130   30.9640  -21.7820 N.3   128  GLU128     -0.1245
     69  CA        -8.8670   30.0760  -21.6370 C.3   128  GLU128      0.1567
     70  C         -7.8180   30.6600  -20.6970 C.2   128  GLU128      0.2260
     71  O         -7.5140   31.8550  -20.7390 O.2   128  GLU128     -0.2867
     72  CB        -8.2000   29.8380  -22.9940 C.3   128  GLU128      0.0388
     73  CG        -9.0740   29.1820  -24.0360 C.3   128  GLU128      0.1160
     74  CD        -8.3950   29.1240  -25.3950 C.2   128  GLU128      0.3649
     75  OE1       -7.2220   29.5420  -25.4920 O.co2 128  GLU128     -0.2457
     76  OE2       -9.0260   28.6540  -26.3680 O.co2 128  GLU128     -0.2457
     77  N         -4.1120   26.3510  -23.2210 N.3   170  GLU170     -0.1245
     78  CA        -5.1890   26.4790  -24.2000 C.3   170  GLU170      0.1567
     79  C         -6.3930   25.6180  -23.8430 C.2   170  GLU170      0.2260
     80  O         -7.5150   25.9110  -24.2840 O.2   170  GLU170     -0.2867
     81  CB        -4.6950   26.0840  -25.5990 C.3   170  GLU170      0.0388
     82  CG        -3.6400   27.0030  -26.2290 C.3   170  GLU170      0.1160
     83  CD        -2.1830   26.6360  -25.9110 C.2   170  GLU170      0.3649
     84  OE1       -1.8720   26.2500  -24.7590 O.co2 170  GLU170     -0.2457
     85  OE2       -1.3290   26.7480  -26.8230 O.co2 170  GLU170     -0.2457
     86  N        -10.0150   26.0670  -19.0660 N.3   173  LEU173     -0.1245
     87  CA       -10.9450   27.1770  -19.0330 C.3   173  LEU173      0.1561
     88  C        -11.1510   27.6140  -17.5920 C.2   173  LEU173      0.2260
     89  O        -11.0790   26.8060  -16.6690 O.2   173  LEU173     -0.2867
     90  CB       -12.2830   26.7920  -19.6600 C.3   173  LEU173      0.0270
     91  CG       -12.1910   26.1480  -21.0420 C.3   173  LEU173      0.0019
     92  CD1      -13.5570   25.7570  -21.5270 C.3   173  LEU173      0.0001
     93  CD2      -11.5150   27.0810  -22.0240 C.3   173  LEU173      0.0001
     94  N        -10.8960   20.9600  -20.7650 N.3   183  THR183     -0.1203
     95  CA       -11.6480   20.6160  -21.9470 C.3   183  THR183      0.1994
     96  C        -10.7220   19.9610  -22.9610 C.2   183  THR183      0.2617
     97  O         -9.5020   19.8630  -22.7720 O.2   183  THR183     -0.2717
     98  CB       -12.3350   21.8480  -22.5510 C.3   183  THR183      0.1784
     99  OG1      -13.2670   21.4220  -23.5580 O.3   183  THR183     -0.2211
    100  CG2      -11.3170   22.8120  -23.1580 C.3   183  THR183      0.0376
    101  N        -11.3400   19.4610  -24.0300 N.am  184  ASP184     -0.1973
    102  CA       -10.6650   18.8760  -25.1880 C.3   184  ASP184      0.1709
    103  C        -10.0170   17.5340  -24.8610 C.2   184  ASP184      0.2293
    104  O         -8.7920   17.4330  -24.7290 O.2   184  ASP184     -0.2864
    105  CB        -9.6390   19.8510  -25.7810 C.3   184  ASP184      0.1436
    106  CG       -10.2560   20.7960  -26.8200 C.2   184  ASP184      0.3671
    107  OD1       -9.6300   21.8310  -27.1380 O.co2 184  ASP184     -0.2456
    108  OD2      -11.3620   20.5020  -27.3300 O.co2 184  ASP184     -0.2456
    109  N        -13.1860   35.5570  -24.5980 N.3   326  PHE326     -0.1241
    110  CA       -12.6300   34.7520  -25.6720 C.3   326  PHE326      0.1605
    111  C        -12.1780   35.6430  -26.8190 C.2   326  PHE326      0.2264
    112  O        -12.7220   36.7290  -27.0460 O.2   326  PHE326     -0.2867
    113  CB       -13.6490   33.7410  -26.1980 C.3   326  PHE326      0.0534
    114  CG       -13.9740   32.6520  -25.2250 C.ar  326  PHE326     -0.0203
    115  CD1      -13.2660   31.4680  -25.2510 C.ar  326  PHE326     -0.0042
    116  CD2      -14.9800   32.8080  -24.2910 C.ar  326  PHE326     -0.0042
    117  CE1      -13.5450   30.4490  -24.3630 C.ar  326  PHE326     -0.0003
    118  CE2      -15.2680   31.8000  -23.3930 C.ar  326  PHE326     -0.0003
    119  CZ       -14.5520   30.6080  -23.4350 C.ar  326  PHE326     -0.0000
@<TRIPOS>BOND
     1    12    11    2
     2    11    10    1
     3    13    14    1
     4    16    15    2
     5    15    14    1
     6    14    17    1
     7    10     9    1
     8     9     3   am
     9     1     2    1
    10     3     2    1
    11     3     4    2
    12    17    19    1
    13    17    18    1
    14     2     5    1
    15     5     6    1
    16     6     8    1
    17     6     7    1
    18   108   106   ar
    19   107   106   ar
    20   112   111    2
    21    22    23    2
    22    22    21    1
    23    85    83   ar
    24   106   105    1
    25   111   110    1
    26    76    74   ar
    27    82    83    1
    28    82    81    1
    29   113   110    1
    30   113   114    1
    31    39    38    1
    32    21    24    1
    33    21    20    1
    34    83    84   ar
    35   105   102    1
    36   110   109    1
    37    81    78    1
    38    75    74   ar
    39    74    73    1
    40   115   114   ar
    41   115   117   ar
    42   114   116   ar
    43   102   103    1
    44   102   101    1
    45   103   104    2
    46    32    33    1
    47    38    37    1
    48   117   119   ar
    49   116   118   ar
    50    80    79    2
    51    78    79    1
    52    78    77    1
    53    37    36    1
    54    73    72    1
    55   101    96   am
    56    57    55   ar
    57    57    59   ar
    58    99    98    1
    59    60    59    1
    60    36    33    1
    61   119   118   ar
    62    33    34    1
    63    35    34    2
    64    55    54   ar
    65   100    98    1
    66    59    58   ar
    67    72    69    1
    68    96    97    2
    69    96    95    1
    70    34    40   am
    71    98    95    1
    72    54    53    1
    73    54    56   ar
    74    58    56   ar
    75    53    50    1
    76    93    91    1
    77    95    94    1
    78    68    69    1
    79    69    70    1
    80    50    49    1
    81    50    51    1
    82    92    91    1
    83    43    42    2
    84    40    41    1
    85    49    42   am
    86    42    41    1
    87    91    90    1
    88    30    29    1
    89    71    70    2
    90    64    63    2
    91    41    44    1
    92    61    51   am
    93    61    62    1
    94    31    29    1
    95    51    52    2
    96    29    26    1
    97    63    62    1
    98    90    87    1
    99    62    65    1
   100    65    67    1
   101    65    66    1
   102    44    45    1
   103    86    87    1
   104    87    88    1
   105    28    27    2
   106    27    26    1
   107    26    25    1
   108    45    46    1
   109    88    89    2
   110    46    48   ar
   111    46    47   ar
