@<TRIPOS>MOLECULE
tmp/5n3fA03.pdb
 134 126 0 0 0
SMALL
GASTEIGER

@<TRIPOS>ATOM
      1  N        -15.6630   29.4740  -30.6210 N.3    39  LEU39      -0.1231
      2  CA       -14.8860   29.7240  -29.4010 C.3    39  LEU39       0.1693
      3  C        -13.4540   29.2510  -29.5140 C.2    39  LEU39       0.2593
      4  O        -12.6170   29.6580  -28.6930 O.2    39  LEU39      -0.2718
      5  CB       -15.5360   29.0030  -28.2000 C.3    39  LEU39       0.0284
      6  CG       -16.9440   29.4290  -27.7660 C.3    39  LEU39       0.0019
      7  CD1      -17.5380   28.4550  -26.6960 C.3    39  LEU39       0.0001
      8  CD2      -16.9330   30.8430  -27.2260 C.3    39  LEU39       0.0001
      9  N        -13.1720   28.3970  -30.4890 N.am   40  GLY40      -0.1942
     10  CA       -11.8720   27.7530  -30.6140 C.3    40  GLY40       0.2014
     11  C        -11.9040   26.8490  -31.8280 C.2    40  GLY40       0.2639
     12  O        -12.9690   26.3860  -32.2630 O.2    40  GLY40      -0.2714
     13  N        -10.7120   26.5950  -32.3700 N.am   41  THR41      -0.1950
     14  CA       -10.6360   25.8820  -33.6430 C.3    41  THR41       0.1897
     15  C         -9.3040   25.1550  -33.7400 C.2    41  THR41       0.2313
     16  O         -8.3240   25.5280  -33.0880 O.2    41  THR41      -0.2863
     17  CB       -10.8020   26.8260  -34.8260 C.3    41  THR41       0.1794
     18  OG1      -11.1030   26.0570  -35.9960 O.3    41  THR41      -0.2208
     19  CG2       -9.4910   27.6010  -35.0260 C.3    41  THR41       0.0378
     20  N        -15.0950   24.4640  -31.8780 N.3    45  VAL45      -0.1245
     21  CA       -16.0660   24.5160  -30.7900 C.3    45  VAL45       0.1561
     22  C        -16.8280   25.8240  -30.9250 C.2    45  VAL45       0.2260
     23  O        -16.2150   26.8910  -31.0680 O.2    45  VAL45      -0.2867
     24  CB       -15.3810   24.4480  -29.4110 C.3    45  VAL45       0.0252
     25  CG1      -16.4580   24.4960  -28.3290 C.3    45  VAL45       0.0019
     26  CG2      -14.5570   23.1650  -29.2810 C.3    45  VAL45       0.0019
     27  N        -21.3180   24.7260  -25.1210 N.3    58  ALA58      -0.1245
     28  CA       -20.1760   24.7220  -26.0300 C.3    58  ALA58       0.1562
     29  C        -20.3040   23.4630  -26.8750 C.2    58  ALA58       0.2260
     30  O        -20.2520   22.3500  -26.3400 O.2    58  ALA58      -0.2867
     31  CB       -18.8480   24.7670  -25.2720 C.3    58  ALA58       0.0290
     32  N        -14.7940   19.0700  -17.6470 N.3    91  VAL91      -0.1245
     33  CA       -15.9860   19.5920  -18.3210 C.3    91  VAL91       0.1561
     34  C        -17.0500   18.5100  -18.4610 C.2    91  VAL91       0.2260
     35  O        -16.7700   17.3280  -18.6860 O.2    91  VAL91      -0.2867
     36  CB       -15.5860   20.1610  -19.6950 C.3    91  VAL91       0.0252
     37  CG1      -15.1050   19.0190  -20.5550 C.3    91  VAL91       0.0019
     38  CG2      -16.8030   20.8960  -20.3590 C.3    91  VAL91       0.0019
     39  N        -21.2560   20.2800  -24.5790 N.3   107  MET107     -0.1230
     40  CA       -20.7680   20.3350  -23.2220 C.3   107  MET107      0.1702
     41  C        -21.2360   21.6250  -22.5740 C.2   107  MET107      0.2592
     42  O        -21.6880   22.5680  -23.2380 O.2   107  MET107     -0.2718
     43  CB       -19.2230   20.2560  -23.2080 C.3   107  MET107      0.0401
     44  CG       -18.7460   18.9140  -23.8030 C.3   107  MET107      0.0596
     45  SD       -17.0660   19.1230  -24.3180 S.3   107  MET107     -0.1393
     46  CE       -17.3830   19.6190  -26.0360 C.3   107  MET107      0.0692
     47  N        -21.0870   21.6570  -21.2550 N.am  108  GLU108     -0.1966
     48  CA       -21.3400   22.8760  -20.5050 C.3   108  GLU108      0.1733
     49  C        -20.4410   24.0010  -21.0210 C.2   108  GLU108      0.2616
     50  O        -19.2850   23.7830  -21.3760 O.2   108  GLU108     -0.2715
     51  CB       -21.0780   22.6310  -19.0140 C.3   108  GLU108      0.0429
     52  CG       -21.1510   23.8890  -18.1890 C.3   108  GLU108      0.1163
     53  CD       -20.9770   23.6590  -16.6930 C.2   108  GLU108      0.3649
     54  OE1      -20.9150   24.6700  -15.9510 O.co2 108  GLU108     -0.2457
     55  OE2      -20.9040   22.4920  -16.2640 O.co2 108  GLU108     -0.2457
     56  N        -21.0080   25.1880  -21.1420 N.am  109  TYR109     -0.1960
     57  CA       -20.2210   26.3550  -21.5420 C.3   109  TYR109      0.1771
     58  C        -19.5370   26.9490  -20.3190 C.2   109  TYR109      0.2619
     59  O        -20.1910   27.2050  -19.3050 O.2   109  TYR109     -0.2715
     60  CB       -21.1490   27.3810  -22.1970 C.3   109  TYR109      0.0574
     61  CG       -20.4460   28.7010  -22.5410 C.ar  109  TYR109     -0.0198
     62  CD1      -19.2160   28.6950  -23.2090 C.ar  109  TYR109     -0.0009
     63  CD2      -21.0340   29.9250  -22.2190 C.ar  109  TYR109     -0.0009
     64  CE1      -18.5680   29.8770  -23.5320 C.ar  109  TYR109      0.0417
     65  CE2      -20.4120   31.1190  -22.5540 C.ar  109  TYR109      0.0417
     66  CZ       -19.1650   31.0780  -23.2060 C.ar  109  TYR109      0.1957
     67  OH       -18.5300   32.2570  -23.5450 O.3   109  TYR109     -0.2866
     68  N        -18.2150   27.1400  -20.4010 N.am  110  VAL110     -0.1977
     69  CA       -17.3980   27.6690  -19.3150 C.3   110  VAL110      0.1596
     70  C        -16.9290   29.0360  -19.7920 C.2   110  VAL110      0.2287
     71  O        -16.0840   29.1210  -20.6940 O.2   110  VAL110     -0.2864
     72  CB       -16.2090   26.7520  -19.0190 C.3   110  VAL110      0.0276
     73  CG1      -15.3600   27.3540  -17.8590 C.3   110  VAL110      0.0022
     74  CG2      -16.7040   25.3430  -18.7240 C.3   110  VAL110      0.0022
     75  N         -9.9120   30.6160  -21.8460 N.3   114  GLU114     -0.1245
     76  CA        -8.7810   29.6860  -21.6600 C.3   114  GLU114      0.1567
     77  C         -7.7510   30.2820  -20.7340 C.2   114  GLU114      0.2260
     78  O         -7.4400   31.4850  -20.7990 O.2   114  GLU114     -0.2867
     79  CB        -8.0610   29.4180  -22.9920 C.3   114  GLU114      0.0388
     80  CG        -8.9550   28.7620  -24.0410 C.3   114  GLU114      0.1160
     81  CD        -8.2240   28.6810  -25.4040 C.2   114  GLU114      0.3649
     82  OE1       -7.0120   29.0600  -25.5070 O.co2 114  GLU114     -0.2457
     83  OE2       -8.8390   28.1620  -26.3450 O.co2 114  GLU114     -0.2457
     84  N         -4.0630   25.9970  -23.2610 N.3   156  GLU156     -0.1231
     85  CA        -5.1490   26.1240  -24.2430 C.3   156  GLU156      0.1699
     86  C         -6.3400   25.2630  -23.8770 C.2   156  GLU156      0.2592
     87  O         -7.4620   25.5100  -24.3520 O.2   156  GLU156     -0.2718
     88  CB        -4.6600   25.6830  -25.6440 C.3   156  GLU156      0.0402
     89  CG        -3.5860   26.6020  -26.2930 C.3   156  GLU156      0.1161
     90  CD        -2.1150   26.2280  -25.9430 C.2   156  GLU156      0.3649
     91  OE1       -1.7750   25.8820  -24.7830 O.co2 156  GLU156     -0.2457
     92  OE2       -1.2590   26.3570  -26.8790 O.co2 156  GLU156     -0.2457
     93  N         -6.0970   24.1710  -23.1710 N.am  157  ASN157     -0.1974
     94  CA        -7.1520   23.2090  -22.9000 C.3   157  ASN157      0.1688
     95  C         -7.7290   23.3410  -21.5130 C.2   157  ASN157      0.2292
     96  O         -8.4610   22.4510  -21.0890 O.2   157  ASN157     -0.2864
     97  CB        -6.6040   21.7840  -23.0180 C.3   157  ASN157      0.1181
     98  CG        -6.3810   21.3780  -24.4560 C.2   157  ASN157      0.2629
     99  OD1       -6.8160   22.0830  -25.3660 O.2   157  ASN157     -0.2716
    100  ND2       -5.8850   20.1550  -24.6680 N.am  157  ASN157     -0.0877
    101  N        -10.0160   25.6780  -19.1610 N.3   159  LEU159     -0.1245
    102  CA       -10.8860   26.8390  -19.1150 C.3   159  LEU159      0.1561
    103  C        -11.0850   27.2840  -17.6610 C.2   159  LEU159      0.2260
    104  O        -10.9560   26.4950  -16.7100 O.2   159  LEU159     -0.2867
    105  CB       -12.2400   26.4950  -19.7680 C.3   159  LEU159      0.0270
    106  CG       -12.1870   26.0250  -21.2410 C.3   159  LEU159      0.0019
    107  CD1      -13.6120   25.8800  -21.7980 C.3   159  LEU159      0.0001
    108  CD2      -11.4110   27.0280  -22.0410 C.3   159  LEU159      0.0001
    109  N        -10.7610   20.5760  -20.6110 N.3   169  THR169     -0.1203
    110  CA       -11.5490   20.2920  -21.7990 C.3   169  THR169      0.1994
    111  C        -10.6570   19.6730  -22.8700 C.2   169  THR169      0.2617
    112  O         -9.4260   19.6410  -22.7610 O.2   169  THR169     -0.2717
    113  CB       -12.2310   21.5580  -22.3330 C.3   169  THR169      0.1784
    114  OG1      -13.1670   21.1840  -23.3420 O.3   169  THR169     -0.2211
    115  CG2      -11.1990   22.5210  -22.9360 C.3   169  THR169      0.0376
    116  N        -11.3040   19.1610  -23.9070 N.am  170  ASP170     -0.1973
    117  CA       -10.6320   18.4930  -25.0040 C.3   170  ASP170      0.1709
    118  C        -10.0190   17.1640  -24.5970 C.2   170  ASP170      0.2293
    119  O         -8.7970   17.0300  -24.4100 O.2   170  ASP170     -0.2864
    120  CB        -9.5770   19.3690  -25.6430 C.3   170  ASP170      0.1436
    121  CG        -9.3180   18.9550  -27.0830 C.2   170  ASP170      0.3671
    122  OD1       -8.8230   19.8360  -27.8340 O.co2 170  ASP170     -0.2456
    123  OD2       -9.6210   17.7560  -27.4380 O.co2 170  ASP170     -0.2456
    124  N        -13.0810   35.1650  -24.6460 N.3   312  PHE312     -0.1241
    125  CA       -12.5210   34.3490  -25.7050 C.3   312  PHE312      0.1605
    126  C        -12.0310   35.2280  -26.8470 C.2   312  PHE312      0.2264
    127  O        -12.5950   36.2950  -27.1400 O.2   312  PHE312     -0.2867
    128  CB       -13.5620   33.3470  -26.2310 C.3   312  PHE312      0.0534
    129  CG       -13.8980   32.2520  -25.2210 C.ar  312  PHE312     -0.0203
    130  CD1      -13.1820   31.0430  -25.2340 C.ar  312  PHE312     -0.0042
    131  CD2      -14.9080   32.4290  -24.2730 C.ar  312  PHE312     -0.0042
    132  CE1      -13.4490   30.0250  -24.2810 C.ar  312  PHE312     -0.0003
    133  CE2      -15.1860   31.4220  -23.3070 C.ar  312  PHE312     -0.0003
    134  CZ       -14.4490   30.2170  -23.3300 C.ar  312  PHE312     -0.0000
@<TRIPOS>BOND
     1    18    17    1
     2    19    17    1
     3    17    14    1
     4    15    14    1
     5    15    16    2
     6    14    13    1
     7    13    11   am
     8    12    11    2
     9    20    21    1
    10    11    10    1
    11    23    22    2
    12    22    21    1
    13    21    24    1
    14     1     2    1
    15    10     9    1
    16     9     3   am
    17     3     2    1
    18     3     4    2
    19    24    26    1
    20    24    25    1
    21     2     5    1
    22     5     6    1
    23   122   121   ar
    24     6     8    1
    25     6     7    1
    26   123   121   ar
    27   127   126    2
    28   121   120    1
    29    92    90   ar
    30    29    30    2
    31    29    28    1
    32   126   125    1
    33    83    81   ar
    34    89    90    1
    35    89    88    1
    36   128   125    1
    37   128   129    1
    38    46    45    1
    39    28    31    1
    40    28    27    1
    41    90    91   ar
    42   125   124    1
    43    88    85    1
    44   120   117    1
    45    82    81   ar
    46    81    80    1
    47    99    98    2
    48   130   129   ar
    49   130   132   ar
    50   129   131   ar
    51   117   118    1
    52   117   116    1
    53   100    98   am
    54   118   119    2
    55    39    40    1
    56    98    97    1
    57    87    86    2
    58    45    44    1
    59   132   134   ar
    60   131   133   ar
    61    85    86    1
    62    85    84    1
    63    80    79    1
    64   116   111   am
    65    86    93   am
    66    44    43    1
    67    67    66    1
    68    64    62   ar
    69    64    66   ar
    70   114   113    1
    71   134   133   ar
    72    42    41    2
    73    40    43    1
    74    40    41    1
    75    62    61   ar
    76    66    65   ar
    77    93    94    1
    78    97    94    1
    79    79    76    1
    80   115   113    1
    81    94    95    1
    82   111   112    2
    83   111   110    1
    84    41    47   am
    85    65    63   ar
    86    61    63   ar
    87    61    60    1
    88   113   110    1
    89    60    57    1
    90   108   106    1
    91    75    76    1
    92   110   109    1
    93   107   106    1
    94    76    77    1
    95    57    56    1
    96    57    58    1
    97    95    96    2
    98    50    49    2
    99    47    48    1
   100   106   105    1
   101    56    49   am
   102    49    48    1
   103    78    77    2
   104    71    70    2
   105    37    36    1
   106    48    51    1
   107    68    58   am
   108    68    69    1
   109    38    36    1
   110    58    59    2
   111    70    69    1
   112   105   102    1
   113    36    33    1
   114    69    72    1
   115   101   102    1
   116   102   103    1
   117    72    74    1
   118    72    73    1
   119    51    52    1
   120    35    34    2
   121    34    33    1
   122    33    32    1
   123    52    53    1
   124   103   104    2
   125    53    55   ar
   126    53    54   ar
