@<TRIPOS>MOLECULE
tmp/5n3hA00.pdb
 98 91 0 0 0
SMALL
GASTEIGER

@<TRIPOS>ATOM
      1  N        -13.2780   -2.1110  -34.9360 N.3    39  LEU39      -0.1245
      2  CA       -13.5550   -2.2170  -33.5110 C.3    39  LEU39       0.1561
      3  C        -14.9630   -1.7760  -33.1340 C.2    39  LEU39       0.2260
      4  O        -15.4280   -2.1180  -32.0400 O.2    39  LEU39      -0.2867
      5  CB       -12.5500   -1.3660  -32.7300 C.3    39  LEU39       0.0270
      6  CG       -11.0620   -1.6550  -32.9530 C.3    39  LEU39       0.0019
      7  CD1      -10.2030   -0.5640  -32.2950 C.3    39  LEU39       0.0001
      8  CD2      -10.6800   -3.0300  -32.4400 C.3    39  LEU39       0.0001
      9  N        -14.8270    2.8970  -35.9510 N.3    47  VAL47      -0.1245
     10  CA       -13.5100    2.9660  -35.3310 C.3    47  VAL47       0.1561
     11  C        -12.7270    1.7270  -35.7400 C.2    47  VAL47       0.2260
     12  O        -13.2250    0.6030  -35.6100 O.2    47  VAL47      -0.2867
     13  CB       -13.5950    3.0970  -33.7980 C.3    47  VAL47       0.0252
     14  CG1      -12.1940    3.1720  -33.1990 C.3    47  VAL47       0.0019
     15  CG2      -14.3950    4.3260  -33.4160 C.3    47  VAL47       0.0019
     16  N         -6.2770    3.7210  -32.6180 N.3    60  ALA60      -0.1245
     17  CA        -7.6900    3.6250  -32.9480 C.3    60  ALA60       0.1562
     18  C         -8.0310    4.8020  -33.8620 C.2    60  ALA60       0.2260
     19  O         -7.8750    5.9580  -33.4710 O.2    60  ALA60      -0.2867
     20  CB        -8.5410    3.6620  -31.6810 C.3    60  ALA60       0.0290
     21  N        -10.8830    6.7510  -35.8120 N.3    62  LYS62      -0.1245
     22  CA       -12.3010    7.0070  -36.0130 C.3    62  LYS62       0.1561
     23  C        -12.4820    7.6580  -37.3780 C.2    62  LYS62       0.2260
     24  O        -11.8060    8.6410  -37.7010 O.2    62  LYS62      -0.2867
     25  CB       -12.8520    7.8910  -34.8960 C.3    62  LYS62       0.0271
     26  CG       -14.3150    8.2500  -35.0080 C.3    62  LYS62       0.0035
     27  CD       -14.8070    8.9040  -33.7180 C.3    62  LYS62       0.0206
     28  CE       -16.2790    9.1880  -33.7830 C.3    62  LYS62       0.1093
     29  NZ       -16.7770    9.6250  -32.4580 N.3    62  LYS62      -0.1314
     30  N         -9.0010   10.2990  -23.5870 N.3    94  VAL94      -0.1245
     31  CA        -8.2360    9.7290  -24.6890 C.3    94  VAL94       0.1561
     32  C         -7.4290   10.8070  -25.3840 C.2    94  VAL94       0.2260
     33  O         -7.8540   11.9650  -25.5220 O.2    94  VAL94      -0.2867
     34  CB        -9.1070    8.9790  -25.7110 C.3    94  VAL94       0.0252
     35  CG1       -9.7670    7.7750  -25.0980 C.3    94  VAL94       0.0019
     36  CG2      -10.1230    9.9210  -26.3800 C.3    94  VAL94       0.0019
     37  N         -6.3540    8.1650  -32.5730 N.3   110  MET110     -0.1230
     38  CA        -6.1580    8.2370  -31.1360 C.3   110  MET110      0.1702
     39  C         -5.3730    7.0440  -30.6320 C.2   110  MET110      0.2592
     40  O         -5.2480    6.0230  -31.3050 O.2   110  MET110     -0.2718
     41  CB        -7.4960    8.2300  -30.4410 C.3   110  MET110      0.0401
     42  CG        -8.2540    9.4940  -30.7190 C.3   110  MET110      0.0596
     43  SD       -10.0030    9.3240  -30.4360 S.3   110  MET110     -0.1393
     44  CE       -10.4580    8.3190  -31.8440 C.3   110  MET110      0.0692
     45  N         -4.8750    7.1650  -29.4100 N.am  111  GLU111     -0.1966
     46  CA        -4.2680    6.0230  -28.7500 C.3   111  GLU111      0.1733
     47  C         -5.2380    4.8430  -28.7400 C.2   111  GLU111      0.2616
     48  O         -6.4450    5.0110  -28.5390 O.2   111  GLU111     -0.2715
     49  CB        -3.9000    6.4120  -27.3120 C.3   111  GLU111      0.0429
     50  CG        -3.2960    5.2780  -26.4960 C.3   111  GLU111      0.1163
     51  CD        -2.8800    5.6830  -25.0970 C.2   111  GLU111      0.3649
     52  OE1       -2.4000    4.8090  -24.3480 O.co2 111  GLU111     -0.2457
     53  OE2       -3.0190    6.8700  -24.7490 O.co2 111  GLU111     -0.2457
     54  N         -4.7090    3.6490  -28.9980 N.am  112  TYR112     -0.1960
     55  CA        -5.4930    2.4170  -28.9080 C.3   112  TYR112      0.1771
     56  C         -5.4210    1.8770  -27.4870 C.2   112  TYR112      0.2619
     57  O         -4.3300    1.6880  -26.9400 O.2   112  TYR112     -0.2715
     58  CB        -4.9880    1.3620  -29.8950 C.3   112  TYR112      0.0574
     59  CG        -5.6780    0.0180  -29.7570 C.ar  112  TYR112     -0.0198
     60  CD1       -7.0480   -0.0710  -29.8270 C.ar  112  TYR112     -0.0009
     61  CD2       -4.9570   -1.1500  -29.5550 C.ar  112  TYR112     -0.0009
     62  CE1       -7.7000   -1.2600  -29.6890 C.ar  112  TYR112      0.0417
     63  CE2       -5.6090   -2.3810  -29.4100 C.ar  112  TYR112      0.0417
     64  CZ        -6.9840   -2.4200  -29.4820 C.ar  112  TYR112      0.1957
     65  OH        -7.6700   -3.6100  -29.3500 O.3   112  TYR112     -0.2866
     66  N         -6.5850    1.6370  -26.8980 N.am  113  VAL113     -0.1977
     67  CA        -6.7100    1.1460  -25.5330 C.3   113  VAL113      0.1596
     68  C         -7.2150   -0.2910  -25.6140 C.2   113  VAL113      0.2287
     69  O         -8.4180   -0.5120  -25.8340 O.2   113  VAL113     -0.2864
     70  CB        -7.6590    2.0420  -24.7240 C.3   113  VAL113      0.0276
     71  CG1       -7.6970    1.5930  -23.2710 C.3   113  VAL113      0.0022
     72  CG2       -7.2270    3.5180  -24.8300 C.3   113  VAL113      0.0022
     73  N        -13.2240    3.5310  -21.7360 N.3   162  LEU162     -0.1245
     74  CA       -12.2910    2.4560  -22.0150 C.3   162  LEU162      0.1561
     75  C        -11.4680    2.1900  -20.7700 C.2   162  LEU162      0.2260
     76  O        -11.2060    3.0970  -19.9770 O.2   162  LEU162     -0.2867
     77  CB       -11.3640    2.8700  -23.1600 C.3   162  LEU162      0.0270
     78  CG       -12.0720    3.3380  -24.4360 C.3   162  LEU162      0.0019
     79  CD1      -11.0900    3.9690  -25.4260 C.3   162  LEU162      0.0001
     80  CD2      -12.8280    2.1900  -25.0780 C.3   162  LEU162      0.0001
     81  N        -13.7480    8.3000  -24.0890 N.3   172  THR172     -0.1218
     82  CA       -13.7230    8.5320  -25.5100 C.3   172  THR172      0.1862
     83  C        -15.0920    9.0050  -26.0070 C.2   172  THR172      0.2287
     84  O        -16.0390    9.1910  -25.2550 O.2   172  THR172     -0.2866
     85  CB       -13.2310    7.2890  -26.2540 C.3   172  THR172      0.1770
     86  OG1      -13.0000    7.6410  -27.6250 O.3   172  THR172     -0.2211
     87  CG2      -14.2510    6.1540  -26.1690 C.3   172  THR172      0.0375
     88  N        -12.6070   -6.4490  -27.8490 N.3   315  PHE315     -0.1241
     89  CA       -13.5750   -5.8420  -28.7440 C.3   315  PHE315      0.1605
     90  C        -14.2180   -6.9550  -29.5580 C.2   315  PHE315      0.2264
     91  O        -13.6960   -8.0660  -29.6540 O.2   315  PHE315     -0.2867
     92  CB       -12.9100   -4.7850  -29.6450 C.3   315  PHE315      0.0534
     93  CG       -12.3600   -3.6240  -28.8770 C.ar  315  PHE315     -0.0203
     94  CD1      -13.1720   -2.5550  -28.5530 C.ar  315  PHE315     -0.0042
     95  CD2      -11.0460   -3.6220  -28.4330 C.ar  315  PHE315     -0.0042
     96  CE1      -12.6830   -1.5080  -27.8170 C.ar  315  PHE315     -0.0003
     97  CE2      -10.5490   -2.5630  -27.7100 C.ar  315  PHE315     -0.0003
     98  CZ       -11.3700   -1.5110  -27.3940 C.ar  315  PHE315     -0.0000
@<TRIPOS>BOND
     1    24    23    2
     2    23    22    1
     3    22    21    1
     4    22    25    1
     5     9    10    1
     6    11    12    2
     7    11    10    1
     8    10    13    1
     9    26    25    1
    10    26    27    1
    11     1     2    1
    12    18    19    2
    13    18    17    1
    14    13    15    1
    15    13    14    1
    16    28    27    1
    17    28    29    1
    18     2     3    1
    19     2     5    1
    20     3     4    2
    21     6     5    1
    22     6     8    1
    23     6     7    1
    24    17    16    1
    25    17    20    1
    26    37    38    1
    27    44    43    1
    28    40    39    2
    29    38    39    1
    30    38    41    1
    31    42    41    1
    32    42    43    1
    33    39    45   am
    34    58    59    1
    35    58    55    1
    36    60    59   ar
    37    60    62   ar
    38    59    61   ar
    39    62    64   ar
    40    91    90    2
    41    92    93    1
    42    92    89    1
    43    90    89    1
    44    61    63   ar
    45    64    63   ar
    46    64    65    1
    47    45    46    1
    48    54    55    1
    49    54    47   am
    50    55    56    1
    51    93    94   ar
    52    93    95   ar
    53    46    47    1
    54    46    49    1
    55    89    88    1
    56    47    48    2
    57    94    96   ar
    58    95    97   ar
    59    96    98   ar
    60    97    98   ar
    61    86    85    1
    62    56    57    2
    63    56    66   am
    64    49    50    1
    65    66    67    1
    66    50    51    1
    67    36    34    1
    68    85    87    1
    69    85    82    1
    70    83    82    1
    71    83    84    2
    72    69    68    2
    73    34    35    1
    74    34    31    1
    75    68    67    1
    76    67    70    1
    77    33    32    2
    78    82    81    1
    79    79    78    1
    80    32    31    1
    81    51    53   ar
    82    51    52   ar
    83    80    78    1
    84    72    70    1
    85    70    71    1
    86    31    30    1
    87    78    77    1
    88    77    74    1
    89    74    73    1
    90    74    75    1
    91    75    76    2
