@<TRIPOS>MOLECULE
tmp/5n3jA01.pdb
 134 126 0 0 0
SMALL
GASTEIGER

@<TRIPOS>ATOM
      1  N        -13.5320   -2.0690  -35.0850 N.3    39  LEU39      -0.1245
      2  CA       -13.8530   -2.1610  -33.6620 C.3    39  LEU39       0.1561
      3  C        -15.2830   -1.7270  -33.3380 C.2    39  LEU39       0.2260
      4  O        -15.7870   -2.0820  -32.2700 O.2    39  LEU39      -0.2867
      5  CB       -12.8600   -1.3000  -32.8710 C.3    39  LEU39       0.0270
      6  CG       -11.3670   -1.6200  -33.0180 C.3    39  LEU39       0.0019
      7  CD1      -10.4830   -0.5790  -32.3260 C.3    39  LEU39       0.0001
      8  CD2      -11.0490   -3.0190  -32.5300 C.3    39  LEU39       0.0001
      9  N        -15.0200    2.9260  -36.1490 N.3    47  VAL47      -0.1245
     10  CA       -13.7050    2.9580  -35.5130 C.3    47  VAL47       0.1561
     11  C        -12.9600    1.7000  -35.9280 C.2    47  VAL47       0.2260
     12  O        -13.4980    0.5870  -35.8240 O.2    47  VAL47      -0.2867
     13  CB       -13.7850    3.0830  -33.9800 C.3    47  VAL47       0.0252
     14  CG1      -12.4030    3.0680  -33.3600 C.3    47  VAL47       0.0019
     15  CG2      -14.5450    4.3590  -33.5830 C.3    47  VAL47       0.0019
     16  N         -6.6330    3.6900  -32.6830 N.3    60  ALA60      -0.1245
     17  CA        -8.0440    3.5530  -33.0180 C.3    60  ALA60       0.1562
     18  C         -8.4150    4.7230  -33.9190 C.2    60  ALA60       0.2260
     19  O         -8.4760    5.8580  -33.4640 O.2    60  ALA60      -0.2867
     20  CB        -8.8900    3.5450  -31.7450 C.3    60  ALA60       0.0290
     21  N        -11.0390    6.7380  -35.9850 N.3    62  LYS62      -0.1245
     22  CA       -12.4410    7.0170  -36.2130 C.3    62  LYS62       0.1561
     23  C        -12.5850    7.6410  -37.5890 C.2    62  LYS62       0.2260
     24  O        -11.8820    8.6050  -37.9200 O.2    62  LYS62      -0.2867
     25  CB       -12.9710    7.9670  -35.1390 C.3    62  LYS62       0.0271
     26  CG       -14.4500    8.2760  -35.2870 C.3    62  LYS62       0.0035
     27  CD       -14.9360    9.1900  -34.1690 C.3    62  LYS62       0.0206
     28  CE       -14.9220    8.5090  -32.8970 C.3    62  LYS62       0.1093
     29  NZ       -15.7370    9.3030  -31.9320 N.3    62  LYS62      -0.1314
     30  N        -16.1390   18.0710  -31.7980 N.3    81  GLU81      -0.1245
     31  CA       -15.4080   16.9020  -31.3300 C.3    81  GLU81       0.1567
     32  C        -13.9150   17.0490  -31.6060 C.2    81  GLU81       0.2260
     33  O        -13.0750   16.8820  -30.7170 O.2    81  GLU81      -0.2867
     34  CB       -15.9940   15.6660  -32.0000 C.3    81  GLU81       0.0388
     35  CG       -15.2070   14.4360  -31.6720 C.3    81  GLU81       0.1160
     36  CD       -15.8360   13.1790  -32.2120 C.2    81  GLU81       0.3649
     37  OE1      -15.5430   12.0950  -31.6750 O.co2  81  GLU81      -0.2457
     38  OE2      -16.6060   13.2970  -33.1970 O.co2  81  GLU81      -0.2457
     39  N        -10.9900   17.7750  -28.8520 N.3    85  LEU85      -0.1245
     40  CA       -10.0280   16.7100  -28.5900 C.3    85  LEU85       0.1561
     41  C         -8.6000   17.1510  -28.8140 C.2    85  LEU85       0.2260
     42  O         -7.7110   16.7590  -28.0460 O.2    85  LEU85      -0.2867
     43  CB       -10.2830   15.5120  -29.4810 C.3    85  LEU85       0.0270
     44  CG       -11.4240   14.6330  -29.0710 C.3    85  LEU85       0.0019
     45  CD1      -11.7200   13.6640  -30.2300 C.3    85  LEU85       0.0001
     46  CD2      -11.0890   13.8970  -27.7920 C.3    85  LEU85       0.0001
     47  N         -9.0570   10.1610  -23.5750 N.3    94  VAL94      -0.1245
     48  CA        -8.3230    9.5750  -24.6950 C.3    94  VAL94       0.1561
     49  C         -7.6380   10.6640  -25.5050 C.2    94  VAL94       0.2260
     50  O         -8.1720   11.7630  -25.7050 O.2    94  VAL94      -0.2867
     51  CB        -9.2600    8.7050  -25.5510 C.3    94  VAL94       0.0252
     52  CG1      -10.2080    9.5840  -26.3520 C.3    94  VAL94       0.0019
     53  CG2       -8.4510    7.7640  -26.4350 C.3    94  VAL94       0.0019
     54  N         -6.9410    8.1210  -32.7460 N.3   110  MET110     -0.1230
     55  CA        -6.9540    8.1210  -31.2930 C.3   110  MET110      0.1702
     56  C         -5.9850    7.0630  -30.7710 C.2   110  MET110      0.2592
     57  O         -5.7100    6.0550  -31.4280 O.2   110  MET110     -0.2718
     58  CB        -8.3670    7.7610  -30.7770 C.3   110  MET110      0.0401
     59  CG        -9.5780    8.4000  -31.4810 C.3   110  MET110      0.0596
     60  SD        -9.5310   10.2000  -31.4480 S.3   110  MET110     -0.1393
     61  CE        -9.6570   10.4150  -29.6580 C.3   110  MET110      0.0692
     62  N         -5.5170    7.2510  -29.5420 N.am  111  GLU111     -0.1966
     63  CA        -4.8870    6.1510  -28.8230 C.3   111  GLU111      0.1733
     64  C         -5.8350    4.9560  -28.8010 C.2   111  GLU111      0.2616
     65  O         -7.0540    5.1250  -28.6960 O.2   111  GLU111     -0.2715
     66  CB        -4.5200    6.5720  -27.3900 C.3   111  GLU111      0.0429
     67  CG        -3.8490    5.5480  -26.4930 C.3   111  GLU111      0.1163
     68  CD        -3.0760    6.0610  -25.3200 C.2   111  GLU111      0.3649
     69  OE1       -2.9960    7.3640  -25.2620 O.co2 111  GLU111     -0.2457
     70  OE2       -2.5900    5.2980  -24.4980 O.co2 111  GLU111     -0.2457
     71  N         -5.2690    3.7470  -28.9400 N.am  112  TYR112     -0.1960
     72  CA        -6.0280    2.5180  -28.8120 C.3   112  TYR112      0.1771
     73  C         -5.9860    2.0440  -27.3680 C.2   112  TYR112      0.2619
     74  O         -4.9290    2.0290  -26.7470 O.2   112  TYR112     -0.2715
     75  CB        -5.4420    1.4630  -29.7550 C.3   112  TYR112      0.0574
     76  CG        -6.0980    0.1140  -29.6640 C.ar  112  TYR112     -0.0198
     77  CD1       -7.4720   -0.0240  -29.7440 C.ar  112  TYR112     -0.0009
     78  CD2       -5.3370   -1.0480  -29.4740 C.ar  112  TYR112     -0.0009
     79  CE1       -8.0800   -1.2760  -29.6680 C.ar  112  TYR112      0.0417
     80  CE2       -5.9440   -2.3010  -29.3930 C.ar  112  TYR112      0.0417
     81  CZ        -7.3190   -2.4070  -29.4940 C.ar  112  TYR112      0.1957
     82  OH        -7.9650   -3.6270  -29.4050 O.3   112  TYR112     -0.2866
     83  N         -7.1340    1.6750  -26.8350 N.am  113  VAL113     -0.1977
     84  CA        -7.2900    1.2980  -25.4380 C.3   113  VAL113      0.1596
     85  C         -7.7320   -0.1590  -25.4320 C.2   113  VAL113      0.2287
     86  O         -8.9110   -0.4630  -25.6260 O.2   113  VAL113     -0.2864
     87  CB        -8.3090    2.2070  -24.7220 C.3   113  VAL113      0.0276
     88  CG1       -8.2590    1.9670  -23.2370 C.3   113  VAL113      0.0022
     89  CG2       -8.0250    3.6910  -25.0030 C.3   113  VAL113      0.0022
     90  N        -13.4340    3.3020  -21.8050 N.3   162  LEU162     -0.1245
     91  CA       -12.6130    2.1470  -22.1450 C.3   162  LEU162      0.1561
     92  C        -11.6290    1.9090  -21.0060 C.2   162  LEU162      0.2260
     93  O        -11.2340    2.8430  -20.2990 O.2   162  LEU162     -0.2867
     94  CB       -11.8770    2.3810  -23.4680 C.3   162  LEU162      0.0270
     95  CG       -12.7520    2.7050  -24.6850 C.3   162  LEU162      0.0019
     96  CD1      -11.9430    2.7410  -25.9590 C.3   162  LEU162      0.0001
     97  CD2      -13.9080    1.7430  -24.8470 C.3   162  LEU162      0.0001
     98  N        -13.9150    8.2740  -23.9590 N.3   172  THR172     -0.1203
     99  CA       -13.8680    8.3510  -25.4030 C.3   172  THR172      0.1994
    100  C        -15.1940    8.8810  -25.9180 C.2   172  THR172      0.2618
    101  O        -16.1580    9.0710  -25.1800 O.2   172  THR172     -0.2717
    102  CB       -13.5720    6.9620  -26.0030 C.3   172  THR172      0.1784
    103  OG1      -14.7340    6.1250  -25.8690 O.3   172  THR172     -0.2211
    104  CG2      -12.3860    6.3240  -25.3390 C.3   172  THR172      0.0376
    105  N        -15.1950    9.1770  -27.2020 N.am  173  ASP173     -0.1959
    106  CA       -16.3570    9.6210  -27.9610 C.3   173  ASP173      0.1840
    107  C        -16.8190   11.0000  -27.5250 C.2   173  ASP173      0.2622
    108  O        -17.7950   11.1650  -26.7760 O.2   173  ASP173     -0.2715
    109  CB       -17.5190    8.6400  -27.9440 C.3   173  ASP173      0.1450
    110  CG       -18.5150    8.9450  -29.0430 C.2   173  ASP173      0.3671
    111  OD1      -19.4540    8.1520  -29.2490 O.co2 173  ASP173     -0.2456
    112  OD2      -18.3970   10.0220  -29.6660 O.co2 173  ASP173     -0.2456
    113  N        -16.1320   11.9940  -28.0790 N.am  174  PHE174     -0.1974
    114  CA       -16.4440   13.3970  -27.8650 C.3   174  PHE174      0.1639
    115  C        -17.4320   13.9530  -28.9040 C.2   174  PHE174      0.2290
    116  O        -17.5230   15.1690  -29.0950 O.2   174  PHE174     -0.2864
    117  CB       -15.1520   14.2030  -27.8090 C.3   174  PHE174      0.0560
    118  CG       -14.5550   14.3060  -26.4310 C.ar  174  PHE174     -0.0200
    119  CD1      -14.2260   13.1940  -25.6840 C.ar  174  PHE174     -0.0042
    120  CD2      -14.3650   15.5740  -25.8570 C.ar  174  PHE174     -0.0042
    121  CE1      -13.7050   13.3350  -24.3710 C.ar  174  PHE174     -0.0003
    122  CE2      -13.8340   15.7290  -24.5830 C.ar  174  PHE174     -0.0003
    123  CZ       -13.5270   14.6110  -23.8390 C.ar  174  PHE174     -0.0000
    124  N        -12.9000   -6.4420  -27.9240 N.3   315  PHE315     -0.1241
    125  CA       -13.8640   -5.8030  -28.8030 C.3   315  PHE315      0.1605
    126  C        -14.5740   -6.8890  -29.6050 C.2   315  PHE315      0.2264
    127  O        -14.1310   -8.0340  -29.6710 O.2   315  PHE315     -0.2867
    128  CB       -13.1590   -4.8040  -29.7300 C.3   315  PHE315      0.0534
    129  CG       -12.5670   -3.6350  -28.9930 C.ar  315  PHE315     -0.0203
    130  CD1      -13.2700   -2.4740  -28.8530 C.ar  315  PHE315     -0.0042
    131  CD2      -11.3030   -3.7080  -28.4340 C.ar  315  PHE315     -0.0042
    132  CE1      -12.7230   -1.4050  -28.1710 C.ar  315  PHE315     -0.0003
    133  CE2      -10.7620   -2.6190  -27.7450 C.ar  315  PHE315     -0.0003
    134  CZ       -11.4770   -1.4900  -27.6180 C.ar  315  PHE315     -0.0000
@<TRIPOS>BOND
     1    24    23    2
     2    23    22    1
     3    22    21    1
     4    22    25    1
     5     9    10    1
     6    11    12    2
     7    11    10    1
     8    10    13    1
     9    26    25    1
    10    26    27    1
    11     1     2    1
    12    27    28    1
    13    13    15    1
    14    13    14    1
    15    18    19    2
    16    18    17    1
    17     2     3    1
    18     2     5    1
    19     3     4    2
    20    38    36   ar
    21    17    16    1
    22    17    20    1
    23     6     5    1
    24     6     8    1
    25     6     7    1
    26    28    29    1
    27    54    55    1
    28    36    37   ar
    29    36    35    1
    30    34    35    1
    31    34    31    1
    32    30    31    1
    33    32    31    1
    34    32    33    2
    35    59    60    1
    36    59    58    1
    37    60    61    1
    38    57    56    2
    39    55    58    1
    40    55    56    1
    41    56    62   am
    42    45    44    1
    43    75    76    1
    44    75    72    1
    45    77    79   ar
    46    77    76   ar
    47   128   129    1
    48   128   125    1
    49   127   126    2
    50    79    81   ar
    51   112   110   ar
    52    76    78   ar
    53   126   125    1
    54    62    63    1
    55    81    82    1
    56    81    80   ar
    57    43    44    1
    58    43    40    1
    59    78    80   ar
    60   111   110   ar
    61   116   115    2
    62    44    46    1
    63   110   109    1
    64   129   130   ar
    65   129   131   ar
    66    71    72    1
    67    71    64   am
    68   115   114    1
    69   130   132   ar
    70    39    40    1
    71    63    64    1
    72    63    66    1
    73    41    40    1
    74    41    42    2
    75    72    73    1
    76   125   124    1
    77    64    65    2
    78   131   133   ar
    79   132   134   ar
    80   113   114    1
    81   113   107   am
    82   106   109    1
    83   106   107    1
    84   106   105    1
    85   114   117    1
    86   117   118    1
    87   133   134   ar
    88   107   108    2
    89    66    67    1
    90    73    83   am
    91    73    74    2
    92   105   100   am
    93    83    84    1
    94    67    68    1
    95    53    51    1
    96   118   120   ar
    97   118   119   ar
    98    52    51    1
    99   102   103    1
   100   102    99    1
   101   102   104    1
   102    96    95    1
   103   100    99    1
   104   100   101    2
   105   120   122   ar
   106    50    49    2
   107   119   121   ar
   108    86    85    2
   109    51    48    1
   110    49    48    1
   111    84    85    1
   112    84    87    1
   113    99    98    1
   114    68    69   ar
   115    68    70   ar
   116    89    87    1
   117    97    95    1
   118    87    88    1
   119    48    47    1
   120    95    94    1
   121   122   123   ar
   122   121   123   ar
   123    94    91    1
   124    91    90    1
   125    91    92    1
   126    92    93    2
