@<TRIPOS>MOLECULE
tmp/5n3lA02.pdb
 127 119 0 0 0
SMALL
GASTEIGER

@<TRIPOS>ATOM
      1  N        -13.7710   -1.7290  -34.6890 N.3    39  LEU39      -0.1231
      2  CA       -14.0530   -1.8140  -33.2490 C.3    39  LEU39       0.1693
      3  C        -15.4430   -1.3070  -32.8670 C.2    39  LEU39       0.2592
      4  O        -15.9210   -1.6010  -31.7580 O.2    39  LEU39      -0.2718
      5  CB       -13.0360   -0.9630  -32.4820 C.3    39  LEU39       0.0284
      6  CG       -11.5600   -1.3130  -32.7220 C.3    39  LEU39       0.0019
      7  CD1      -10.6320   -0.2910  -32.0370 C.3    39  LEU39       0.0001
      8  CD2      -11.2540   -2.6970  -32.2510 C.3    39  LEU39       0.0001
      9  N        -16.0850   -0.5300  -33.7250 N.am   40  GLY40      -0.1957
     10  CA       -17.4200   -0.0130  -33.4420 C.3    40  GLY40       0.1869
     11  C        -17.9530    0.6660  -34.6790 C.2    40  GLY40       0.2309
     12  O        -17.1920    1.0450  -35.5590 O.2    40  GLY40      -0.2863
     13  N        -15.2120    3.2300  -35.7920 N.3    47  VAL47      -0.1245
     14  CA       -13.8930    3.2830  -35.1800 C.3    47  VAL47       0.1561
     15  C        -13.1520    2.0280  -35.6100 C.2    47  VAL47       0.2260
     16  O        -13.6760    0.9170  -35.4570 O.2    47  VAL47      -0.2867
     17  CB       -13.9570    3.4110  -33.6430 C.3    47  VAL47       0.0252
     18  CG1      -12.5740    3.3560  -33.0330 C.3    47  VAL47       0.0019
     19  CG2      -14.6950    4.6640  -33.2300 C.3    47  VAL47       0.0019
     20  N         -6.7340    3.9340  -32.5980 N.3    60  ALA60      -0.1245
     21  CA        -8.1540    3.8210  -32.9190 C.3    60  ALA60       0.1562
     22  C         -8.5210    4.9890  -33.8360 C.2    60  ALA60       0.2260
     23  O         -8.5240    6.1360  -33.3990 O.2    60  ALA60      -0.2867
     24  CB        -9.0000    3.8360  -31.6430 C.3    60  ALA60       0.0290
     25  N         -8.9830    9.9470  -23.5380 N.3    94  VAL94      -0.1245
     26  CA        -8.2290    9.4050  -24.6670 C.3    94  VAL94       0.1561
     27  C         -7.6650   10.5660  -25.4550 C.2    94  VAL94       0.2260
     28  O         -8.3400   11.5650  -25.7030 O.2    94  VAL94      -0.2867
     29  CB        -9.1030    8.5000  -25.5510 C.3    94  VAL94       0.0252
     30  CG1       -8.3660    8.0870  -26.7940 C.3    94  VAL94       0.0019
     31  CG2       -9.4680    7.1740  -24.7990 C.3    94  VAL94       0.0019
     32  N         -6.9330    8.3170  -32.6210 N.3   110  MET110     -0.1230
     33  CA        -6.8670    8.3840  -31.1740 C.3   110  MET110      0.1702
     34  C         -6.0110    7.2440  -30.6540 C.2   110  MET110      0.2592
     35  O         -5.7810    6.2470  -31.3440 O.2   110  MET110     -0.2718
     36  CB        -8.2630    8.1810  -30.5910 C.3   110  MET110      0.0401
     37  CG        -9.3810    8.6910  -31.4170 C.3   110  MET110      0.0596
     38  SD       -10.7770    8.7280  -30.3310 S.3   110  MET110     -0.1393
     39  CE       -11.5620   10.1600  -31.0100 C.3   110  MET110      0.0692
     40  N         -5.5810    7.3700  -29.4050 N.am  111  GLU111     -0.1966
     41  CA        -4.9390    6.2420  -28.7490 C.3   111  GLU111      0.1733
     42  C         -5.8730    5.0380  -28.7830 C.2   111  GLU111      0.2616
     43  O         -7.0930    5.1790  -28.6300 O.2   111  GLU111     -0.2715
     44  CB        -4.7000    6.5860  -27.2780 C.3   111  GLU111      0.0429
     45  CG        -3.8530    7.7400  -27.0010 C.3   111  GLU111      0.1163
     46  CD        -3.7100    7.9020  -25.4930 C.2   111  GLU111      0.3649
     47  OE1       -2.7120    7.3670  -24.9620 O.co2 111  GLU111     -0.2457
     48  OE2       -4.6460    8.4370  -24.8340 O.co2 111  GLU111     -0.2457
     49  N         -5.3020    3.8470  -28.9420 N.am  112  TYR112     -0.1960
     50  CA        -6.0610    2.6100  -28.8340 C.3   112  TYR112      0.1771
     51  C         -5.8890    2.0570  -27.4290 C.2   112  TYR112      0.2619
     52  O         -4.7620    1.8460  -26.9700 O.2   112  TYR112     -0.2715
     53  CB        -5.5350    1.5800  -29.8320 C.3   112  TYR112      0.0574
     54  CG        -6.1700    0.2220  -29.6880 C.ar  112  TYR112     -0.0198
     55  CD1       -7.5480    0.0840  -29.7000 C.ar  112  TYR112     -0.0009
     56  CD2       -5.3970   -0.9150  -29.5200 C.ar  112  TYR112     -0.0009
     57  CE1       -8.1590   -1.1290  -29.5480 C.ar  112  TYR112      0.0417
     58  CE2       -6.0070   -2.1460  -29.3860 C.ar  112  TYR112      0.0417
     59  CZ        -7.3840   -2.2480  -29.3980 C.ar  112  TYR112      0.1957
     60  OH        -8.0280   -3.4580  -29.2600 O.3   112  TYR112     -0.2866
     61  N         -6.9990    1.8090  -26.7520 N.am  113  VAL113     -0.1977
     62  CA        -7.0120    1.3010  -25.3910 C.3   113  VAL113      0.1596
     63  C         -7.4670   -0.1540  -25.4780 C.2   113  VAL113      0.2287
     64  O         -8.6490   -0.3950  -25.6980 O.2   113  VAL113     -0.2864
     65  CB        -7.9660    2.1370  -24.5330 C.3   113  VAL113      0.0276
     66  CG1       -7.8790    1.6970  -23.0830 C.3   113  VAL113      0.0022
     67  CG2       -7.6190    3.6470  -24.6550 C.3   113  VAL113      0.0022
     68  N        -14.3430   -1.7110  -23.6220 N.3   117  GLU117     -0.1245
     69  CA       -15.3390   -0.8620  -23.0030 C.3   117  GLU117      0.1567
     70  C        -15.7420   -1.3720  -21.6310 C.2   117  GLU117      0.2260
     71  O        -15.9210   -2.5760  -21.4100 O.2   117  GLU117     -0.2867
     72  CB       -16.5940   -0.8230  -23.8710 C.3   117  GLU117      0.0388
     73  CG       -16.3530   -0.2710  -25.2710 C.3   117  GLU117      0.1160
     74  CD       -17.5560   -0.3260  -26.1720 C.2   117  GLU117      0.3649
     75  OE1      -18.6120   -0.8380  -25.7410 O.co2 117  GLU117     -0.2457
     76  OE2      -17.4170    0.1380  -27.3390 O.co2 117  GLU117     -0.2457
     77  N        -20.3500    2.3520  -22.5570 N.3   159  GLU159     -0.1231
     78  CA       -19.7310    2.0710  -23.8450 C.3   159  GLU159      0.1699
     79  C        -18.6880    3.1030  -24.2330 C.2   159  GLU159      0.2592
     80  O        -17.8850    2.8420  -25.1430 O.2   159  GLU159     -0.2718
     81  CB       -20.7880    1.9840  -24.9370 C.3   159  GLU159      0.0402
     82  CG       -21.8310    0.9170  -24.6540 C.3   159  GLU159      0.1161
     83  CD       -23.1360    1.5450  -24.0750 C.2   159  GLU159      0.3649
     84  OE1      -23.1590    2.2600  -22.9760 O.co2 159  GLU159     -0.2457
     85  OE2      -24.1400    1.2920  -24.8030 O.co2 159  GLU159     -0.2457
     86  N        -18.7040    4.2730  -23.5900 N.am  160  ASN160     -0.1974
     87  CA       -17.8040    5.3590  -23.9080 C.3   160  ASN160      0.1688
     88  C        -16.6810    5.4960  -22.8930 C.2   160  ASN160      0.2292
     89  O        -15.9780    6.5190  -22.8790 O.2   160  ASN160     -0.2864
     90  CB       -18.5950    6.6530  -24.0350 C.3   160  ASN160      0.1181
     91  CG       -19.4700    6.6670  -25.2430 C.2   160  ASN160      0.2629
     92  OD1      -19.3360    5.8040  -26.1300 O.2   160  ASN160     -0.2716
     93  ND2      -20.3430    7.6560  -25.3230 N.am  160  ASN160     -0.0877
     94  N        -13.3460    3.3820  -21.6470 N.3   162  LEU162     -0.1245
     95  CA       -12.4650    2.2500  -21.8900 C.3   162  LEU162      0.1561
     96  C        -11.5900    1.9990  -20.6740 C.2   162  LEU162      0.2260
     97  O        -11.2860    2.9130  -19.9060 O.2   162  LEU162     -0.2867
     98  CB       -11.5830    2.5280  -23.1190 C.3   162  LEU162      0.0270
     99  CG       -12.3440    2.8930  -24.3900 C.3   162  LEU162      0.0019
    100  CD1      -11.3800    3.2010  -25.5350 C.3   162  LEU162      0.0001
    101  CD2      -13.3400    1.8210  -24.8010 C.3   162  LEU162      0.0001
    102  N        -13.8500    8.3070  -24.0290 N.3   172  THR172     -0.1203
    103  CA       -13.7870    8.4930  -25.4600 C.3   172  THR172      0.1994
    104  C        -15.1790    8.8900  -25.9350 C.2   172  THR172      0.2617
    105  O        -16.1230    8.9450  -25.1560 O.2   172  THR172     -0.2717
    106  CB       -13.2370    7.2190  -26.1190 C.3   172  THR172      0.1784
    107  OG1      -12.7740    7.4950  -27.4420 O.3   172  THR172     -0.2211
    108  CG2      -14.2750    6.1490  -26.1520 C.3   172  THR172      0.0376
    109  N        -15.3050    9.2310  -27.2100 N.am  173  ASP173     -0.1973
    110  CA       -16.6110    9.6310  -27.7640 C.3   173  ASP173      0.1709
    111  C        -16.9760   11.0570  -27.3490 C.2   173  ASP173      0.2293
    112  O        -17.8870   11.2890  -26.5560 O.2   173  ASP173     -0.2864
    113  CB       -17.7340    8.6370  -27.3930 C.3   173  ASP173      0.1436
    114  CG       -17.7130    7.4100  -28.2120 C.2   173  ASP173      0.3671
    115  OD1      -18.4240    7.4510  -29.2350 O.co2 173  ASP173     -0.2456
    116  OD2      -16.9950    6.4300  -27.8160 O.co2 173  ASP173     -0.2456
    117  N        -12.8870   -6.4200  -27.6570 N.3   315  PHE315     -0.1241
    118  CA       -13.8620   -5.7570  -28.5210 C.3   315  PHE315      0.1605
    119  C        -14.6250   -6.8160  -29.3120 C.2   315  PHE315      0.2264
    120  O        -14.2470   -7.9730  -29.3480 O.2   315  PHE315     -0.2867
    121  CB       -13.1430   -4.7560  -29.4240 C.3   315  PHE315      0.0534
    122  CG       -12.5610   -3.6000  -28.6760 C.ar  315  PHE315     -0.0203
    123  CD1      -13.3160   -2.4770  -28.4590 C.ar  315  PHE315     -0.0042
    124  CD2      -11.2460   -3.6210  -28.2140 C.ar  315  PHE315     -0.0042
    125  CE1      -12.7940   -1.4040  -27.7520 C.ar  315  PHE315     -0.0003
    126  CE2      -10.7200   -2.5540  -27.5270 C.ar  315  PHE315     -0.0003
    127  CZ       -11.4790   -1.4490  -27.3000 C.ar  315  PHE315     -0.0000
@<TRIPOS>BOND
     1    13    14    1
     2    15    16    2
     3    15    14    1
     4    12    11    2
     5    14    17    1
     6     1     2    1
     7    11    10    1
     8    22    23    2
     9    22    21    1
    10     9    10    1
    11     9     3   am
    12    17    19    1
    13    17    18    1
    14     2     3    1
    15     2     5    1
    16    21    20    1
    17    21    24    1
    18     3     4    2
    19     6     5    1
    20     6     8    1
    21     6     7    1
    22    32    33    1
    23    37    36    1
    24    37    38    1
    25    35    34    2
    26    33    34    1
    27    33    36    1
    28    39    38    1
    29    34    40   am
    30    53    54    1
    31    53    50    1
    32    55    54   ar
    33    55    57   ar
    34    54    56   ar
    35    57    59   ar
    36    56    58   ar
    37   121   122    1
    38   121   118    1
    39    40    41    1
    40    59    58   ar
    41    59    60    1
    42   120   119    2
    43   119   118    1
    44   115   114   ar
    45    49    50    1
    46    49    42   am
    47    50    51    1
    48    42    41    1
    49    42    43    2
    50    41    44    1
    51   122   123   ar
    52   122   124   ar
    53   118   117    1
    54   123   125   ar
    55   124   126   ar
    56   114   116   ar
    57   114   113    1
    58   110   113    1
    59   110   111    1
    60   110   109    1
    61   125   127   ar
    62   126   127   ar
    63   107   106    1
    64    51    52    2
    65    51    61   am
    66   111   112    2
    67    76    74   ar
    68    44    45    1
    69   109   104   am
    70    45    46    1
    71    30    29    1
    72    61    62    1
    73    74    75   ar
    74    74    73    1
    75   108   106    1
    76    92    91    2
    77   106   103    1
    78   104   103    1
    79   104   105    2
    80    28    27    2
    81    64    63    2
    82    29    31    1
    83    29    26    1
    84   100    99    1
    85    46    47   ar
    86    46    48   ar
    87    63    62    1
    88   103   102    1
    89    27    26    1
    90    62    65    1
    91    93    91   am
    92    73    72    1
    93    91    90    1
    94    80    79    2
    95    81    82    1
    96    81    78    1
    97    85    83   ar
    98   101    99    1
    99    26    25    1
   100    67    65    1
   101    82    83    1
   102    65    66    1
   103    99    98    1
   104    79    78    1
   105    79    86   am
   106    83    84   ar
   107    90    87    1
   108    87    86    1
   109    87    88    1
   110    72    69    1
   111    78    77    1
   112    68    69    1
   113    98    95    1
   114    69    70    1
   115    88    89    2
   116    95    94    1
   117    95    96    1
   118    70    71    2
   119    96    97    2
