@<TRIPOS>MOLECULE
tmp/5n3mA01.pdb
 102 99 0 0 0
SMALL
GASTEIGER

@<TRIPOS>ATOM
      1  N        -18.6120   -1.2160  -20.4230 N.3   119  PHE119     -0.1241
      2  CA       -19.8920   -1.9000  -20.6090 C.3   119  PHE119      0.1605
      3  C        -19.7230   -3.4090  -20.7320 C.2   119  PHE119      0.2264
      4  O        -20.4620   -4.1720  -20.1100 O.2   119  PHE119     -0.2867
      5  CB       -20.5770   -1.3340  -21.8520 C.3   119  PHE119      0.0534
      6  CG       -21.9790   -1.8740  -22.0880 C.ar  119  PHE119     -0.0203
      7  CD1      -23.0750   -1.3590  -21.4130 C.ar  119  PHE119     -0.0042
      8  CD2      -22.2040   -2.8530  -23.0480 C.ar  119  PHE119     -0.0042
      9  CE1      -24.3650   -1.8560  -21.6720 C.ar  119  PHE119     -0.0003
     10  CE2      -23.4950   -3.3410  -23.3020 C.ar  119  PHE119     -0.0003
     11  CZ       -24.5650   -2.8320  -22.6320 C.ar  119  PHE119     -0.0000
     12  N        -21.1430   -6.0820  -17.9880 N.3   123  ARG123     -0.1245
     13  CA       -22.1300   -7.0950  -18.3640 C.3   123  ARG123      0.1563
     14  C        -21.5950   -8.5110  -18.1720 C.2   123  ARG123      0.2260
     15  O        -22.3850   -9.4290  -17.8870 O.2   123  ARG123     -0.2867
     16  CB       -22.5950   -6.8790  -19.8100 C.3   123  ARG123      0.0307
     17  CG       -23.4790   -5.6730  -20.0020 C.3   123  ARG123      0.0489
     18  CD       -24.8220   -5.8870  -19.3520 C.3   123  ARG123      0.2205
     19  NE       -25.7690   -4.8090  -19.6300 N.pl3 123  ARG123     -0.0865
     20  CZ       -26.5720   -4.7160  -20.6850 C.cat 123  ARG123      0.5346
     21  NH1      -27.4010   -3.6730  -20.7610 N.pl3 123  ARG123      0.1354
     22  NH2      -26.5410   -5.6300  -21.6490 N.pl3 123  ARG123      0.1354
     23  N        -21.6630    7.1150  -20.3060 N.3   157  LYS157     -0.1231
     24  CA       -22.2520    5.7800  -20.2470 C.3   157  LYS157      0.1678
     25  C        -21.0900    4.7930  -20.2770 C.2   157  LYS157      0.2434
     26  O        -20.0100    5.1420  -20.7610 O.2   157  LYS157     -0.2733
     27  CB       -23.2300    5.5200  -21.4000 C.3   157  LYS157      0.0284
     28  CG       -22.6420    5.7380  -22.7810 C.3   157  LYS157      0.0035
     29  CD       -23.6740    5.4720  -23.8640 C.3   157  LYS157      0.0206
     30  CE       -23.1700    5.8280  -25.2600 C.3   157  LYS157      0.1093
     31  NZ       -24.1940    5.5320  -26.2880 N.3   157  LYS157     -0.1314
     32  N        -21.2660    3.5580  -19.7920 N.am  158  PRO158     -0.2718
     33  CA       -20.1240    2.6330  -19.7460 C.3   158  PRO158      0.1535
     34  C        -19.5330    2.3090  -21.1090 C.2   158  PRO158      0.2598
     35  O        -18.3500    1.9470  -21.1730 O.2   158  PRO158     -0.2715
     36  CB       -20.6980    1.3700  -19.0640 C.3   158  PRO158      0.0310
     37  CG       -21.8930    1.8410  -18.3540 C.3   158  PRO158      0.0237
     38  CD       -22.4540    3.0070  -19.1310 C.3   158  PRO158      0.0939
     39  N        -20.3180    2.3940  -22.1900 N.am  159  GLU159     -0.1978
     40  CA       -19.8030    2.1340  -23.5390 C.3   159  GLU159      0.1602
     41  C        -18.6940    3.0950  -23.9270 C.2   159  GLU159      0.2287
     42  O        -17.8780    2.7560  -24.7930 O.2   159  GLU159     -0.2864
     43  CB       -20.9460    2.2330  -24.5700 C.3   159  GLU159      0.0415
     44  CG       -22.0500    1.2000  -24.4330 C.3   159  GLU159      0.1163
     45  CD       -23.2390    1.6430  -23.5840 C.2   159  GLU159      0.3649
     46  OE1      -23.0280    2.1630  -22.4550 O.co2 159  GLU159     -0.2457
     47  OE2      -24.3910    1.4020  -24.0020 O.co2 159  GLU159     -0.2457
     48  N        -27.9810    9.4780  -24.8380 N.3   189  THR189     -0.1218
     49  CA       -28.4720    8.1190  -24.8840 C.3   189  THR189      0.1862
     50  C        -29.7030    8.0230  -23.9760 C.2   189  THR189      0.2287
     51  O        -29.6470    8.5260  -22.8570 O.2   189  THR189     -0.2866
     52  CB       -27.3570    7.2220  -24.3600 C.3   189  THR189      0.1770
     53  OG1      -26.2250    7.3370  -25.2540 O.3   189  THR189     -0.2211
     54  CG2      -27.8410    5.7950  -24.2900 C.3   189  THR189      0.0375
     55  N        -31.3340    6.1640  -21.7200 N.3   191  GLU191     -0.1231
     56  CA       -31.2750    5.8170  -20.3090 C.3   191  GLU191      0.1699
     57  C        -30.5190    6.8500  -19.4710 C.2   191  GLU191      0.2592
     58  O        -30.7310    6.9000  -18.2540 O.2   191  GLU191     -0.2718
     59  CB       -30.5720    4.4660  -20.1420 C.3   191  GLU191      0.0402
     60  CG       -31.3980    3.2190  -20.5650 C.3   191  GLU191      0.1161
     61  CD       -31.3170    2.8430  -22.0270 C.2   191  GLU191      0.3649
     62  OE1      -30.8990    3.6780  -22.8690 O.co2 191  GLU191     -0.2457
     63  OE2      -31.6960    1.6810  -22.3070 O.co2 191  GLU191     -0.2457
     64  N        -29.6740    7.6790  -20.0920 N.am  192  TYR192     -0.1976
     65  CA       -28.8080    8.6140  -19.4060 C.3   192  TYR192      0.1639
     66  C        -29.2750   10.0570  -19.5030 C.2   192  TYR192      0.2290
     67  O        -28.6490   10.9360  -18.9040 O.2   192  TYR192     -0.2864
     68  CB       -27.3680    8.4590  -19.9460 C.3   192  TYR192      0.0560
     69  CG       -26.6570    7.2880  -19.2850 C.ar  192  TYR192     -0.0198
     70  CD1      -26.9020    5.9710  -19.6440 C.ar  192  TYR192     -0.0009
     71  CD2      -25.7780    7.5160  -18.2460 C.ar  192  TYR192     -0.0009
     72  CE1      -26.2670    4.9220  -19.0100 C.ar  192  TYR192      0.0417
     73  CE2      -25.1590    6.4870  -17.6030 C.ar  192  TYR192      0.0417
     74  CZ       -25.4210    5.1950  -17.9470 C.ar  192  TYR192      0.1957
     75  OH       -24.7900    4.2150  -17.1980 O.3   192  TYR192     -0.2866
     76  N        -25.8720    2.1910  -12.4200 N.3   218  GLU218     -0.1245
     77  CA       -25.7090    1.0570  -13.3370 C.3   218  GLU218      0.1567
     78  C        -24.4830    0.2130  -12.9600 C.2   218  GLU218      0.2260
     79  O        -24.5250   -1.0160  -13.0090 O.2   218  GLU218     -0.2867
     80  CB       -25.6470    1.5320  -14.8060 C.3   218  GLU218      0.0388
     81  CG       -25.6140    0.3550  -15.7310 C.3   218  GLU218      0.1160
     82  CD       -25.8760    0.6680  -17.1840 C.2   218  GLU218      0.3649
     83  OE1      -25.4900    1.7320  -17.6880 O.co2 218  GLU218     -0.2457
     84  OE2      -26.4680   -0.1890  -17.8620 O.co2 218  GLU218     -0.2457
     85  N        -29.5320   -0.0260  -15.3890 N.3   224  PRO224     -0.2116
     86  CA       -29.7130    1.3880  -15.1290 C.3   224  PRO224      0.1372
     87  C        -30.9980    1.6470  -14.3560 C.2   224  PRO224      0.2244
     88  O        -31.8940    0.7940  -14.2950 O.2   224  PRO224     -0.2868
     89  CB       -29.7410    2.0090  -16.5330 C.3   224  PRO224      0.0268
     90  CG       -30.3340    0.9450  -17.3540 C.3   224  PRO224      0.0207
     91  CD       -29.8470   -0.3630  -16.7890 C.3   224  PRO224      0.0892
     92  N        -35.4390    2.0430  -16.9380 N.3   227  PHE227     -0.1241
     93  CA       -35.3030    0.9880  -17.9310 C.3   227  PHE227      0.1605
     94  C        -36.6950    0.6190  -18.4150 C.2   227  PHE227      0.2264
     95  O        -37.6200    0.5020  -17.6170 O.2   227  PHE227     -0.2867
     96  CB       -34.6020   -0.2740  -17.3370 C.3   227  PHE227      0.0534
     97  CG       -34.3380   -1.3450  -18.3360 C.ar  227  PHE227     -0.0203
     98  CD1      -35.1730   -2.4440  -18.4180 C.ar  227  PHE227     -0.0042
     99  CD2      -33.2590   -1.2580  -19.2070 C.ar  227  PHE227     -0.0042
    100  CE1      -34.9320   -3.4540  -19.3610 C.ar  227  PHE227     -0.0003
    101  CE2      -33.0160   -2.2500  -20.1440 C.ar  227  PHE227     -0.0003
    102  CZ       -33.8570   -3.3490  -20.2270 C.ar  227  PHE227     -0.0000
@<TRIPOS>BOND
     1    31    30    1
     2    30    29    1
     3    53    52    1
     4    49    48    1
     5    49    52    1
     6    49    50    1
     7    42    41    2
     8    43    44    1
     9    43    40    1
    10    44    45    1
    11    52    54    1
    12    47    45   ar
    13    50    51    2
    14    41    40    1
    15    29    28    1
    16    45    46   ar
    17    40    39    1
    18    10     8   ar
    19    10    11   ar
    20     8     6   ar
    21    62    61   ar
    22    28    27    1
    23    11     9   ar
    24    63    61   ar
    25    39    34   am
    26     6     5    1
    27     6     7   ar
    28    61    60    1
    29     5     2    1
    30    55    56    1
    31     9     7   ar
    32    22    20    1
    33    27    24    1
    34    35    34    2
    35    34    33    1
    36    26    25    2
    37    21    20    1
    38     3     2    1
    39     3     4    2
    40    20    19    2
    41     2     1    1
    42    60    59    1
    43    56    59    1
    44    56    57    1
    45    23    24    1
    46    25    24    1
    47    25    32   am
    48   102   101   ar
    49   102   100   ar
    50   101    99   ar
    51    64    57   am
    52    64    65    1
    53    17    16    1
    54    17    18    1
    55    68    65    1
    56    68    69    1
    57    16    13    1
    58    32    33    1
    59    32    38    1
    60    33    36    1
    61    70    69   ar
    62    70    72   ar
    63    19    18    1
    64    66    65    1
    65    66    67    2
    66    57    58    2
    67   100    98   ar
    68    69    71   ar
    69    99    97   ar
    70    38    37    1
    71    36    37    1
    72    72    74   ar
    73    98    97   ar
    74    94    93    1
    75    94    95    2
    76    13    14    1
    77    13    12    1
    78    97    96    1
    79    71    73   ar
    80    14    15    2
    81    74    73   ar
    82    74    75    1
    83    93    96    1
    84    93    92    1
    85    84    82   ar
    86    83    82   ar
    87    90    91    1
    88    90    89    1
    89    82    81    1
    90    91    85    1
    91    89    86    1
    92    81    80    1
    93    85    86    1
    94    86    87    1
    95    80    77    1
    96    87    88    2
    97    77    78    1
    98    77    76    1
    99    79    78    2
