@<TRIPOS>MOLECULE
tmp/5n3oA02.pdb
 136 127 0 0 0
SMALL
GASTEIGER

@<TRIPOS>ATOM
      1  N        -13.1750   -2.1410  -34.6940 N.3    37  LEU37      -0.1231
      2  CA       -13.4260   -2.1680  -33.2560 C.3    37  LEU37       0.1693
      3  C        -14.8290   -1.7260  -32.8760 C.2    37  LEU37       0.2592
      4  O        -15.2760   -2.0380  -31.7680 O.2    37  LEU37      -0.2718
      5  CB       -12.4200   -1.2640  -32.5300 C.3    37  LEU37       0.0284
      6  CG       -10.9410   -1.5880  -32.7340 C.3    37  LEU37       0.0019
      7  CD1      -10.0800   -0.4940  -32.1050 C.3    37  LEU37       0.0001
      8  CD2      -10.5700   -2.9450  -32.2060 C.3    37  LEU37       0.0001
      9  N        -15.5110   -0.9810  -33.7310 N.am   38  GLY38      -0.1957
     10  CA       -16.8500   -0.5020  -33.4270 C.3    38  GLY38       0.1869
     11  C        -17.4390    0.1270  -34.6690 C.2    38  GLY38       0.2309
     12  O        -16.7120    0.5320  -35.5760 O.2    38  GLY38      -0.2863
     13  N        -14.8270    2.7860  -35.8560 N.3    45  VAL45      -0.1245
     14  CA       -13.5120    2.8800  -35.2410 C.3    45  VAL45       0.1561
     15  C        -12.7250    1.6390  -35.6410 C.2    45  VAL45       0.2260
     16  O        -13.2080    0.5130  -35.4750 O.2    45  VAL45      -0.2867
     17  CB       -13.6110    3.0340  -33.7100 C.3    45  VAL45       0.0252
     18  CG1      -12.2430    3.0980  -33.1040 C.3    45  VAL45       0.0019
     19  CG2      -14.4070    4.2910  -33.3380 C.3    45  VAL45       0.0019
     20  N         -6.3570    3.7820  -32.5290 N.3    58  ALA58      -0.1245
     21  CA        -7.7650    3.6120  -32.8450 C.3    58  ALA58       0.1562
     22  C         -8.1750    4.7800  -33.7350 C.2    58  ALA58       0.2260
     23  O         -8.1830    5.9270  -33.2900 O.2    58  ALA58      -0.2867
     24  CB        -8.5850    3.5810  -31.5620 C.3    58  ALA58       0.0290
     25  N        -10.9480    6.6920  -35.7390 N.3    60  LYS60      -0.1245
     26  CA       -12.3660    6.9430  -35.9570 C.3    60  LYS60       0.1561
     27  C        -12.5360    7.5730  -37.3320 C.2    60  LYS60       0.2260
     28  O        -11.9060    8.5890  -37.6430 O.2    60  LYS60      -0.2867
     29  CB       -12.9020    7.8400  -34.8450 C.3    60  LYS60       0.0271
     30  CG       -14.3720    8.1720  -34.9400 C.3    60  LYS60       0.0035
     31  CD       -14.8440    8.8310  -33.6560 C.3    60  LYS60       0.0206
     32  CE       -16.3100    9.1450  -33.6640 C.3    60  LYS60       0.1093
     33  NZ       -16.6880    9.4970  -32.2780 N.3    60  LYS60      -0.1314
     34  N         -9.0270    9.8740  -23.5210 N.3    92  VAL92      -0.1245
     35  CA        -8.2400    9.3010  -24.6190 C.3    92  VAL92       0.1561
     36  C         -7.6470   10.4440  -25.4320 C.2    92  VAL92       0.2260
     37  O         -8.3360   11.4150  -25.7690 O.2    92  VAL92      -0.2867
     38  CB        -9.0740    8.3490  -25.5110 C.3    92  VAL92       0.0252
     39  CG1       -8.2390    7.8000  -26.6550 C.3    92  VAL92       0.0019
     40  CG2       -9.6580    7.1300  -24.7510 C.3    92  VAL92       0.0019
     41  N         -6.6870    8.1640  -32.5360 N.3   108  MET108     -0.1230
     42  CA        -6.6100    8.1960  -31.0820 C.3   108  MET108      0.1702
     43  C         -5.6350    7.1350  -30.5790 C.2   108  MET108      0.2592
     44  O         -5.4110    6.1050  -31.2240 O.2   108  MET108     -0.2718
     45  CB        -7.9760    7.8460  -30.4690 C.3   108  MET108      0.0401
     46  CG        -9.2030    8.5590  -31.0610 C.3   108  MET108      0.0596
     47  SD        -9.1610   10.3650  -31.0380 S.3   108  MET108     -0.1393
     48  CE        -9.1170   10.6640  -29.2660 C.3   108  MET108      0.0692
     49  N         -5.0960    7.3480  -29.3760 N.am  109  GLU109     -0.1966
     50  CA        -4.3650    6.2850  -28.6990 C.3   109  GLU109      0.1733
     51  C         -5.2530    5.0410  -28.6290 C.2   109  GLU109      0.2616
     52  O         -6.4610    5.1380  -28.4040 O.2   109  GLU109     -0.2715
     53  CB        -3.9660    6.7350  -27.2800 C.3   109  GLU109      0.0429
     54  CG        -3.1570    5.6770  -26.5240 C.3   109  GLU109      0.1163
     55  CD        -2.6370    6.1110  -25.1570 C.2   109  GLU109      0.3649
     56  OE1       -2.2620    5.2110  -24.3680 O.co2 109  GLU109     -0.2457
     57  OE2       -2.5700    7.3210  -24.8690 O.co2 109  GLU109     -0.2457
     58  N         -4.6480    3.8650  -28.8090 N.am  110  TYR110     -0.1960
     59  CA        -5.3690    2.5970  -28.7140 C.3   110  TYR110      0.1771
     60  C         -5.2930    2.0660  -27.2880 C.2   110  TYR110      0.2619
     61  O         -4.1980    1.8960  -26.7290 O.2   110  TYR110     -0.2715
     62  CB        -4.8120    1.5430  -29.6770 C.3   110  TYR110      0.0574
     63  CG        -5.4940    0.1950  -29.5580 C.ar  110  TYR110     -0.0198
     64  CD1       -6.8770    0.0960  -29.6210 C.ar  110  TYR110     -0.0009
     65  CD2       -4.7660   -0.9680  -29.3510 C.ar  110  TYR110     -0.0009
     66  CE1       -7.5330   -1.1080  -29.4850 C.ar  110  TYR110      0.0417
     67  CE2       -5.4160   -2.1940  -29.2180 C.ar  110  TYR110      0.0417
     68  CZ        -6.8060   -2.2480  -29.2890 C.ar  110  TYR110      0.1957
     69  OH        -7.4770   -3.4480  -29.1690 O.3   110  TYR110     -0.2866
     70  N         -6.4580    1.7770  -26.7210 N.am  111  VAL111     -0.1977
     71  CA        -6.5850    1.3060  -25.3450 C.3   111  VAL111      0.1596
     72  C         -7.0700   -0.1400  -25.3870 C.2   111  VAL111      0.2287
     73  O         -8.2710   -0.3790  -25.5900 O.2   111  VAL111     -0.2864
     74  CB        -7.5410    2.1980  -24.5430 C.3   111  VAL111      0.0276
     75  CG1       -7.5680    1.7450  -23.0840 C.3   111  VAL111      0.0022
     76  CG2       -7.1230    3.6530  -24.6560 C.3   111  VAL111      0.0022
     77  N        -14.0360   -1.5990  -23.4460 N.3   115  GLU115     -0.1245
     78  CA       -15.0420   -0.7420  -22.8450 C.3   115  GLU115      0.1567
     79  C        -15.4930   -1.2710  -21.4850 C.2   115  GLU115      0.2260
     80  O        -15.6460   -2.4810  -21.2750 O.2   115  GLU115     -0.2867
     81  CB       -16.2640   -0.6580  -23.7690 C.3   115  GLU115      0.0388
     82  CG       -15.9610   -0.0820  -25.1280 C.3   115  GLU115      0.1160
     83  CD       -17.1310   -0.1350  -26.0770 C.2   115  GLU115      0.3649
     84  OE1      -18.1860   -0.7140  -25.7110 O.co2 115  GLU115     -0.2457
     85  OE2      -16.9760    0.3900  -27.2040 O.co2 115  GLU115     -0.2457
     86  N        -20.2440    2.2930  -22.4220 N.3   157  GLU157     -0.1231
     87  CA       -19.5960    2.0370  -23.7000 C.3   157  GLU157      0.1699
     88  C        -18.5110    3.0430  -24.0230 C.2   157  GLU157      0.2592
     89  O        -17.6020    2.7250  -24.7960 O.2   157  GLU157     -0.2718
     90  CB       -20.6490    2.0500  -24.8010 C.3   157  GLU157      0.0402
     91  CG       -21.6990    0.9750  -24.6660 C.3   157  GLU157      0.1161
     92  CD       -23.0050    1.4430  -23.9710 C.2   157  GLU157      0.3649
     93  OE1      -22.9950    2.1160  -22.8850 O.co2 157  GLU157     -0.2457
     94  OE2      -24.0670    1.1060  -24.5540 O.co2 157  GLU157     -0.2457
     95  N        -18.5790    4.2320  -23.4370 N.am  158  ASN158     -0.1974
     96  CA       -17.6460    5.3020  -23.7440 C.3   158  ASN158      0.1688
     97  C        -16.5000    5.4100  -22.7570 C.2   158  ASN158      0.2292
     98  O        -15.7240    6.3710  -22.8280 O.2   158  ASN158     -0.2864
     99  CB       -18.3820    6.6370  -23.8630 C.3   158  ASN158      0.1181
    100  CG       -19.1580    6.7460  -25.1530 C.2   158  ASN158      0.2629
    101  OD1      -18.9610    5.9410  -26.0630 O.2   158  ASN158     -0.2716
    102  ND2      -20.0160    7.7540  -25.2680 N.am  158  ASN158     -0.0877
    103  N        -13.2000    3.5480  -21.5970 N.3   160  LEU160     -0.1245
    104  CA       -12.2530    2.4680  -21.8380 C.3   160  LEU160      0.1561
    105  C        -11.4290    2.2520  -20.5770 C.2   160  LEU160      0.2260
    106  O        -11.2140    3.1800  -19.7920 O.2   160  LEU160     -0.2867
    107  CB       -11.3370    2.8300  -23.0040 C.3   160  LEU160      0.0270
    108  CG       -12.0850    3.2110  -24.2800 C.3   160  LEU160      0.0019
    109  CD1      -11.1240    3.5890  -25.3760 C.3   160  LEU160      0.0001
    110  CD2      -13.0850    2.1580  -24.7240 C.3   160  LEU160      0.0001
    111  N        -13.8020    8.1040  -24.1020 N.3   170  THR170     -0.1203
    112  CA       -13.7640    8.1730  -25.5510 C.3   170  THR170      0.1994
    113  C        -15.1160    8.6550  -26.0710 C.2   170  THR170      0.2617
    114  O        -16.1330    8.5780  -25.3830 O.2   170  THR170     -0.2717
    115  CB       -13.3560    6.8160  -26.1740 C.3   170  THR170      0.1784
    116  OG1      -13.1160    6.9640  -27.5750 O.3   170  THR170     -0.2211
    117  CG2      -14.4230    5.7620  -25.9800 C.3   170  THR170      0.0376
    118  N        -15.1060    9.0990  -27.3200 N.am  171  ASP171     -0.1973
    119  CA       -16.2730    9.5600  -28.0580 C.3   171  ASP171      0.1709
    120  C        -16.7640   10.9000  -27.5560 C.2   171  ASP171      0.2293
    121  O        -17.5860   10.9790  -26.6360 O.2   171  ASP171     -0.2864
    122  CB       -17.3880    8.5180  -28.0730 C.3   171  ASP171      0.1436
    123  CG       -18.4100    8.8000  -29.1550 C.2   171  ASP171      0.3671
    124  OD1      -19.1740    7.8700  -29.5170 O.co2 171  ASP171     -0.2456
    125  OD2      -18.4430    9.9350  -29.6660 O.co2 171  ASP171     -0.2456
    126  N        -12.4210   -6.3790  -27.5880 N.3   313  PHE313     -0.1241
    127  CA       -13.4080   -5.7790  -28.4750 C.3   313  PHE313      0.1605
    128  C        -14.0630   -6.8900  -29.2790 C.2   313  PHE313      0.2264
    129  O        -13.4960   -7.9670  -29.4520 O.2   313  PHE313     -0.2867
    130  CB       -12.7700   -4.7260  -29.3980 C.3   313  PHE313      0.0534
    131  CG       -12.2080   -3.5670  -28.6460 C.ar  313  PHE313     -0.0203
    132  CD1      -13.0060   -2.4740  -28.3290 C.ar  313  PHE313     -0.0042
    133  CD2      -10.8940   -3.5850  -28.2030 C.ar  313  PHE313     -0.0042
    134  CE1      -12.4850   -1.4250  -27.6100 C.ar  313  PHE313     -0.0003
    135  CE2      -10.3800   -2.5270  -27.4920 C.ar  313  PHE313     -0.0003
    136  CZ       -11.1740   -1.4540  -27.1960 C.ar  313  PHE313     -0.0000
@<TRIPOS>BOND
     1    28    27    2
     2    27    26    1
     3    26    25    1
     4    26    29    1
     5    13    14    1
     6    15    16    2
     7    15    14    1
     8    12    11    2
     9    14    17    1
    10    30    29    1
    11    30    31    1
    12     1     2    1
    13    11    10    1
    14    22    23    2
    15    22    21    1
    16     9    10    1
    17     9     3   am
    18    17    19    1
    19    17    18    1
    20    32    31    1
    21    32    33    1
    22     2     3    1
    23     2     5    1
    24     3     4    2
    25    21    20    1
    26    21    24    1
    27     6     5    1
    28     6     8    1
    29     6     7    1
    30    41    42    1
    31    44    43    2
    32    42    43    1
    33    42    45    1
    34    46    47    1
    35    46    45    1
    36    47    48    1
    37    43    49   am
    38    62    63    1
    39    62    59    1
    40   125   123   ar
    41    64    63   ar
    42    64    66   ar
    43    63    65   ar
    44   124   123   ar
    45    66    68   ar
    46   129   128    2
    47   130   131    1
    48   130   127    1
    49    49    50    1
    50    65    67   ar
    51    68    67   ar
    52    68    69    1
    53   128   127    1
    54   123   122    1
    55    58    59    1
    56    58    51   am
    57    59    60    1
    58    50    51    1
    59    50    53    1
    60   131   132   ar
    61   131   133   ar
    62    51    52    2
    63   127   126    1
    64   132   134   ar
    65   133   135   ar
    66   122   119    1
    67   119   120    1
    68   119   118    1
    69   134   136   ar
    70   116   115    1
    71   120   121    2
    72   135   136   ar
    73   118   113   am
    74    60    61    2
    75    60    70   am
    76    53    54    1
    77    85    83   ar
    78    70    71    1
    79    39    38    1
    80    54    55    1
    81   115   117    1
    82   115   112    1
    83    83    84   ar
    84    83    82    1
    85   113   112    1
    86   113   114    2
    87   101   100    2
    88    37    36    2
    89    73    72    2
    90   112   111    1
    91    38    40    1
    92    38    35    1
    93    36    35    1
    94    72    71    1
    95   109   108    1
    96    71    74    1
    97   102   100   am
    98    55    57   ar
    99    55    56   ar
   100   100    99    1
   101    82    81    1
   102    90    91    1
   103    90    87    1
   104    89    88    2
   105   110   108    1
   106    91    92    1
   107    76    74    1
   108    35    34    1
   109    94    92   ar
   110    74    75    1
   111   108   107    1
   112    88    87    1
   113    88    95   am
   114    92    93   ar
   115    99    96    1
   116    81    78    1
   117    96    95    1
   118    96    97    1
   119    87    86    1
   120    77    78    1
   121   107   104    1
   122    78    79    1
   123    98    97    2
   124   104   103    1
   125   104   105    1
   126    79    80    2
   127   105   106    2
