@<TRIPOS>MOLECULE
tmp/5n3pA02.pdb
 102 95 0 0 0
SMALL
GASTEIGER

@<TRIPOS>ATOM
      1  N        -13.5160   -2.0230  -35.0180 N.3    38  LEU38      -0.1231
      2  CA       -13.7820   -2.1130  -33.5850 C.3    38  LEU38       0.1693
      3  C        -15.1780   -1.6430  -33.2040 C.2    38  LEU38       0.2592
      4  O        -15.6440   -1.9630  -32.1050 O.2    38  LEU38      -0.2718
      5  CB       -12.7640   -1.2830  -32.7900 C.3    38  LEU38       0.0284
      6  CG       -11.2760   -1.5770  -33.0170 C.3    38  LEU38       0.0019
      7  CD1      -10.4100   -0.5430  -32.3580 C.3    38  LEU38       0.0001
      8  CD2      -10.9800   -2.9450  -32.4540 C.3    38  LEU38       0.0001
      9  N        -15.8370   -0.8780  -34.0590 N.am   39  GLY39      -0.1957
     10  CA       -17.1680   -0.3740  -33.7690 C.3    39  GLY39       0.1869
     11  C        -17.7180    0.3090  -34.9940 C.2    39  GLY39       0.2309
     12  O        -16.9660    0.7480  -35.8680 O.2    39  GLY39      -0.2863
     13  N        -15.0180    2.8970  -36.1910 N.3    46  VAL46      -0.1245
     14  CA       -13.7050    2.9770  -35.5590 C.3    46  VAL46       0.1561
     15  C        -12.9300    1.7240  -35.9500 C.2    46  VAL46       0.2260
     16  O        -13.4470    0.6030  -35.8350 O.2    46  VAL46      -0.2867
     17  CB       -13.7940    3.1380  -34.0280 C.3    46  VAL46       0.0252
     18  CG1      -12.4060    3.1020  -33.4170 C.3    46  VAL46       0.0019
     19  CG2      -14.5160    4.4380  -33.6640 C.3    46  VAL46       0.0019
     20  N         -6.5020    3.7260  -32.7450 N.3    59  ALA59      -0.1245
     21  CA        -7.9150    3.6060  -33.0900 C.3    59  ALA59       0.1562
     22  C         -8.3000    4.7740  -33.9910 C.2    59  ALA59       0.2260
     23  O         -8.2680    5.9290  -33.5690 O.2    59  ALA59      -0.2867
     24  CB        -8.7750    3.5880  -31.8350 C.3    59  ALA59       0.0290
     25  N         -9.0140    9.8720  -23.6170 N.3    93  VAL93      -0.1245
     26  CA        -8.2520    9.3020  -24.7230 C.3    93  VAL93       0.1561
     27  C         -7.6080   10.4320  -25.5290 C.2    93  VAL93       0.2260
     28  O         -8.2290   11.4650  -25.8150 O.2    93  VAL93      -0.2867
     29  CB        -9.1530    8.4190  -25.6060 C.3    93  VAL93       0.0252
     30  CG1       -8.3550    7.8010  -26.7350 C.3    93  VAL93       0.0019
     31  CG2       -9.7800    7.2620  -24.8240 C.3    93  VAL93       0.0019
     32  N         -6.7650    8.0960  -32.6930 N.3   109  MET109     -0.1230
     33  CA        -6.6620    8.1530  -31.2430 C.3   109  MET109      0.1702
     34  C         -5.7930    7.0230  -30.7170 C.2   109  MET109      0.2592
     35  O         -5.5910    6.0080  -31.3860 O.2   109  MET109     -0.2718
     36  CB        -8.0470    8.0330  -30.6170 C.3   109  MET109      0.0401
     37  CG        -8.9340    9.2200  -30.8490 C.3   109  MET109      0.0596
     38  SD       -10.6190    8.7720  -30.4860 S.3   109  MET109     -0.1393
     39  CE       -11.0400    7.7760  -31.8980 C.3   109  MET109      0.0692
     40  N         -5.3020    7.1920  -29.4900 N.am  110  GLU110     -0.1966
     41  CA        -4.6560    6.0840  -28.8010 C.3   110  GLU110      0.1733
     42  C         -5.5870    4.8700  -28.7940 C.2   110  GLU110      0.2616
     43  O         -6.8070    4.9980  -28.6350 O.2   110  GLU110     -0.2715
     44  CB        -4.2790    6.4930  -27.3700 C.3   110  GLU110      0.0429
     45  CG        -3.5310    5.3950  -26.6420 C.3   110  GLU110      0.1163
     46  CD        -2.9380    5.8350  -25.3220 C.2   110  GLU110      0.3649
     47  OE1       -2.6120    4.9340  -24.5190 O.co2 110  GLU110     -0.2457
     48  OE2       -2.7900    7.0610  -25.0920 O.co2 110  GLU110     -0.2457
     49  N         -5.0070    3.6810  -28.9960 N.am  111  TYR111     -0.1960
     50  CA        -5.7550    2.4260  -28.9250 C.3   111  TYR111      0.1771
     51  C         -5.6730    1.8780  -27.5020 C.2   111  TYR111      0.2619
     52  O         -4.5730    1.7160  -26.9580 O.2   111  TYR111     -0.2715
     53  CB        -5.2150    1.4090  -29.9280 C.3   111  TYR111      0.0574
     54  CG        -5.9030    0.0600  -29.8000 C.ar  111  TYR111     -0.0198
     55  CD1       -7.2770   -0.0290  -29.8570 C.ar  111  TYR111     -0.0009
     56  CD2       -5.1720   -1.1110  -29.5970 C.ar  111  TYR111     -0.0009
     57  CE1       -7.9300   -1.2420  -29.7250 C.ar  111  TYR111      0.0417
     58  CE2       -5.8210   -2.3490  -29.4550 C.ar  111  TYR111      0.0417
     59  CZ        -7.2020   -2.3990  -29.5330 C.ar  111  TYR111      0.1957
     60  OH        -7.9090   -3.5820  -29.4050 O.3   111  TYR111     -0.2866
     61  N         -6.8300    1.6350  -26.8970 N.am  112  VAL112     -0.1977
     62  CA        -6.9390    1.1690  -25.5150 C.3   112  VAL112      0.1596
     63  C         -7.4100   -0.2810  -25.5640 C.2   112  VAL112      0.2287
     64  O         -8.6060   -0.5180  -25.7690 O.2   112  VAL112     -0.2864
     65  CB        -7.9140    2.0590  -24.7290 C.3   112  VAL112      0.0276
     66  CG1       -7.9470    1.6450  -23.2540 C.3   112  VAL112      0.0022
     67  CG2       -7.5200    3.5200  -24.8660 C.3   112  VAL112      0.0022
     68  N        -14.3980   -1.7980  -23.6450 N.3   116  GLU116     -0.1245
     69  CA       -15.3830   -0.9140  -23.0360 C.3   116  GLU116      0.1567
     70  C        -15.7430   -1.3890  -21.6430 C.2   116  GLU116      0.2260
     71  O        -15.9080   -2.5920  -21.4070 O.2   116  GLU116     -0.2867
     72  CB       -16.6660   -0.8710  -23.8830 C.3   116  GLU116      0.0388
     73  CG       -16.4980   -0.3300  -25.2830 C.3   116  GLU116      0.1160
     74  CD       -17.7590   -0.4890  -26.1130 C.2   116  GLU116      0.3649
     75  OE1      -18.7630   -1.0420  -25.5990 O.co2 116  GLU116     -0.2457
     76  OE2      -17.7460   -0.0440  -27.2740 O.co2 116  GLU116     -0.2457
     77  N        -13.3620    3.3430  -21.8330 N.3   161  LEU161     -0.1245
     78  CA       -12.4680    2.2250  -22.0840 C.3   161  LEU161      0.1561
     79  C        -11.5930    2.0020  -20.8660 C.2   161  LEU161      0.2260
     80  O        -11.2860    2.9380  -20.1240 O.2   161  LEU161     -0.2867
     81  CB       -11.6100    2.4970  -23.3150 C.3   161  LEU161      0.0270
     82  CG       -12.4110    2.8750  -24.5670 C.3   161  LEU161      0.0019
     83  CD1      -11.4510    3.3190  -25.6670 C.3   161  LEU161      0.0001
     84  CD2      -13.2780    1.7160  -25.0180 C.3   161  LEU161      0.0001
     85  N        -13.8070    8.1880  -24.2610 N.3   171  THR171     -0.1218
     86  CA       -13.7830    8.3760  -25.6930 C.3   171  THR171      0.1862
     87  C        -15.1700    8.8070  -26.1690 C.2   171  THR171      0.2287
     88  O        -16.1570    8.7870  -25.4290 O.2   171  THR171     -0.2866
     89  CB       -13.3280    7.1060  -26.4150 C.3   171  THR171      0.1770
     90  OG1      -13.0930    7.4340  -27.7950 O.3   171  THR171     -0.2211
     91  CG2      -14.3810    6.0150  -26.2830 C.3   171  THR171      0.0375
     92  N        -12.7860   -6.4490  -27.8700 N.3   314  PHE314     -0.1241
     93  CA       -13.7780   -5.8270  -28.7250 C.3   314  PHE314      0.1605
     94  C        -14.4600   -6.9080  -29.5430 C.2   314  PHE314      0.2264
     95  O        -13.9620   -8.0220  -29.6640 O.2   314  PHE314     -0.2867
     96  CB       -13.1200   -4.7890  -29.6380 C.3   314  PHE314      0.0534
     97  CG       -12.5500   -3.6280  -28.8990 C.ar  314  PHE314     -0.0203
     98  CD1      -13.3370   -2.5430  -28.6110 C.ar  314  PHE314     -0.0042
     99  CD2      -11.2390   -3.6400  -28.4370 C.ar  314  PHE314     -0.0042
    100  CE1      -12.8250   -1.4600  -27.9170 C.ar  314  PHE314     -0.0003
    101  CE2      -10.7250   -2.5630  -27.7510 C.ar  314  PHE314     -0.0003
    102  CZ       -11.5160   -1.4700  -27.4930 C.ar  314  PHE314     -0.0000
@<TRIPOS>BOND
     1    13    14    1
     2    15    16    2
     3    15    14    1
     4    12    11    2
     5    14    17    1
     6     1     2    1
     7    11    10    1
     8     9    10    1
     9     9     3   am
    10    17    19    1
    11    17    18    1
    12    22    23    2
    13    22    21    1
    14     2     3    1
    15     2     5    1
    16     3     4    2
    17    21    20    1
    18    21    24    1
    19     6     5    1
    20     6     8    1
    21     6     7    1
    22    32    33    1
    23    39    38    1
    24    35    34    2
    25    33    34    1
    26    33    36    1
    27    37    36    1
    28    37    38    1
    29    34    40   am
    30    53    54    1
    31    53    50    1
    32    55    54   ar
    33    55    57   ar
    34    54    56   ar
    35    57    59   ar
    36    95    94    2
    37    96    97    1
    38    96    93    1
    39    56    58   ar
    40    94    93    1
    41    59    58   ar
    42    59    60    1
    43    40    41    1
    44    49    50    1
    45    49    42   am
    46    50    51    1
    47    97    98   ar
    48    97    99   ar
    49    41    42    1
    50    41    44    1
    51    42    43    2
    52    93    92    1
    53    98   100   ar
    54    99   101   ar
    55   100   102   ar
    56    90    89    1
    57   101   102   ar
    58    51    52    2
    59    51    61   am
    60    44    45    1
    61    76    74   ar
    62    61    62    1
    63    30    29    1
    64    45    46    1
    65    89    91    1
    66    89    86    1
    67    87    86    1
    68    87    88    2
    69    74    75   ar
    70    74    73    1
    71    28    27    2
    72    64    63    2
    73    86    85    1
    74    83    82    1
    75    29    31    1
    76    29    26    1
    77    63    62    1
    78    27    26    1
    79    62    65    1
    80    46    48   ar
    81    46    47   ar
    82    73    72    1
    83    84    82    1
    84    67    65    1
    85    65    66    1
    86    26    25    1
    87    82    81    1
    88    72    69    1
    89    68    69    1
    90    81    78    1
    91    69    70    1
    92    78    77    1
    93    78    79    1
    94    70    71    2
    95    79    80    2
