@<TRIPOS>MOLECULE
tmp/5n3qA01.pdb
 119 111 0 0 0
SMALL
GASTEIGER

@<TRIPOS>ATOM
      1  N        -13.3760   -2.1440  -35.0310 N.3    38  LEU38      -0.1231
      2  CA       -13.6140   -2.2460  -33.5960 C.3    38  LEU38       0.1693
      3  C        -15.0030   -1.7890  -33.1890 C.2    38  LEU38       0.2592
      4  O        -15.4320   -2.1040  -32.0730 O.2    38  LEU38      -0.2718
      5  CB       -12.5910   -1.3970  -32.8270 C.3    38  LEU38       0.0284
      6  CG       -11.1080   -1.7120  -33.0310 C.3    38  LEU38       0.0019
      7  CD1      -10.2420   -0.6190  -32.4080 C.3    38  LEU38       0.0001
      8  CD2      -10.7790   -3.0720  -32.4410 C.3    38  LEU38       0.0001
      9  N        -15.6890   -1.0350  -34.0470 N.am   39  GLY39      -0.1957
     10  CA       -17.0080   -0.5220  -33.7310 C.3    39  GLY39       0.1869
     11  C        -17.5910    0.1650  -34.9420 C.2    39  GLY39       0.2309
     12  O        -16.8650    0.5990  -35.8420 O.2    39  GLY39      -0.2863
     13  N        -14.8910    2.7740  -36.1610 N.3    46  VAL46      -0.1245
     14  CA       -13.5820    2.8600  -35.5260 C.3    46  VAL46       0.1561
     15  C        -12.7960    1.6200  -35.9180 C.2    46  VAL46       0.2260
     16  O        -13.2910    0.4960  -35.7760 O.2    46  VAL46      -0.2867
     17  CB       -13.6740    2.9980  -33.9960 C.3    46  VAL46       0.0252
     18  CG1      -12.2770    3.0730  -33.3950 C.3    46  VAL46       0.0019
     19  CG2      -14.4800    4.2340  -33.6160 C.3    46  VAL46       0.0019
     20  N         -6.4220    3.6200  -32.6720 N.3    59  ALA59      -0.1245
     21  CA        -7.8300    3.4740  -33.0210 C.3    59  ALA59       0.1562
     22  C         -8.2180    4.6690  -33.8820 C.2    59  ALA59       0.2260
     23  O         -8.1880    5.8050  -33.4130 O.2    59  ALA59      -0.2867
     24  CB        -8.6920    3.3890  -31.7640 C.3    59  ALA59       0.0290
     25  N        -10.9810    6.6570  -35.9190 N.3    61  LYS61      -0.1245
     26  CA       -12.3890    6.9260  -36.1550 C.3    61  LYS61       0.1561
     27  C        -12.5250    7.5480  -37.5390 C.2    61  LYS61       0.2260
     28  O        -11.8800    8.5660  -37.8350 O.2    61  LYS61      -0.2867
     29  CB       -12.8930    7.8740  -35.0700 C.3    61  LYS61       0.0271
     30  CG       -14.3740    8.1530  -35.1050 C.3    61  LYS61       0.0035
     31  CD       -14.8110    8.9120  -33.8550 C.3    61  LYS61       0.0206
     32  CE       -16.2950    9.2180  -33.8800 C.3    61  LYS61       0.1093
     33  NZ       -16.8220    9.6480  -32.5490 N.3    61  LYS61      -0.1314
     34  N         -9.0570    9.8310  -23.5860 N.3    93  VAL93      -0.1245
     35  CA        -8.3060    9.2590  -24.7090 C.3    93  VAL93       0.1561
     36  C         -7.6560   10.4020  -25.4860 C.2    93  VAL93       0.2260
     37  O         -8.2860   11.4220  -25.7700 O.2    93  VAL93      -0.2867
     38  CB        -9.2180    8.3790  -25.6020 C.3    93  VAL93       0.0252
     39  CG1       -8.4930    7.9030  -26.8510 C.3    93  VAL93       0.0019
     40  CG2       -9.7680    7.0860  -24.8980 C.3    93  VAL93       0.0019
     41  N         -6.7700    8.0340  -32.5860 N.3   109  MET109     -0.1230
     42  CA        -6.7080    8.0190  -31.1280 C.3   109  MET109      0.1702
     43  C         -5.6990    6.9890  -30.6360 C.2   109  MET109      0.2592
     44  O         -5.4750    5.9670  -31.2760 O.2   109  MET109     -0.2718
     45  CB        -8.0610    7.5460  -30.5610 C.3   109  MET109      0.0401
     46  CG        -9.2570    8.4410  -30.7670 C.3   109  MET109      0.0596
     47  SD       -10.7920    7.5910  -30.2580 S.3   109  MET109     -0.1393
     48  CE       -11.1090    6.5390  -31.6910 C.3   109  MET109      0.0692
     49  N         -5.1840    7.1970  -29.4260 N.am  110  GLU110     -0.1966
     50  CA        -4.5240    6.1060  -28.7210 C.3   110  GLU110      0.1733
     51  C         -5.4890    4.9190  -28.6110 C.2   110  GLU110      0.2616
     52  O         -6.6760    5.0880  -28.3130 O.2   110  GLU110     -0.2715
     53  CB        -4.1100    6.5470  -27.3080 C.3   110  GLU110      0.0429
     54  CG        -3.4570    5.4100  -26.5090 C.3   110  GLU110      0.1163
     55  CD        -2.8260    5.7830  -25.1720 C.2   110  GLU110      0.3649
     56  OE1       -2.4190    4.8430  -24.4560 O.co2 110  GLU110     -0.2457
     57  OE2       -2.7240    6.9670  -24.8250 O.co2 110  GLU110     -0.2457
     58  N         -4.9760    3.7090  -28.8620 N.am  111  TYR111     -0.1960
     59  CA        -5.7620    2.4840  -28.7620 C.3   111  TYR111      0.1771
     60  C         -5.7250    1.9600  -27.3310 C.2   111  TYR111      0.2619
     61  O         -4.6500    1.8530  -26.7270 O.2   111  TYR111     -0.2715
     62  CB        -5.2150    1.4350  -29.7430 C.3   111  TYR111      0.0574
     63  CG        -5.8810    0.0720  -29.6480 C.ar  111  TYR111     -0.0198
     64  CD1       -7.2480   -0.0450  -29.6910 C.ar  111  TYR111     -0.0009
     65  CD2       -5.1390   -1.0900  -29.5140 C.ar  111  TYR111     -0.0009
     66  CE1       -7.8730   -1.2660  -29.6040 C.ar  111  TYR111      0.0417
     67  CE2       -5.7640   -2.3300  -29.4150 C.ar  111  TYR111      0.0417
     68  CZ        -7.1330   -2.4020  -29.4670 C.ar  111  TYR111      0.1957
     69  OH        -7.7780   -3.6190  -29.3880 O.3   111  TYR111     -0.2866
     70  N         -6.8960    1.6400  -26.7930 N.am  112  VAL112     -0.1977
     71  CA        -7.0390    1.1270  -25.4310 C.3   112  VAL112      0.1596
     72  C         -7.5030   -0.3230  -25.5190 C.2   112  VAL112      0.2287
     73  O         -8.7040   -0.5610  -25.6670 O.2   112  VAL112     -0.2864
     74  CB        -8.0190    1.9960  -24.6200 C.3   112  VAL112      0.0276
     75  CG1       -8.0310    1.5650  -23.1540 C.3   112  VAL112      0.0022
     76  CG2       -7.6360    3.4840  -24.7450 C.3   112  VAL112      0.0022
     77  N        -14.3930   -1.7740  -23.6090 N.3   116  GLU116     -0.1245
     78  CA       -15.3960   -0.9300  -22.9970 C.3   116  GLU116      0.1567
     79  C        -15.7670   -1.4060  -21.6120 C.2   116  GLU116      0.2260
     80  O        -15.9350   -2.6040  -21.3680 O.2   116  GLU116     -0.2867
     81  CB       -16.7000   -1.0080  -23.8050 C.3   116  GLU116      0.0388
     82  CG       -16.6580   -0.4700  -25.2030 C.3   116  GLU116      0.1160
     83  CD       -17.9990   -0.6220  -25.9460 C.2   116  GLU116      0.3649
     84  OE1      -19.0080   -1.0920  -25.3590 O.co2 116  GLU116     -0.2457
     85  OE2      -18.0350   -0.2620  -27.1310 O.co2 116  GLU116     -0.2457
     86  N        -13.3950    3.3490  -21.7430 N.3   161  LEU161     -0.1245
     87  CA       -12.5100    2.2230  -22.0200 C.3   161  LEU161      0.1561
     88  C        -11.6100    2.0030  -20.8180 C.2   161  LEU161      0.2260
     89  O        -11.3200    2.9370  -20.0670 O.2   161  LEU161     -0.2867
     90  CB       -11.6660    2.5170  -23.2660 C.3   161  LEU161      0.0270
     91  CG       -12.4450    2.9860  -24.4960 C.3   161  LEU161      0.0019
     92  CD1      -11.5000    3.2780  -25.6460 C.3   161  LEU161      0.0001
     93  CD2      -13.5320    1.9840  -24.8590 C.3   161  LEU161      0.0001
     94  N        -13.8500    8.1030  -24.1520 N.3   171  THR171     -0.1203
     95  CA       -13.7920    8.2060  -25.5820 C.3   171  THR171      0.1994
     96  C        -15.1450    8.6920  -26.1110 C.2   171  THR171      0.2617
     97  O        -16.1800    8.6260  -25.4380 O.2   171  THR171     -0.2717
     98  CB       -13.3730    6.8590  -26.2020 C.3   171  THR171      0.1784
     99  OG1      -13.0740    7.0260  -27.5920 O.3   171  THR171     -0.2211
    100  CG2      -14.4810    5.8490  -26.0710 C.3   171  THR171      0.0376
    101  N        -15.0990    9.1880  -27.3330 N.am  172  ASP172     -0.1973
    102  CA       -16.2320    9.6530  -28.1190 C.3   172  ASP172      0.1709
    103  C        -16.7000   11.0020  -27.6130 C.2   172  ASP172      0.2293
    104  O        -17.5070   11.0930  -26.6780 O.2   172  ASP172     -0.2864
    105  CB       -17.3730    8.6340  -28.1950 C.3   172  ASP172      0.1436
    106  CG       -18.3790    8.9800  -29.3000 C.2   172  ASP172      0.3671
    107  OD1      -19.1670    8.0960  -29.7320 O.co2 172  ASP172     -0.2456
    108  OD2      -18.3770   10.1440  -29.7470 O.co2 172  ASP172     -0.2456
    109  N        -12.8110   -6.4870  -27.8790 N.3   314  PHE314     -0.1241
    110  CA       -13.7750   -5.8560  -28.7640 C.3   314  PHE314      0.1605
    111  C        -14.4540   -6.9520  -29.5670 C.2   314  PHE314      0.2264
    112  O        -13.9540   -8.0690  -29.6640 O.2   314  PHE314     -0.2867
    113  CB       -13.0900   -4.8370  -29.6950 C.3   314  PHE314      0.0534
    114  CG       -12.5080   -3.6680  -28.9640 C.ar  314  PHE314     -0.0203
    115  CD1      -13.2660   -2.5370  -28.7220 C.ar  314  PHE314     -0.0042
    116  CD2      -11.2060   -3.7130  -28.4780 C.ar  314  PHE314     -0.0042
    117  CE1      -12.7280   -1.4700  -28.0260 C.ar  314  PHE314     -0.0003
    118  CE2      -10.6740   -2.6390  -27.7770 C.ar  314  PHE314     -0.0003
    119  CZ       -11.4330   -1.5330  -27.5570 C.ar  314  PHE314     -0.0000
@<TRIPOS>BOND
     1    28    27    2
     2    27    26    1
     3    13    14    1
     4    26    25    1
     5    26    29    1
     6    15    16    2
     7    15    14    1
     8    12    11    2
     9    14    17    1
    10    30    29    1
    11    30    31    1
    12     1     2    1
    13    11    10    1
    14     9    10    1
    15     9     3   am
    16    17    19    1
    17    17    18    1
    18    22    23    2
    19    22    21    1
    20    32    31    1
    21    32    33    1
    22     2     3    1
    23     2     5    1
    24     3     4    2
    25     6     5    1
    26     6     8    1
    27     6     7    1
    28    21    20    1
    29    21    24    1
    30    41    42    1
    31    48    47    1
    32    44    43    2
    33    42    43    1
    34    42    45    1
    35    46    45    1
    36    46    47    1
    37    43    49   am
    38   108   106   ar
    39    62    63    1
    40    62    59    1
    41   107   106   ar
    42   113   114    1
    43   113   110    1
    44    64    63   ar
    45    64    66   ar
    46   112   111    2
    47    63    65   ar
    48    66    68   ar
    49   111   110    1
    50    65    67   ar
    51    68    67   ar
    52    68    69    1
    53    49    50    1
    54   106   105    1
    55   114   115   ar
    56   114   116   ar
    57    58    59    1
    58    58    51   am
    59   110   109    1
    60    59    60    1
    61   115   117   ar
    62    50    51    1
    63    50    53    1
    64    51    52    2
    65   116   118   ar
    66   105   102    1
    67   102   103    1
    68   102   101    1
    69   117   119   ar
    70   118   119   ar
    71   103   104    2
    72    99    98    1
    73   101    96   am
    74    60    70   am
    75    60    61    2
    76    53    54    1
    77    85    83   ar
    78    39    38    1
    79    70    71    1
    80    54    55    1
    81    98   100    1
    82    98    95    1
    83    96    95    1
    84    96    97    2
    85    83    84   ar
    86    83    82    1
    87    37    36    2
    88    73    72    2
    89    92    91    1
    90    38    40    1
    91    38    35    1
    92    95    94    1
    93    72    71    1
    94    36    35    1
    95    71    74    1
    96    82    81    1
    97    55    57   ar
    98    55    56   ar
    99    93    91    1
   100    76    74    1
   101    35    34    1
   102    74    75    1
   103    91    90    1
   104    81    78    1
   105    77    78    1
   106    90    87    1
   107    78    79    1
   108    87    86    1
   109    87    88    1
   110    79    80    2
   111    88    89    2
