@<TRIPOS>MOLECULE
tmp/5n3qA02.pdb
 101 94 0 0 0
SMALL
GASTEIGER

@<TRIPOS>ATOM
      1  N         -3.9320    8.8350  -44.7160 N.3    29  LEU29      -0.1231
      2  CA        -4.4550    7.4770  -44.5770 C.3    29  LEU29       0.1693
      3  C         -3.4110    6.4120  -44.9040 C.2    29  LEU29       0.2592
      4  O         -3.3310    5.3870  -44.2150 O.2    29  LEU29      -0.2718
      5  CB        -5.6970    7.3060  -45.4420 C.3    29  LEU29       0.0284
      6  CG        -6.4310    5.9780  -45.2790 C.3    29  LEU29       0.0019
      7  CD1       -6.8890    5.7360  -43.8500 C.3    29  LEU29       0.0001
      8  CD2       -7.6070    5.9310  -46.2370 C.3    29  LEU29       0.0001
      9  N         -2.6120    6.6280  -45.9520 N.am   30  ASP30      -0.1974
     10  CA        -1.6600    5.6280  -46.4040 C.3    30  ASP30       0.1709
     11  C         -0.4080    5.5620  -45.5320 C.2    30  ASP30       0.2293
     12  O          0.4920    4.7800  -45.8350 O.2    30  ASP30      -0.2864
     13  CB        -1.3720    5.7630  -47.9080 C.3    30  ASP30       0.1436
     14  CG        -0.5750    6.9780  -48.2670 C.2    30  ASP30       0.3671
     15  OD1        0.1280    7.5490  -47.4180 O.co2  30  ASP30      -0.2456
     16  OD2       -0.6200    7.3320  -49.4640 O.co2  30  ASP30      -0.2456
     17  N         -0.9030    4.2870  -42.6730 N.3    32  PHE32      -0.1227
     18  CA        -1.4170    3.2530  -41.7830 C.3    32  PHE32       0.1736
     19  C         -1.8650    2.0210  -42.5650 C.2    32  PHE32       0.2595
     20  O         -2.3120    2.1120  -43.7090 O.2    32  PHE32      -0.2718
     21  CB        -2.6540    3.7710  -41.0080 C.3    32  PHE32       0.0547
     22  CG        -2.3900    5.0120  -40.2010 C.ar   32  PHE32      -0.0202
     23  CD1       -2.6020    6.2660  -40.7580 C.ar   32  PHE32      -0.0042
     24  CD2       -1.9360    4.9360  -38.8930 C.ar   32  PHE32      -0.0042
     25  CE1       -2.3540    7.4080  -40.0290 C.ar   32  PHE32      -0.0003
     26  CE2       -1.7070    6.0860  -38.1570 C.ar   32  PHE32      -0.0003
     27  CZ        -1.9250    7.3100  -38.7250 C.ar   32  PHE32      -0.0000
     28  N         -1.7240    0.8590  -41.9240 N.am   33  ASP33      -0.1960
     29  CA        -2.3550   -0.3810  -42.3450 C.3    33  ASP33       0.1840
     30  C         -3.6450   -0.5670  -41.5520 C.2    33  ASP33       0.2621
     31  O         -3.6950   -0.3030  -40.3490 O.2    33  ASP33      -0.2715
     32  CB        -1.4670   -1.5890  -42.0280 C.3    33  ASP33       0.1450
     33  CG        -0.2970   -1.7620  -42.9780 C.2    33  ASP33       0.3671
     34  OD1       -0.4370   -1.4950  -44.1790 O.co2  33  ASP33      -0.2456
     35  OD2        0.7600   -2.2470  -42.5050 O.co2  33  ASP33      -0.2456
     36  N         -4.6770   -1.0380  -42.2220 N.am   34  ARG34      -0.1977
     37  CA        -5.9500   -1.3780  -41.6190 C.3    34  ARG34       0.1597
     38  C         -5.8690   -2.7770  -41.0090 C.2    34  ARG34       0.2287
     39  O         -5.4790   -3.7260  -41.6910 O.2    34  ARG34      -0.2864
     40  CB        -7.0040   -1.3520  -42.7300 C.3    34  ARG34       0.0334
     41  CG        -8.3680   -1.7910  -42.2800 C.3    34  ARG34       0.0492
     42  CD        -9.3260   -1.8520  -43.4280 C.3    34  ARG34       0.2205
     43  NE       -10.5310   -2.5580  -43.0310 N.pl3  34  ARG34      -0.0865
     44  CZ       -11.7230   -2.3540  -43.5610 C.cat  34  ARG34       0.5346
     45  NH1      -12.7630   -3.0430  -43.1310 N.pl3  34  ARG34       0.1354
     46  NH2      -11.8830   -1.4470  -44.5190 N.pl3  34  ARG34       0.1354
     47  N        -11.5670    1.8270  -36.4000 N.3    47  MET47      -0.1245
     48  CA       -10.7100    0.7810  -36.9480 C.3    47  MET47       0.1570
     49  C         -9.4130    0.7150  -36.1630 C.2    47  MET47       0.2261
     50  O         -8.7570    1.7410  -35.9700 O.2    47  MET47      -0.2867
     51  CB       -10.2940    1.1680  -38.3670 C.3    47  MET47       0.0387
     52  CG       -11.4300    1.5800  -39.2700 C.3    47  MET47       0.0595
     53  SD       -12.5860    0.2410  -39.5120 S.3    47  MET47      -0.1393
     54  CE       -11.4640   -0.9660  -40.1790 C.3    47  MET47       0.0692
     55  N         -5.7050    0.3270  -36.4650 N.3    49  VAL49      -0.1245
     56  CA        -4.7210    0.5390  -37.5170 C.3    49  VAL49       0.1561
     57  C         -3.3240    0.4300  -36.9170 C.2    49  VAL49       0.2260
     58  O         -3.1380    0.5450  -35.7050 O.2    49  VAL49      -0.2867
     59  CB        -4.9030    1.9150  -38.2100 C.3    49  VAL49       0.0252
     60  CG1       -6.3050    2.0150  -38.8290 C.3    49  VAL49       0.0019
     61  CG2       -4.6760    3.0850  -37.2330 C.3    49  VAL49       0.0019
     62  N         -8.5870    4.4140  -35.1250 N.3    60  MET60      -0.1245
     63  CA        -8.8950    5.4490  -36.1010 C.3    60  MET60       0.1570
     64  C        -10.4000    5.5250  -36.2950 C.2    60  MET60       0.2261
     65  O        -11.0170    4.5850  -36.7980 O.2    60  MET60      -0.2867
     66  CB        -8.2200    5.0960  -37.4250 C.3    60  MET60       0.0387
     67  CG        -8.5430    6.0580  -38.5580 C.3    60  MET60       0.0595
     68  SD        -7.8450    5.5700  -40.1630 S.3    60  MET60      -0.1393
     69  CE        -6.1520    6.0750  -39.9550 C.3    60  MET60       0.0692
     70  N        -13.3390    6.9260  -38.3890 N.3    62  ILE62      -0.1245
     71  CA       -13.5390    7.3620  -39.7660 C.3    62  ILE62       0.1561
     72  C        -14.9940    7.7810  -39.8860 C.2    62  ILE62       0.2260
     73  O        -15.8920    6.9670  -39.6520 O.2    62  ILE62      -0.2867
     74  CB       -13.2440    6.2190  -40.7490 C.3    62  ILE62       0.0252
     75  CG1      -11.8440    5.6460  -40.5220 C.3    62  ILE62       0.0019
     76  CG2      -13.4080    6.7290  -42.1700 C.3    62  ILE62       0.0019
     77  CD1      -11.5210    4.4930  -41.4370 C.3    62  ILE62       0.0001
     78  N        -15.6500   -2.2300  -46.9500 N.3   321  GLU321     -0.1231
     79  CA       -14.7410   -1.3700  -47.6750 C.3   321  GLU321      0.1699
     80  C        -14.8650    0.0650  -47.1720 C.2   321  GLU321      0.2592
     81  O        -15.9490    0.5100  -46.7760 O.2   321  GLU321     -0.2718
     82  CB       -15.1250   -1.4560  -49.1530 C.3   321  GLU321      0.0402
     83  CG       -14.1140   -0.9640  -50.1290 C.3   321  GLU321      0.1161
     84  CD       -12.7820   -1.6450  -49.9870 C.2   321  GLU321      0.3649
     85  OE1      -12.0240   -1.2610  -49.0760 O.co2 321  GLU321     -0.2457
     86  OE2      -12.5200   -2.5650  -50.7670 O.co2 321  GLU321     -0.2457
     87  N        -13.7370    0.7740  -47.1380 N.am  322  ILE322     -0.1980
     88  CA       -13.7070    2.2140  -46.9050 C.3   322  ILE322      0.1595
     89  C        -13.0770    2.8560  -48.1290 C.2   322  ILE322      0.2287
     90  O        -11.8640    2.7640  -48.3370 O.2   322  ILE322     -0.2864
     91  CB       -12.9030    2.5690  -45.6590 C.3   322  ILE322      0.0276
     92  CG1      -12.2780    3.9740  -45.9260 C.3   322  ILE322      0.0022
     93  CG2      -11.8460    1.7040  -44.8810 C.3   322  ILE322      0.0022
     94  CD1      -11.5300    4.3940  -44.6310 C.3   322  ILE322      0.0001
     95  N        -12.3960    6.1980  -50.8450 N.3   324  VAL324     -0.1245
     96  CA       -12.1680    7.6210  -50.9090 C.3   324  VAL324      0.1561
     97  C        -12.5030    8.0850  -52.3240 C.2   324  VAL324      0.2260
     98  O        -11.8880    7.6450  -53.3070 O.2   324  VAL324     -0.2867
     99  CB       -10.7270    7.9520  -50.5010 C.3   324  VAL324      0.0252
    100  CG1      -10.4530    9.4500  -50.6230 C.3   324  VAL324      0.0019
    101  CG2      -10.4770    7.4350  -49.0770 C.3   324  VAL324      0.0019
@<TRIPOS>BOND
     1    98    97    2
     2    97    96    1
     3    96    95    1
     4    96    99    1
     5    86    84   ar
     6   100    99    1
     7    99   101    1
     8    83    84    1
     9    83    82    1
    10    84    85   ar
    11    16    14   ar
    12    82    79    1
    13    90    89    2
    14    14    13    1
    15    14    15   ar
    16    89    88    1
    17    13    10    1
    18    79    80    1
    19    79    78    1
    20    80    87   am
    21    80    81    2
    22    87    88    1
    23    88    91    1
    24    10     9    1
    25    10    11    1
    26     8     6    1
    27     9     3   am
    28    92    91    1
    29    92    94    1
    30    12    11    2
    31    91    93    1
    32     5     6    1
    33     5     2    1
    34     6     7    1
    35     3     2    1
    36     3     4    2
    37     1     2    1
    38    46    44    1
    39    34    33   ar
    40    20    19    2
    41    44    45    1
    42    44    43    2
    43    42    43    1
    44    42    41    1
    45    33    35   ar
    46    33    32    1
    47    40    41    1
    48    40    37    1
    49    17    18    1
    50    19    28   am
    51    19    18    1
    52    29    32    1
    53    29    28    1
    54    29    30    1
    55    36    37    1
    56    36    30   am
    57    76    74    1
    58    18    21    1
    59    39    38    2
    60    37    38    1
    61    30    31    2
    62    77    75    1
    63    21    22    1
    64    23    22   ar
    65    23    25   ar
    66    74    75    1
    67    74    71    1
    68    22    24   ar
    69    54    53    1
    70    68    69    1
    71    68    67    1
    72    25    27   ar
    73    72    71    1
    74    72    73    2
    75    71    70    1
    76    53    52    1
    77    52    51    1
    78    24    26   ar
    79    60    59    1
    80    27    26   ar
    81    67    66    1
    82    51    48    1
    83    59    56    1
    84    59    61    1
    85    56    57    1
    86    56    55    1
    87    66    63    1
    88    48    47    1
    89    48    49    1
    90    57    58    2
    91    65    64    2
    92    64    63    1
    93    49    50    2
    94    63    62    1
