@<TRIPOS>MOLECULE
tmp/5n3rA00.pdb
 104 98 0 0 0
SMALL
GASTEIGER

@<TRIPOS>ATOM
      1  N         22.1070    9.0950    4.1820 N.3    29  LEU29      -0.1245
      2  CA        21.5260    7.7590    4.2390 C.3    29  LEU29       0.1561
      3  C         22.5200    6.6740    3.8570 C.2    29  LEU29       0.2260
      4  O         22.5400    5.6090    4.4830 O.2    29  LEU29      -0.2867
      5  CB        20.2870    7.6810    3.3550 C.3    29  LEU29       0.0270
      6  CG        19.4380    6.4220    3.5120 C.3    29  LEU29       0.0019
      7  CD1       19.0220    6.2210    4.9660 C.3    29  LEU29       0.0001
      8  CD2       18.2320    6.5090    2.5730 C.3    29  LEU29       0.0001
      9  N         24.7840    4.3190    6.1160 N.3    32  PHE32      -0.1227
     10  CA        24.1620    3.3410    6.9960 C.3    32  PHE32       0.1736
     11  C         23.6460    2.1460    6.2100 C.2    32  PHE32       0.2595
     12  O         23.1750    2.2930    5.0760 O.2    32  PHE32      -0.2718
     13  CB        22.9670    3.9680    7.7260 C.3    32  PHE32       0.0547
     14  CG        23.3210    5.1670    8.5660 C.ar   32  PHE32      -0.0202
     15  CD1       23.2370    6.4390    8.0350 C.ar   32  PHE32      -0.0042
     16  CD2       23.7290    5.0300    9.8940 C.ar   32  PHE32      -0.0042
     17  CE1       23.5470    7.5490    8.7990 C.ar   32  PHE32      -0.0003
     18  CE2       24.0490    6.1510   10.6590 C.ar   32  PHE32      -0.0003
     19  CZ        23.9540    7.4090   10.1050 C.ar   32  PHE32      -0.0000
     20  N         23.7440    0.9660    6.8360 N.am   33  ASP33      -0.1960
     21  CA        23.0690   -0.2520    6.3990 C.3    33  ASP33       0.1840
     22  C         21.7850   -0.4140    7.2010 C.2    33  ASP33       0.2621
     23  O         21.7670   -0.1380    8.4000 O.2    33  ASP33      -0.2715
     24  CB        23.9300   -1.4960    6.6780 C.3    33  ASP33       0.1450
     25  CG        25.1150   -1.6610    5.7310 C.2    33  ASP33       0.3671
     26  OD1       24.9880   -1.3820    4.5310 O.co2  33  ASP33      -0.2456
     27  OD2       26.1850   -2.0950    6.2150 O.co2  33  ASP33      -0.2456
     28  N         20.7220   -0.8900    6.5590 N.am   34  ARG34      -0.1977
     29  CA        19.5050   -1.2440    7.2760 C.3    34  ARG34       0.1597
     30  C         19.6180   -2.6650    7.8060 C.2    34  ARG34       0.2287
     31  O         20.0700   -3.5700    7.0970 O.2    34  ARG34      -0.2864
     32  CB        18.2370   -1.0840    6.4270 C.3    34  ARG34       0.0334
     33  CG        18.1480   -1.9160    5.2110 C.3    34  ARG34       0.0492
     34  CD        16.8200   -1.6540    4.4980 C.3    34  ARG34       0.2205
     35  NE        15.6530   -2.2280    5.1870 N.pl3  34  ARG34      -0.0865
     36  CZ        14.3830   -2.0020    4.8380 C.cat  34  ARG34       0.5346
     37  NH1       13.3770   -2.5790    5.4920 N.pl3  34  ARG34       0.1354
     38  NH2       14.1060   -1.1940    3.8390 N.pl3  34  ARG34       0.1354
     39  N         14.0200    2.1040   12.3210 N.3    47  MET47      -0.1245
     40  CA        14.8890    1.0440   11.8390 C.3    47  MET47       0.1570
     41  C         16.0960    0.9120   12.7510 C.2    47  MET47       0.2261
     42  O         16.6610    1.9160   13.1910 O.2    47  MET47      -0.2867
     43  CB        15.4430    1.3970   10.4530 C.3    47  MET47       0.0387
     44  CG        14.4130    1.7010    9.3860 C.3    47  MET47       0.0595
     45  SD        13.3120    0.3070    9.0980 S.3    47  MET47      -0.1393
     46  CE        14.4820   -0.9200    8.4990 C.3    47  MET47       0.0692
     47  N         19.8060    0.4350   12.3280 N.3    49  VAL49      -0.1245
     48  CA        20.7780    0.6390   11.2680 C.3    49  VAL49       0.1561
     49  C         22.1770    0.4800   11.8460 C.2    49  VAL49       0.2260
     50  O         22.3840    0.5530   13.0580 O.2    49  VAL49      -0.2867
     51  CB        20.6200    2.0050   10.5690 C.3    49  VAL49       0.0252
     52  CG1       19.2350    2.1170    9.9820 C.3    49  VAL49       0.0019
     53  CG2       20.8880    3.1580   11.5130 C.3    49  VAL49       0.0019
     54  N         17.1070    4.5450   13.7050 N.3    60  MET60      -0.1245
     55  CA        16.8420    5.6130   12.7510 C.3    60  MET60       0.1570
     56  C         15.3450    5.7490   12.5570 C.2    60  MET60       0.2261
     57  O         14.6980    4.8320   12.0350 O.2    60  MET60      -0.2867
     58  CB        17.5100    5.2910   11.4210 C.3    60  MET60       0.0387
     59  CG        17.3320    6.3530   10.3580 C.3    60  MET60       0.0595
     60  SD        18.0240    5.8640    8.7550 S.3    60  MET60      -0.1393
     61  CE        19.7460    6.2530    8.9890 C.3    60  MET60       0.0692
     62  N         12.4580    7.3140   10.5000 N.3    62  ILE62      -0.1245
     63  CA        12.3120    7.7410    9.1170 C.3    62  ILE62       0.1561
     64  C         10.8680    8.1690    8.9300 C.2    62  ILE62       0.2260
     65  O          9.9570    7.3560    9.1100 O.2    62  ILE62      -0.2867
     66  CB        12.6530    6.6030    8.1420 C.3    62  ILE62       0.0252
     67  CG1       14.0500    6.0400    8.4100 C.3    62  ILE62       0.0019
     68  CG2       12.5500    7.0960    6.7070 C.3    62  ILE62       0.0019
     69  CD1       14.4050    4.8440    7.5730 C.3    62  ILE62       0.0001
     70  N         10.3610   -1.4480    1.6950 N.3   321  GLU321     -0.1231
     71  CA        11.3590   -0.5780    1.0830 C.3   321  GLU321      0.1699
     72  C         11.3600    0.7950    1.7420 C.2   321  GLU321      0.2592
     73  O         10.3320    1.2880    2.2120 O.2   321  GLU321     -0.2718
     74  CB        11.0800   -0.3890   -0.4130 C.3   321  GLU321      0.0402
     75  CG        11.2960   -1.6150   -1.2690 C.3   321  GLU321      0.1161
     76  CD        12.7540   -1.8940   -1.5500 C.2   321  GLU321      0.3649
     77  OE1       13.6130   -1.3070   -0.8740 O.co2 321  GLU321     -0.2457
     78  OE2       13.0460   -2.6850   -2.4750 O.co2 321  GLU321     -0.2457
     79  N         12.5350    1.4060    1.7690 N.am  322  ILE322     -0.1966
     80  CA        12.7130    2.8140    2.1100 C.3   322  ILE322      0.1727
     81  C         13.1800    3.4780    0.8250 C.2   322  ILE322      0.2616
     82  O         14.3460    3.3430    0.4410 O.2   322  ILE322     -0.2715
     83  CB        13.7240    3.0150    3.2450 C.3   322  ILE322      0.0290
     84  CG1       13.2090    2.3770    4.5350 C.3   322  ILE322      0.0022
     85  CG2       13.9870    4.5030    3.4750 C.3   322  ILE322      0.0023
     86  CD1       14.2850    1.9900    5.4920 C.3   322  ILE322      0.0001
     87  N         12.2780    4.1680    0.1430 N.am  323  ARG323     -0.1963
     88  CA        12.5980    4.7180   -1.1680 C.3   323  ARG323      0.1729
     89  C         12.8360    6.2210   -1.1040 C.2   323  ARG323      0.2616
     90  O         12.3210    6.9230   -0.2310 O.2   323  ARG323     -0.2715
     91  CB        11.5230    4.3990   -2.2150 C.3   323  ARG323      0.0348
     92  CG        10.2890    5.2690   -2.1840 C.3   323  ARG323      0.0492
     93  CD         9.3650    4.9380   -3.3600 C.3   323  ARG323      0.2205
     94  NE         9.9480    5.2510   -4.6700 N.pl3 323  ARG323     -0.0865
     95  CZ         9.8730    6.4420   -5.2640 C.cat 323  ARG323      0.5346
     96  NH1        9.2470    7.4510   -4.6710 N.pl3 323  ARG323      0.1354
     97  NH2       10.4270    6.6270   -6.4560 N.pl3 323  ARG323      0.1354
     98  N         13.6330    6.7020   -2.0500 N.am  324  VAL324     -0.1977
     99  CA        13.9400    8.1150   -2.1570 C.3   324  VAL324      0.1596
    100  C         13.6120    8.5570   -3.5780 C.2   324  VAL324      0.2287
    101  O         14.2190    8.0930   -4.5440 O.2   324  VAL324     -0.2864
    102  CB        15.4040    8.3920   -1.7990 C.3   324  VAL324      0.0276
    103  CG1       15.7090    9.8740   -1.8800 C.3   324  VAL324      0.0022
    104  CG2       15.7300    7.8420   -0.4120 C.3   324  VAL324      0.0022
@<TRIPOS>BOND
     1    97    95    1
     2    95    96    1
     3    95    94    2
     4    94    93    1
     5   101   100    2
     6   100    99    1
     7    93    92    1
     8    78    76   ar
     9    91    92    1
    10    91    88    1
    11    99    98    1
    12    99   102    1
    13    98    89   am
    14   103   102    1
    15   102   104    1
    16    76    75    1
    17    76    77   ar
    18    75    74    1
    19    88    89    1
    20    88    87    1
    21    89    90    2
    22    74    71    1
    23    87    81   am
    24    82    81    2
    25    81    80    1
    26    71    70    1
    27    71    72    1
    28    72    79   am
    29    72    73    2
    30    79    80    1
    31    80    83    1
    32     8     6    1
    33    83    85    1
    34    83    84    1
    35     5     6    1
    36     5     2    1
    37     6     7    1
    38    38    36    1
    39     3     2    1
    40     3     4    2
    41     1     2    1
    42    34    35    1
    43    34    33    1
    44    26    25   ar
    45    84    86    1
    46    36    35    2
    47    36    37    1
    48    12    11    2
    49    33    32    1
    50    25    27   ar
    51    25    24    1
    52     9    10    1
    53    11    20   am
    54    11    10    1
    55    21    24    1
    56    21    20    1
    57    21    22    1
    58    32    29    1
    59    28    22   am
    60    28    29    1
    61    68    66    1
    62    10    13    1
    63    31    30    2
    64    22    23    2
    65    29    30    1
    66    69    67    1
    67    13    14    1
    68    15    14   ar
    69    15    17   ar
    70    66    67    1
    71    66    63    1
    72    46    45    1
    73    14    16   ar
    74    60    61    1
    75    60    59    1
    76    17    19   ar
    77    64    65    2
    78    64    63    1
    79    45    44    1
    80    63    62    1
    81    44    43    1
    82    16    18   ar
    83    52    51    1
    84    19    18   ar
    85    59    58    1
    86    43    40    1
    87    51    48    1
    88    51    53    1
    89    48    49    1
    90    48    47    1
    91    58    55    1
    92    40    39    1
    93    40    41    1
    94    49    50    2
    95    57    56    2
    96    56    55    1
    97    55    54    1
    98    41    42    2
