@<TRIPOS>MOLECULE
tmp/5n3sA00.pdb
 102 95 0 0 0
SMALL
GASTEIGER

@<TRIPOS>ATOM
      1  N        -13.3510   -2.1350  -34.7660 N.3    39  LEU39      -0.1231
      2  CA       -13.6070   -2.2420  -33.3370 C.3    39  LEU39       0.1693
      3  C        -15.0050   -1.7980  -32.9380 C.2    39  LEU39       0.2592
      4  O        -15.4610   -2.1490  -31.8430 O.2    39  LEU39      -0.2718
      5  CB       -12.6030   -1.3720  -32.5680 C.3    39  LEU39       0.0284
      6  CG       -11.1160   -1.6540  -32.8080 C.3    39  LEU39       0.0019
      7  CD1      -10.2560   -0.6170  -32.1130 C.3    39  LEU39       0.0001
      8  CD2      -10.7540   -3.0340  -32.3670 C.3    39  LEU39       0.0001
      9  N        -15.6690   -1.0040  -33.7660 N.am   40  GLY40      -0.1957
     10  CA       -17.0290   -0.5610  -33.4800 C.3    40  GLY40       0.1869
     11  C        -17.5790    0.1660  -34.6880 C.2    40  GLY40       0.2309
     12  O        -16.8230    0.6590  -35.5220 O.2    40  GLY40      -0.2863
     13  N        -14.9060    2.8140  -35.8380 N.3    47  VAL47      -0.1245
     14  CA       -13.5900    2.9090  -35.2300 C.3    47  VAL47       0.1561
     15  C        -12.8060    1.6650  -35.6250 C.2    47  VAL47       0.2260
     16  O        -13.2960    0.5390  -35.4580 O.2    47  VAL47      -0.2867
     17  CB       -13.6400    3.0860  -33.6950 C.3    47  VAL47       0.0252
     18  CG1      -12.2340    3.1560  -33.1580 C.3    47  VAL47       0.0019
     19  CG2      -14.3920    4.3510  -33.3190 C.3    47  VAL47       0.0019
     20  N         -6.3210    3.7330  -32.5780 N.3    60  ALA60      -0.1245
     21  CA        -7.7210    3.6030  -32.9300 C.3    60  ALA60       0.1562
     22  C         -8.0960    4.7640  -33.8300 C.2    60  ALA60       0.2260
     23  O         -7.9960    5.9060  -33.4250 O.2    60  ALA60      -0.2867
     24  CB        -8.5840    3.6020  -31.6800 C.3    60  ALA60       0.0290
     25  N         -9.0700   10.0740  -23.4910 N.3    94  VAL94      -0.1245
     26  CA        -8.2990    9.4980  -24.5760 C.3    94  VAL94       0.1561
     27  C         -7.5530   10.6040  -25.3090 C.2    94  VAL94       0.2260
     28  O         -8.0130   11.7500  -25.4140 O.2    94  VAL94      -0.2867
     29  CB        -9.2100    8.7000  -25.5220 C.3    94  VAL94       0.0252
     30  CG1      -10.0500    9.6310  -26.3850 C.3    94  VAL94       0.0019
     31  CG2       -8.3780    7.7370  -26.3630 C.3    94  VAL94       0.0019
     32  N         -6.5550    8.1360  -32.5070 N.3   110  MET110     -0.1230
     33  CA        -6.4420    8.1990  -31.0610 C.3   110  MET110      0.1702
     34  C         -5.5440    7.0920  -30.5400 C.2   110  MET110      0.2592
     35  O         -5.3470    6.0730  -31.1920 O.2   110  MET110     -0.2718
     36  CB        -7.8170    7.9320  -30.4330 C.3   110  MET110      0.0401
     37  CG        -8.7930    9.0070  -30.6420 C.3   110  MET110      0.0596
     38  SD       -10.4100    8.3850  -30.1910 S.3   110  MET110     -0.1393
     39  CE       -10.8540    7.5490  -31.7000 C.3   110  MET110      0.0692
     40  N         -5.0420    7.2710  -29.3300 N.am  111  GLU111     -0.1966
     41  CA        -4.3920    6.1670  -28.6440 C.3   111  GLU111      0.1733
     42  C         -5.3460    4.9710  -28.5970 C.2   111  GLU111      0.2616
     43  O         -6.5450    5.1250  -28.3490 O.2   111  GLU111     -0.2715
     44  CB        -4.0340    6.5720  -27.1980 C.3   111  GLU111      0.0429
     45  CG        -3.3680    5.4540  -26.4060 C.3   111  GLU111      0.1163
     46  CD        -2.7340    5.8740  -25.0950 C.2   111  GLU111      0.3649
     47  OE1       -2.2480    4.9700  -24.3760 O.co2 111  GLU111     -0.2457
     48  OE2       -2.7010    7.0800  -24.7920 O.co2 111  GLU111     -0.2457
     49  N         -4.8160    3.7800  -28.8360 N.am  112  TYR112     -0.1960
     50  CA        -5.5790    2.5350  -28.7300 C.3   112  TYR112      0.1771
     51  C         -5.5470    2.0270  -27.2980 C.2   112  TYR112      0.2619
     52  O         -4.4680    1.8580  -26.7160 O.2   112  TYR112     -0.2715
     53  CB        -5.0100    1.4800  -29.6830 C.3   112  TYR112      0.0574
     54  CG        -5.6930    0.1260  -29.5830 C.ar  112  TYR112     -0.0198
     55  CD1       -7.0650    0.0200  -29.6300 C.ar  112  TYR112     -0.0009
     56  CD2       -4.9660   -1.0370  -29.4080 C.ar  112  TYR112     -0.0009
     57  CE1       -7.7100   -1.1890  -29.5140 C.ar  112  TYR112      0.0417
     58  CE2       -5.6060   -2.2770  -29.3110 C.ar  112  TYR112      0.0417
     59  CZ        -6.9840   -2.3320  -29.3660 C.ar  112  TYR112      0.1957
     60  OH        -7.6500   -3.5320  -29.2350 O.3   112  TYR112     -0.2866
     61  N         -6.7250    1.7640  -26.7410 N.am  113  VAL113     -0.1977
     62  CA        -6.8700    1.2980  -25.3620 C.3   113  VAL113      0.1596
     63  C         -7.3300   -0.1540  -25.4210 C.2   113  VAL113      0.2287
     64  O         -8.5190   -0.4120  -25.6190 O.2   113  VAL113     -0.2864
     65  CB        -7.8430    2.1870  -24.5820 C.3   113  VAL113      0.0276
     66  CG1       -7.8790    1.7850  -23.1370 C.3   113  VAL113      0.0022
     67  CG2       -7.4270    3.6400  -24.6780 C.3   113  VAL113      0.0022
     68  N        -14.2090   -1.5710  -23.6320 N.3   117  GLU117     -0.1245
     69  CA       -15.1920   -0.7170  -22.9900 C.3   117  GLU117      0.1567
     70  C        -15.6300   -1.2460  -21.6320 C.2   117  GLU117      0.2260
     71  O        -15.7970   -2.4570  -21.4340 O.2   117  GLU117     -0.2867
     72  CB       -16.4190   -0.6150  -23.8930 C.3   117  GLU117      0.0388
     73  CG       -16.1370   -0.0270  -25.2530 C.3   117  GLU117      0.1160
     74  CD       -17.3240   -0.0870  -26.1940 C.2   117  GLU117      0.3649
     75  OE1      -18.3580   -0.6930  -25.8020 O.co2 117  GLU117     -0.2457
     76  OE2      -17.2260    0.4750  -27.3260 O.co2 117  GLU117     -0.2457
     77  N        -13.2920    3.5470  -21.6850 N.3   162  LEU162     -0.1245
     78  CA       -12.3660    2.4640  -21.9910 C.3   162  LEU162      0.1561
     79  C        -11.5140    2.1960  -20.7630 C.2   162  LEU162      0.2260
     80  O        -11.2320    3.1080  -19.9810 O.2   162  LEU162     -0.2867
     81  CB       -11.4590    2.8800  -23.1480 C.3   162  LEU162      0.0270
     82  CG       -12.1980    3.3140  -24.4170 C.3   162  LEU162      0.0019
     83  CD1      -11.2160    3.8060  -25.4470 C.3   162  LEU162      0.0001
     84  CD2      -13.1260    2.2120  -24.9410 C.3   162  LEU162      0.0001
     85  N        -13.7820    8.2510  -24.0890 N.3   172  THR172     -0.1218
     86  CA       -13.7480    8.4550  -25.5070 C.3   172  THR172      0.1862
     87  C        -15.1200    8.9200  -25.9830 C.2   172  THR172      0.2287
     88  O        -16.0860    8.9590  -25.2310 O.2   172  THR172     -0.2866
     89  CB       -13.2650    7.1830  -26.2050 C.3   172  THR172      0.1770
     90  OG1      -12.9100    7.5090  -27.5510 O.3   172  THR172     -0.2211
     91  CG2      -14.3100    6.0920  -26.1860 C.3   172  THR172      0.0375
     92  N        -12.6180   -6.3830  -27.6920 N.3   315  PHE315     -0.1241
     93  CA       -13.5910   -5.7710  -28.5760 C.3   315  PHE315      0.1605
     94  C        -14.2470   -6.8890  -29.3840 C.2   315  PHE315      0.2264
     95  O        -13.7140   -7.9960  -29.4870 O.2   315  PHE315     -0.2867
     96  CB       -12.9340   -4.7320  -29.5060 C.3   315  PHE315      0.0534
     97  CG       -12.3640   -3.5460  -28.7810 C.ar  315  PHE315     -0.0203
     98  CD1      -13.1310   -2.4260  -28.5290 C.ar  315  PHE315     -0.0042
     99  CD2      -11.0590   -3.5470  -28.3300 C.ar  315  PHE315     -0.0042
    100  CE1      -12.5820   -1.3360  -27.8670 C.ar  315  PHE315     -0.0003
    101  CE2      -10.5260   -2.4690  -27.6590 C.ar  315  PHE315     -0.0003
    102  CZ       -11.2880   -1.3730  -27.4300 C.ar  315  PHE315     -0.0000
@<TRIPOS>BOND
     1    13    14    1
     2    15    16    2
     3    15    14    1
     4    12    11    2
     5    14    17    1
     6     1     2    1
     7    11    10    1
     8    22    23    2
     9    22    21    1
    10     9    10    1
    11     9     3   am
    12    17    19    1
    13    17    18    1
    14     2     3    1
    15     2     5    1
    16     3     4    2
    17    21    20    1
    18    21    24    1
    19     6     5    1
    20     6     8    1
    21     6     7    1
    22    32    33    1
    23    39    38    1
    24    35    34    2
    25    33    34    1
    26    33    36    1
    27    37    36    1
    28    37    38    1
    29    34    40   am
    30    53    54    1
    31    53    50    1
    32    55    54   ar
    33    55    57   ar
    34    54    56   ar
    35    57    59   ar
    36    96    97    1
    37    96    93    1
    38    95    94    2
    39    56    58   ar
    40    94    93    1
    41    59    58   ar
    42    59    60    1
    43    40    41    1
    44    49    50    1
    45    49    42   am
    46    97    98   ar
    47    97    99   ar
    48    50    51    1
    49    41    42    1
    50    41    44    1
    51    42    43    2
    52    93    92    1
    53    98   100   ar
    54    99   101   ar
    55   100   102   ar
    56   101   102   ar
    57    90    89    1
    58    76    74   ar
    59    51    61   am
    60    51    52    2
    61    44    45    1
    62    61    62    1
    63    45    46    1
    64    30    29    1
    65    31    29    1
    66    89    91    1
    67    89    86    1
    68    74    75   ar
    69    74    73    1
    70    87    86    1
    71    87    88    2
    72    64    63    2
    73    29    26    1
    74    86    85    1
    75    83    82    1
    76    63    62    1
    77    28    27    2
    78    62    65    1
    79    27    26    1
    80    73    72    1
    81    46    48   ar
    82    46    47   ar
    83    84    82    1
    84    67    65    1
    85    65    66    1
    86    26    25    1
    87    82    81    1
    88    72    69    1
    89    68    69    1
    90    81    78    1
    91    69    70    1
    92    78    77    1
    93    78    79    1
    94    70    71    2
    95    79    80    2
