@<TRIPOS>MOLECULE
tmp/5n3tA01.pdb
 97 94 0 0 0
SMALL
GASTEIGER

@<TRIPOS>ATOM
      1  N         22.0340  -20.4380  -18.2980 N.3   130  PRO130     -0.2102
      2  CA        23.4000  -20.2530  -17.7830 C.3   130  PRO130      0.1504
      3  C         23.7990  -18.7890  -17.6920 C.2   130  PRO130      0.2575
      4  O         24.4290  -18.3640  -16.7170 O.2   130  PRO130     -0.2718
      5  CB        24.2550  -21.0640  -18.7610 C.3   130  PRO130      0.0282
      6  CG        23.3150  -22.1400  -19.2300 C.3   130  PRO130      0.0208
      7  CD        22.0060  -21.4470  -19.3770 C.3   130  PRO130      0.0893
      8  N         23.4480  -18.0090  -18.7040 N.am  131  HIS131     -0.1976
      9  CA        23.8010  -16.5980  -18.7620 C.3   131  HIS131      0.1656
     10  C         23.0950  -15.8370  -17.6430 C.2   131  HIS131      0.2291
     11  O         23.7210  -15.0730  -16.8910 O.2   131  HIS131     -0.2864
     12  CB        23.4150  -16.1140  -20.1660 C.3   131  HIS131      0.0771
     13  CG        23.8440  -14.7350  -20.5200 C.ar  131  HIS131      0.0820
     14  ND1       23.7760  -14.2800  -21.8210 N.ar  131  HIS131     -0.2267
     15  CD2       24.3290  -13.7150  -19.7760 C.ar  131  HIS131      0.1154
     16  CE1       24.2130  -13.0310  -21.8620 C.ar  131  HIS131      0.1986
     17  NE2       24.5500  -12.6650  -20.6380 N.ar  131  HIS131     -0.2212
     18  N         21.9750  -17.1520  -14.9170 N.3   133  ARG133     -0.1231
     19  CA        22.4930  -17.6880  -13.6600 C.3   133  ARG133      0.1694
     20  C         23.8050  -17.0350  -13.2610 C.2   133  ARG133      0.2592
     21  O         24.0380  -16.7610  -12.0750 O.2   133  ARG133     -0.2718
     22  CB        22.6520  -19.2040  -13.7880 C.3   133  ARG133      0.0321
     23  CG        23.3620  -19.8600  -12.6220 C.3   133  ARG133      0.0489
     24  CD        23.0920  -21.3690  -12.5310 C.3   133  ARG133      0.2205
     25  NE        23.1960  -22.0400  -13.8160 N.pl3 133  ARG133     -0.0865
     26  CZ        22.1960  -22.5960  -14.4860 C.cat 133  ARG133      0.5346
     27  NH1       22.4580  -23.1020  -15.6840 N.pl3 133  ARG133      0.1354
     28  NH2       20.9600  -22.6340  -13.9970 N.pl3 133  ARG133      0.1354
     29  N         24.6830  -16.7790  -14.2310 N.am  134  PHE134     -0.1976
     30  CA        25.9470  -16.0920  -13.9570 C.3   134  PHE134      0.1639
     31  C         25.6960  -14.7260  -13.3180 C.2   134  PHE134      0.2290
     32  O         26.3150  -14.3670  -12.3050 O.2   134  PHE134     -0.2864
     33  CB        26.7160  -15.9630  -15.2790 C.3   134  PHE134      0.0560
     34  CG        27.9840  -15.1680  -15.1980 C.ar  134  PHE134     -0.0200
     35  CD1       29.1420  -15.6850  -14.6310 C.ar  134  PHE134     -0.0042
     36  CD2       28.0270  -13.8980  -15.7410 C.ar  134  PHE134     -0.0042
     37  CE1       30.3040  -14.9240  -14.5980 C.ar  134  PHE134     -0.0003
     38  CE2       29.1890  -13.1630  -15.7180 C.ar  134  PHE134     -0.0003
     39  CZ        30.3150  -13.6690  -15.1310 C.ar  134  PHE134     -0.0000
     40  N         23.9720  -15.1000   -9.7680 N.3   137  ALA137     -0.1245
     41  CA        24.8890  -15.4820   -8.7000 C.3   137  ALA137      0.1562
     42  C         25.6040  -14.2630   -8.1400 C.2   137  ALA137      0.2260
     43  O         25.8290  -14.1600   -6.9260 O.2   137  ALA137     -0.2867
     44  CB        25.9020  -16.4880   -9.2330 C.3   137  ALA137      0.0290
     45  N         25.3690  -25.8020  -10.5500 N.3   287  THR287     -0.1203
     46  CA        26.5890  -25.6660  -11.3410 C.3   287  THR287      0.1994
     47  C         27.4280  -24.4560  -10.9580 C.2   287  THR287      0.2619
     48  O         28.4950  -24.2630  -11.5460 O.2   287  THR287     -0.2717
     49  CB        26.2550  -25.5820  -12.8410 C.3   287  THR287      0.1784
     50  OG1       25.4050  -24.4600  -13.0770 O.3   287  THR287     -0.2211
     51  CG2       25.5840  -26.8740  -13.3440 C.3   287  THR287      0.0376
     52  N         26.9840  -23.6480  -10.0030 N.am  288  THR288     -0.1938
     53  CA        27.6720  -22.4090   -9.6640 C.3   288  THR288      0.2028
     54  C         28.7470  -22.6490   -8.6130 C.2   288  THR288      0.2642
     55  O         28.4730  -23.1970   -7.5410 O.2   288  THR288     -0.2714
     56  CB        26.6600  -21.3850   -9.1390 C.3   288  THR288      0.1808
     57  OG1       25.6820  -21.1130  -10.1540 O.3   288  THR288     -0.2208
     58  CG2       27.3510  -20.0850   -8.7060 C.3   288  THR288      0.0379
     59  N         29.9610  -22.2200   -8.9280 N.am  289  ASP289     -0.1971
     60  CA        31.0810  -22.2100   -7.9930 C.3   289  ASP289      0.1709
     61  C         31.1040  -20.8130   -7.3840 C.2   289  ASP289      0.2293
     62  O         31.6170  -19.8670   -7.9830 O.2   289  ASP289     -0.2864
     63  CB        32.3770  -22.5400   -8.7250 C.3   289  ASP289      0.1436
     64  CG        33.5820  -22.5990   -7.8110 C.2   289  ASP289      0.3671
     65  OD1       33.5460  -21.9940   -6.7240 O.co2 289  ASP289     -0.2456
     66  OD2       34.5820  -23.2460   -8.1940 O.co2 289  ASP289     -0.2456
     67  N         33.0660  -17.3200   -8.6520 N.3   293  ILE293     -0.1245
     68  CA        32.3640  -16.0950   -9.0550 C.3   293  ILE293      0.1561
     69  C         32.8990  -14.9000   -8.2700 C.2   293  ILE293      0.2260
     70  O         33.2540  -13.8590   -8.8420 O.2   293  ILE293     -0.2867
     71  CB        30.8400  -16.2590   -8.8720 C.3   293  ILE293      0.0252
     72  CG1       30.2560  -17.2760   -9.8720 C.3   293  ILE293      0.0019
     73  CG2       30.1180  -14.8840   -9.0150 C.3   293  ILE293      0.0019
     74  CD1       30.1900  -16.7690  -11.2810 C.3   293  ILE293      0.0001
     75  N         35.6340  -17.0090  -13.2430 N.3   298  VAL298     -0.1231
     76  CA        34.7730  -17.6410  -14.2330 C.3   298  VAL298      0.1692
     77  C         34.7850  -16.7920  -15.5030 C.2   298  VAL298      0.2591
     78  O         34.6810  -15.5580  -15.4450 O.2   298  VAL298     -0.2718
     79  CB        33.3460  -17.7850  -13.6600 C.3   298  VAL298      0.0266
     80  CG1       32.4020  -18.3700  -14.6860 C.3   298  VAL298      0.0020
     81  CG2       33.3540  -18.6420  -12.3900 C.3   298  VAL298      0.0020
     82  N         34.9000  -17.4390  -16.6590 N.am  299  GLU299     -0.1979
     83  CA        34.7660  -16.7160  -17.9190 C.3   299  GLU299      0.1602
     84  C         33.3100  -16.3180  -18.1370 C.2   299  GLU299      0.2287
     85  O         32.3990  -17.1430  -18.0350 O.2   299  GLU299     -0.2864
     86  CB        35.2670  -17.5650  -19.0840 C.3   299  GLU299      0.0415
     87  CG        35.1750  -16.8460  -20.4230 C.3   299  GLU299      0.1163
     88  CD        35.5650  -15.3580  -20.3460 C.2   299  GLU299      0.3649
     89  OE1       36.5730  -15.0010  -19.6950 O.co2 299  GLU299     -0.2457
     90  OE2       34.8560  -14.5110  -20.9380 O.co2 299  GLU299     -0.2457
     91  N         29.7040  -14.9750  -19.8280 N.3   301  PRO301     -0.2116
     92  CA        28.9390  -15.3070  -21.0440 C.3   301  PRO301      0.1372
     93  C         29.2190  -14.4080  -22.2100 C.2   301  PRO301      0.2244
     94  O         29.1550  -14.8750  -23.3490 O.2   301  PRO301     -0.2868
     95  CB        27.4730  -15.1450  -20.5970 C.3   301  PRO301      0.0268
     96  CG        27.4950  -15.2260  -19.1490 C.3   301  PRO301      0.0207
     97  CD        28.8200  -14.7370  -18.6790 C.3   301  PRO301      0.0892
@<TRIPOS>BOND
     1    94    93    2
     2    93    92    1
     3    16    14   ar
     4    16    17   ar
     5    14    13   ar
     6    92    95    1
     7    92    91    1
     8    90    88   ar
     9    17    15   ar
    10    95    96    1
    11    13    12    1
    12    13    15   ar
    13    87    88    1
    14    87    86    1
    15    88    89   ar
    16    12     9    1
    17    91    97    1
    18     7     6    1
    19     7     1    1
    20     6     5    1
    21    96    97    1
    22    86    83    1
    23     9     8    1
    24     9    10    1
    25     5     2    1
    26     8     3   am
    27     1     2    1
    28    84    85    2
    29    84    83    1
    30    83    82    1
    31     2     3    1
    32     3     4    2
    33    10    11    2
    34    82    77   am
    35    36    38   ar
    36    36    34   ar
    37    38    39   ar
    38    27    26    1
    39    77    78    2
    40    77    76    1
    41    33    34    1
    42    33    30    1
    43    34    35   ar
    44    39    37   ar
    45    18    19    1
    46    80    79    1
    47    35    37   ar
    48    26    28    1
    49    26    25    2
    50    76    79    1
    51    76    75    1
    52    29    30    1
    53    29    20   am
    54    30    31    1
    55    25    24    1
    56    22    19    1
    57    22    23    1
    58    19    20    1
    59    79    81    1
    60    51    49    1
    61    31    32    2
    62    20    21    2
    63    50    49    1
    64    49    46    1
    65    23    24    1
    66    48    47    2
    67    46    47    1
    68    46    45    1
    69    74    72    1
    70    47    52   am
    71    57    56    1
    72    52    53    1
    73    72    71    1
    74    40    41    1
    75    53    56    1
    76    53    54    1
    77    44    41    1
    78    56    58    1
    79    68    71    1
    80    68    67    1
    81    68    69    1
    82    73    71    1
    83    59    54   am
    84    59    60    1
    85    70    69    2
    86    63    60    1
    87    63    64    1
    88    41    42    1
    89    54    55    2
    90    66    64   ar
    91    42    43    2
    92    60    61    1
    93    62    61    2
    94    64    65   ar
