@<TRIPOS>MOLECULE
tmp/5n3wA00.pdb
 190 188 0 0 0
SMALL
GASTEIGER

@<TRIPOS>ATOM
      1  N          3.0880    2.3090   -8.4530 N.3   131  GLN131     -0.1245
      2  CA         3.7170    1.8800   -7.2320 C.3   131  GLN131      0.1566
      3  C          4.8180    2.9160   -7.0010 C.2   131  GLN131      0.2260
      4  O          5.7590    2.9810   -7.7920 O.2   131  GLN131     -0.2867
      5  CB         4.3010    0.4830   -7.3790 C.3   131  GLN131      0.0367
      6  CG         4.9150   -0.0500   -6.0970 C.3   131  GLN131      0.0905
      7  CD         3.9620    0.0430   -4.9310 C.2   131  GLN131      0.2608
      8  OE1        2.8020   -0.4230   -5.0130 O.2   131  GLN131     -0.2717
      9  NE2        4.4260    0.6710   -3.8380 N.am  131  GLN131     -0.0878
     10  N          6.1770    3.6130   -3.6390 N.3   133  GLN133     -0.1231
     11  CA         7.1570    3.1080   -2.6800 C.3   133  GLN133      0.1698
     12  C          8.2460    2.4010   -3.4800 C.2   133  GLN133      0.2592
     13  O          7.9030    1.5890   -4.3560 O.2   133  GLN133     -0.2718
     14  CB         6.5510    2.1700   -1.6370 C.3   133  GLN133      0.0381
     15  CG         7.1350    2.3660   -0.2270 C.3   133  GLN133      0.0905
     16  CD         6.4140    1.5550    0.8450 C.2   133  GLN133      0.2608
     17  OE1        5.7840    0.5580    0.5320 O.2   133  GLN133     -0.2717
     18  NE2        6.4970    1.9850    2.1110 N.am  133  GLN133     -0.0878
     19  N          9.5390    2.7090   -3.2670 N.am  134  ALA134     -0.1966
     20  CA        10.0670    3.6570   -2.2630 C.3   134  ALA134      0.1728
     21  C         10.2150    5.0480   -2.7990 C.2   134  ALA134      0.2616
     22  O          9.6590    5.9840   -2.2260 O.2   134  ALA134     -0.2715
     23  CB        11.4260    3.2270   -1.7730 C.3   134  ALA134      0.0334
     24  N         10.9920    5.1880   -3.8750 N.am  135  ILE135     -0.1963
     25  CA        11.3240    6.5090   -4.4070 C.3   135  ILE135      0.1727
     26  C         11.0340    6.6260   -5.8680 C.2   135  ILE135      0.2616
     27  O         11.8310    7.2020   -6.5920 O.2   135  ILE135     -0.2715
     28  CB        12.7870    6.9630   -4.1010 C.3   135  ILE135      0.0290
     29  CG1       13.7640    5.8070   -4.2780 C.3   135  ILE135      0.0022
     30  CG2       12.8950    7.4170   -2.6500 C.3   135  ILE135      0.0023
     31  CD1       15.2160    6.1950   -4.2920 C.3   135  ILE135      0.0001
     32  N          9.8570    6.1500   -6.2710 N.am  136  HIS136     -0.1973
     33  CA         9.3800    6.3030   -7.6530 C.3   136  HIS136      0.1656
     34  C          8.3150    7.3460   -7.8490 C.2   136  HIS136      0.2291
     35  O          7.8660    7.5500   -9.0060 O.2   136  HIS136     -0.2864
     36  CB         8.8460    4.9730   -8.2070 C.3   136  HIS136      0.0771
     37  CG         9.8510    3.8790   -8.1540 C.ar  136  HIS136      0.0820
     38  ND1       10.8790    3.7750   -9.0630 N.ar  136  HIS136     -0.2267
     39  CD2       10.0120    2.8670   -7.2750 C.ar  136  HIS136      0.1154
     40  CE1       11.6300    2.7420   -8.7450 C.ar  136  HIS136      0.1986
     41  NE2       11.1180    2.1660   -7.6720 N.ar  136  HIS136     -0.2212
     42  N          3.8460   -6.3470   -5.6740 N.3   264  TYR264     -0.1241
     43  CA         3.7750   -6.6620   -4.2260 C.3   264  TYR264      0.1605
     44  C          2.4790   -7.3920   -3.8650 C.2   264  TYR264      0.2264
     45  O          1.5290   -7.4110   -4.6390 O.2   264  TYR264     -0.2867
     46  CB         3.9710   -5.4030   -3.3500 C.3   264  TYR264      0.0534
     47  CG         5.2940   -4.7580   -3.5940 C.ar  264  TYR264     -0.0201
     48  CD1        5.5040   -4.0000   -4.7330 C.ar  264  TYR264     -0.0009
     49  CD2        6.3290   -4.9340   -2.7350 C.ar  264  TYR264     -0.0009
     50  CE1        6.7270   -3.4430   -5.0210 C.ar  264  TYR264      0.0417
     51  CE2        7.5600   -4.3810   -2.9990 C.ar  264  TYR264      0.0417
     52  CZ         7.7560   -3.6300   -4.1560 C.ar  264  TYR264      0.1957
     53  OH         8.9670   -3.0370   -4.4460 O.3   264  TYR264     -0.2866
     54  N         -0.0360   -2.9290   -1.1870 N.3   267  MET267     -0.1245
     55  CA         0.4560   -1.5810   -1.0000 C.3   267  MET267      0.1570
     56  C         -0.6030   -0.7650   -0.3010 C.2   267  MET267      0.2261
     57  O         -1.7660   -0.6850   -0.7450 O.2   267  MET267     -0.2867
     58  CB         0.7740   -0.9660   -2.3410 C.3   267  MET267      0.0387
     59  CG         1.5710    0.3260   -2.2400 C.3   267  MET267      0.0595
     60  SD         3.0120    0.1940   -1.1820 S.3   267  MET267     -0.1393
     61  CE         2.8940    1.8320   -0.4670 C.3   267  MET267      0.0692
     62  N         14.1620    6.1320    4.4810 N.3   308  TRP308     -0.1227
     63  CA        14.1090    4.7190    4.1410 C.3   308  TRP308      0.1737
     64  C         15.1720    3.8840    4.8610 C.2   308  TRP308      0.2595
     65  O         15.0500    2.6890    4.9420 O.2   308  TRP308     -0.2718
     66  CB        14.2220    4.5560    2.6420 C.3   308  TRP308      0.0564
     67  CG        13.0780    5.1940    1.8940 C.ar  308  TRP308      0.0003
     68  CD1       13.1650    6.1840    0.9780 C.ar  308  TRP308      0.0946
     69  CD2       11.6800    4.8500    1.9820 C.ar  308  TRP308      0.0152
     70  NE1       11.9340    6.4650    0.4660 N.ar  308  TRP308     -0.2442
     71  CE2       10.9950    5.6870    1.0830 C.ar  308  TRP308      0.0810
     72  CE3       10.9420    3.9200    2.7420 C.ar  308  TRP308      0.0012
     73  CZ2        9.6230    5.6330    0.9030 C.ar  308  TRP308      0.0191
     74  CZ3        9.5410    3.8700    2.5640 C.ar  308  TRP308      0.0001
     75  CH2        8.9090    4.7150    1.6320 C.ar  308  TRP308      0.0015
     76  N         16.1780    4.5160    5.4460 N.am  309  ASP309     -0.1974
     77  CA        17.0410    3.8180    6.3980 C.3   309  ASP309      0.1709
     78  C         16.2590    3.2920    7.6230 C.2   309  ASP309      0.2293
     79  O         16.7680    2.4290    8.3690 O.2   309  ASP309     -0.2864
     80  CB        18.1430    4.7430    6.9130 C.3   309  ASP309      0.1436
     81  CG        19.1640    5.1250    5.8560 C.2   309  ASP309      0.3671
     82  OD1       18.9130    4.9800    4.6340 O.co2 309  ASP309     -0.2456
     83  OD2       20.2350    5.6240    6.2760 O.co2 309  ASP309     -0.2456
     84  N         12.8880    2.0960    7.4760 N.3   311  PHE311     -0.1227
     85  CA        11.7180    1.3690    6.9740 C.3   311  PHE311      0.1736
     86  C         11.2350    0.3380    7.9520 C.2   311  PHE311      0.2595
     87  O         10.0370    0.1730    8.1260 O.2   311  PHE311     -0.2718
     88  CB        12.1150    0.6970    5.6820 C.3   311  PHE311      0.0547
     89  CG        11.0030    0.0210    4.9290 C.ar  311  PHE311     -0.0202
     90  CD1        9.8130    0.6900    4.6230 C.ar  311  PHE311     -0.0042
     91  CD2       11.1990   -1.2750    4.4350 C.ar  311  PHE311     -0.0042
     92  CE1        8.8310    0.0500    3.9030 C.ar  311  PHE311     -0.0003
     93  CE2       10.2230   -1.9090    3.6900 C.ar  311  PHE311     -0.0003
     94  CZ         9.0400   -1.2420    3.4210 C.ar  311  PHE311     -0.0000
     95  N         12.1550   -0.3290    8.6450 N.am  312  TRP312     -0.1976
     96  CA        11.7460   -1.2960    9.6670 C.3   312  TRP312      0.1640
     97  C         10.6560   -0.7330   10.5870 C.2   312  TRP312      0.2290
     98  O          9.7830   -1.4700   11.0000 O.2   312  TRP312     -0.2864
     99  CB        12.9260   -1.8100   10.4900 C.3   312  TRP312      0.0576
    100  CG        13.2660   -0.9970   11.6760 C.ar  312  TRP312      0.0006
    101  CD1       14.1980   -0.0140   11.7480 C.ar  312  TRP312      0.0946
    102  CD2       12.7040   -1.1160   12.9850 C.ar  312  TRP312      0.0152
    103  NE1       14.2340    0.5170   13.0150 N.ar  312  TRP312     -0.2442
    104  CE2       13.3470   -0.1640   13.8010 C.ar  312  TRP312      0.0810
    105  CE3       11.7210   -1.9380   13.5490 C.ar  312  TRP312      0.0012
    106  CZ2       13.0440   -0.0150   15.1370 C.ar  312  TRP312      0.0191
    107  CZ3       11.4180   -1.7820   14.8680 C.ar  312  TRP312      0.0001
    108  CH2       12.0690   -0.8270   15.6570 C.ar  312  TRP312      0.0015
    109  N         22.5440   -5.5480    4.2020 N.3   359  PHE359     -0.1241
    110  CA        21.0640   -5.6070    4.1310 C.3   359  PHE359      0.1605
    111  C         20.3890   -6.5450    5.1480 C.2   359  PHE359      0.2264
    112  O         19.1600   -6.6540    5.1460 O.2   359  PHE359     -0.2867
    113  CB        20.5480   -5.9050    2.6920 C.3   359  PHE359      0.0534
    114  CG        21.1860   -5.0550    1.6190 C.ar  359  PHE359     -0.0203
    115  CD1       21.7480   -3.8100    1.9260 C.ar  359  PHE359     -0.0042
    116  CD2       21.2480   -5.5070    0.2950 C.ar  359  PHE359     -0.0042
    117  CE1       22.3620   -3.0590    0.9540 C.ar  359  PHE359     -0.0003
    118  CE2       21.8720   -4.7530   -0.6790 C.ar  359  PHE359     -0.0003
    119  CZ        22.4240   -3.5250   -0.3520 C.ar  359  PHE359     -0.0000
    120  N         21.0330   -5.9500    8.4090 N.3   361  LYS361     -0.1231
    121  CA        20.8860   -5.0510    9.5880 C.3   361  LYS361      0.1693
    122  C         19.4850   -4.4590    9.6190 C.2   361  LYS361      0.2591
    123  O         18.9010   -4.2240    8.5690 O.2   361  LYS361     -0.2718
    124  CB        21.8780   -3.8870    9.5350 C.3   361  LYS361      0.0285
    125  CG        23.3470   -4.2710    9.5890 C.3   361  LYS361      0.0035
    126  CD        24.2240   -3.1510    8.9990 C.3   361  LYS361      0.0206
    127  CE        25.4990   -2.9030    9.8100 C.3   361  LYS361      0.1093
    128  NZ        26.5530   -2.2180    9.0200 N.3   361  LYS361     -0.1314
    129  N         18.9590   -4.2020   10.8090 N.am  362  LEU362     -0.1980
    130  CA        17.5730   -3.7120   10.9350 C.3   362  LEU362      0.1596
    131  C         17.4490   -2.3110   10.3150 C.2   362  LEU362      0.2287
    132  O         16.6160   -2.0690    9.4500 O.2   362  LEU362     -0.2864
    133  CB        17.1370   -3.7050   12.4100 C.3   362  LEU362      0.0297
    134  CG        15.6430   -3.4660   12.6700 C.3   362  LEU362      0.0022
    135  CD1       14.7390   -4.4390   11.9600 C.3   362  LEU362      0.0001
    136  CD2       15.4020   -3.5010   14.1660 C.3   362  LEU362      0.0001
    137  N         19.4180    0.1300    8.0310 N.3   364  VAL364     -0.1245
    138  CA        20.3920    0.1090    6.9440 C.3   364  VAL364      0.1561
    139  C         20.8620    1.5370    6.7440 C.2   364  VAL364      0.2260
    140  O         20.2310    2.4840    7.2280 O.2   364  VAL364     -0.2867
    141  CB        19.7650   -0.4150    5.6370 C.3   364  VAL364      0.0252
    142  CG1       19.6490   -1.9320    5.6530 C.3   364  VAL364      0.0019
    143  CG2       18.3730    0.1650    5.4260 C.3   364  VAL364      0.0019
    144  N         21.2300    3.5490    3.4630 N.3   366  LEU366     -0.1245
    145  CA        20.9800    3.4920    2.0160 C.3   366  LEU366      0.1561
    146  C         21.7000    4.5370    1.1280 C.2   366  LEU366      0.2260
    147  O         21.2150    4.8080    0.0330 O.2   366  LEU366     -0.2867
    148  CB        19.4570    3.5380    1.7460 C.3   366  LEU366      0.0270
    149  CG        18.6500    2.3010    2.1430 C.3   366  LEU366      0.0019
    150  CD1       17.2190    2.5500    1.7790 C.3   366  LEU366      0.0001
    151  CD2       19.1160    1.0290    1.4450 C.3   366  LEU366      0.0001
    152  N         16.8670    1.4950   -3.3390 N.3   371  PRO371     -0.2102
    153  CA        16.0670    0.7640   -2.3600 C.3   371  PRO371      0.1504
    154  C         15.3910   -0.5270   -2.9400 C.2   371  PRO371      0.2575
    155  O         15.1230   -1.4790   -2.1780 O.2   371  PRO371     -0.2718
    156  CB        15.0670    1.8410   -1.8950 C.3   371  PRO371      0.0282
    157  CG        15.7850    3.1270   -2.1220 C.3   371  PRO371      0.0208
    158  CD        16.3910    2.8830   -3.4620 C.3   371  PRO371      0.0893
    159  N         15.1380   -0.5550   -4.2610 N.am  372  ASP372     -0.1974
    160  CA        14.5690   -1.7530   -4.9250 C.3   372  ASP372      0.1708
    161  C         15.4960   -2.9470   -4.7950 C.2   372  ASP372      0.2293
    162  O         15.0470   -4.0730   -4.7070 O.2   372  ASP372     -0.2864
    163  CB        14.3040   -1.4990   -6.4170 C.3   372  ASP372      0.1436
    164  CG        13.1870   -0.5010   -6.6550 C.2   372  ASP372      0.3671
    165  OD1       12.2590   -0.4630   -5.8250 O.co2 372  ASP372     -0.2456
    166  OD2       13.2420    0.2460   -7.6800 O.co2 372  ASP372     -0.2456
    167  N         17.6820   -3.3760   -2.2150 N.3   374  ALA374     -0.1231
    168  CA        17.7950   -3.7780   -0.8020 C.3   374  ALA374      0.1694
    169  C         16.5290   -4.4120   -0.2240 C.2   374  ALA374      0.2592
    170  O         16.5560   -5.0230    0.8580 O.2   374  ALA374     -0.2718
    171  CB        18.1870   -2.5800    0.0400 C.3   374  ALA374      0.0304
    172  N         15.4000   -4.2070   -0.8980 N.am  375  TYR375     -0.1976
    173  CA        14.1300   -4.6760   -0.3900 C.3   375  TYR375      0.1639
    174  C         14.2380   -6.1680   -0.0830 C.2   375  TYR375      0.2290
    175  O         14.6980   -6.9280   -0.9230 O.2   375  TYR375     -0.2864
    176  CB        13.0290   -4.3680   -1.3920 C.3   375  TYR375      0.0560
    177  CG        11.6750   -4.8090   -0.9090 C.ar  375  TYR375     -0.0198
    178  CD1       10.9800   -4.0720    0.0440 C.ar  375  TYR375     -0.0009
    179  CD2       11.1030   -5.9710   -1.3840 C.ar  375  TYR375     -0.0009
    180  CE1        9.7500   -4.4830    0.5040 C.ar  375  TYR375      0.0417
    181  CE2        9.8810   -6.3860   -0.9300 C.ar  375  TYR375      0.0417
    182  CZ         9.2090   -5.6460    0.0120 C.ar  375  TYR375      0.1957
    183  OH         7.9930   -6.0990    0.4470 O.3   375  TYR375     -0.2866
    184  N         13.5640   -6.3550    7.0620 N.3   379  PRO379     -0.2116
    185  CA        13.0060   -5.3140    7.9180 C.3   379  PRO379      0.1372
    186  C         11.6540   -5.6460    8.5590 C.2   379  PRO379      0.2244
    187  O         11.3920   -5.1880    9.6670 O.2   379  PRO379     -0.2868
    188  CB        12.8830   -4.0950    6.9770 C.3   379  PRO379      0.0268
    189  CG        12.9680   -4.6340    5.6040 C.3   379  PRO379      0.0207
    190  CD        13.8570   -5.8320    5.7090 C.3   379  PRO379      0.0892
@<TRIPOS>BOND
     1    38    40   ar
     2    38    37   ar
     3    35    34    2
     4    40    41   ar
     5     1     2    1
     6    36    37    1
     7    36    33    1
     8    37    39   ar
     9    34    33    1
    10     4     3    2
    11   166   164   ar
    12    41    39   ar
    13    33    32    1
    14     5     2    1
    15     5     6    1
    16     2     3    1
    17   164   163    1
    18   164   165   ar
    19    27    26    2
    20   163   160    1
    21    32    26   am
    22     6     7    1
    23    26    25    1
    24    42    43    1
    25    50    48   ar
    26    50    52   ar
    27     8     7    2
    28     7     9   am
    29   160   161    1
    30   160   159    1
    31   161   162    2
    32    48    47   ar
    33    45    44    2
    34    53    52    1
    35    25    28    1
    36    25    24    1
    37    13    12    2
    38    31    29    1
    39    29    28    1
    40   159   154   am
    41    43    44    1
    42    43    46    1
    43    52    51   ar
    44    28    30    1
    45    24    21   am
    46    10    11    1
    47    47    46    1
    48    47    49   ar
    49    12    19   am
    50    12    11    1
    51   158   152    1
    52   158   157    1
    53   152   153    1
    54    19    20    1
    55    51    49   ar
    56   154   153    1
    57   154   155    2
    58    21    20    1
    59    21    22    2
    60    11    14    1
    61   153   156    1
    62    58    59    1
    63    58    55    1
    64    20    23    1
    65    59    60    1
    66   167   168    1
    67   157   156    1
    68    14    15    1
    69   176   177    1
    70   176   173    1
    71   179   181   ar
    72   179   177   ar
    73    54    55    1
    74    60    61    1
    75    55    56    1
    76   181   182   ar
    77   175   174    2
    78   177   178   ar
    79   172   173    1
    80   172   169   am
    81   168   169    1
    82   168   171    1
    83    57    56    2
    84   118   119   ar
    85   118   116   ar
    86   173   174    1
    87   119   117   ar
    88    15    16    1
    89   169   170    2
    90   182   183    1
    91   182   180   ar
    92   147   146    2
    93   178   180   ar
    94   116   114   ar
    95    70    68   ar
    96    70    71   ar
    97    17    16    2
    98    16    18   am
    99    73    71   ar
   100    73    75   ar
   101   117   115   ar
   102    68    67   ar
   103    71    69   ar
   104   146   145    1
   105   151   149    1
   106   114   115   ar
   107   114   113    1
   108    75    74   ar
   109   148   145    1
   110   148   149    1
   111   150   149    1
   112    67    69   ar
   113    67    66    1
   114    69    72   ar
   115   145   144    1
   116    74    72   ar
   117    66    63    1
   118   113   110    1
   119    94    93   ar
   120    94    92   ar
   121    93    91   ar
   122    92    90   ar
   123   110   109    1
   124   110   111    1
   125    63    62    1
   126    63    64    1
   127    91    89   ar
   128    90    89   ar
   129    82    81   ar
   130    64    65    2
   131    64    76   am
   132    89    88    1
   133   112   111    2
   134   143   141    1
   135    76    77    1
   136   189   190    1
   137   189   188    1
   138   141   142    1
   139   141   138    1
   140    88    85    1
   141   190   184    1
   142    81    83   ar
   143    81    80    1
   144    77    80    1
   145    77    78    1
   146   139   138    1
   147   139   140    2
   148   138   137    1
   149    85    84    1
   150    85    86    1
   151   188   185    1
   152   184   185    1
   153    78    79    2
   154   185   186    1
   155    86    87    2
   156    86    95   am
   157   120   121    1
   158   186   187    2
   159   123   122    2
   160    95    96    1
   161   126   125    1
   162   126   127    1
   163   128   127    1
   164   132   131    2
   165   124   121    1
   166   124   125    1
   167   121   122    1
   168   122   129   am
   169    96    99    1
   170    96    97    1
   171   131   130    1
   172    99   100    1
   173    97    98    2
   174   129   130    1
   175   130   133    1
   176   100   101   ar
   177   100   102   ar
   178   101   103   ar
   179   135   134    1
   180   133   134    1
   181   134   136    1
   182   102   105   ar
   183   102   104   ar
   184   103   104   ar
   185   105   107   ar
   186   104   106   ar
   187   107   108   ar
   188   106   108   ar
