@<TRIPOS>MOLECULE
tmp/5n3yA00.pdb
 191 187 0 0 0
SMALL
GASTEIGER

@<TRIPOS>ATOM
      1  N         13.9040   46.6690    1.1890 N.3   111  ASN111     -0.1225
      2  CA        12.7020   45.8670    1.4440 C.3   111  ASN111      0.1785
      3  C         12.4700   44.8330    0.3490 C.2   111  ASN111      0.2597
      4  O         11.3720   44.7150   -0.1920 O.2   111  ASN111     -0.2718
      5  CB        11.4690   46.7610    1.6230 C.3   111  ASN111      0.1169
      6  CG        11.4920   47.5210    2.9300 C.2   111  ASN111      0.2627
      7  OD1       11.8500   46.9960    3.9770 O.2   111  ASN111     -0.2716
      8  ND2       11.0640   48.7570    2.8900 N.am  111  ASN111     -0.0877
      9  N         13.4760   44.0250    0.0560 N.am  112  ASN112     -0.1960
     10  CA        13.2940   43.0210   -0.9780 C.3   112  ASN112      0.1819
     11  C         14.4190   41.9980   -0.9110 C.2   112  ASN112      0.2621
     12  O         15.3880   42.1290   -0.1610 O.2   112  ASN112     -0.2715
     13  CB        13.2280   43.6730   -2.3720 C.3   112  ASN112      0.1195
     14  CG        12.2420   42.9890   -3.3140 C.2   112  ASN112      0.2630
     15  OD1       11.7380   41.9090   -3.0460 O.2   112  ASN112     -0.2716
     16  ND2       11.9190   43.6520   -4.4140 N.am  112  ASN112     -0.0877
     17  N         14.2570   40.9840   -1.7500 N.am  113  ALA113     -0.1963
     18  CA        15.2440   39.9430   -1.9860 C.3   113  ALA113      0.1728
     19  C         15.0700   39.5310   -3.4360 C.2   113  ALA113      0.2616
     20  O         13.9810   39.6820   -3.9890 O.2   113  ALA113     -0.2715
     21  CB        15.0470   38.7430   -1.0430 C.3   113  ALA113      0.0334
     22  N         16.1380   39.0350   -4.0540 N.am  114  PHE114     -0.1960
     23  CA        16.0730   38.6800   -5.4620 C.3   114  PHE114      0.1771
     24  C         17.1840   37.7140   -5.8430 C.2   114  PHE114      0.2620
     25  O         18.2160   37.6310   -5.1900 O.2   114  PHE114     -0.2715
     26  CB        16.0750   39.9130   -6.3830 C.3   114  PHE114      0.0574
     27  CG        17.2810   40.8270   -6.2610 C.ar  114  PHE114     -0.0200
     28  CD1       17.3380   41.7610   -5.2270 C.ar  114  PHE114     -0.0042
     29  CD2       18.3160   40.7790   -7.1680 C.ar  114  PHE114     -0.0042
     30  CE1       18.4300   42.6600   -5.1370 C.ar  114  PHE114     -0.0003
     31  CE2       19.4150   41.6580   -7.0780 C.ar  114  PHE114     -0.0003
     32  CZ        19.4650   42.5830   -6.0700 C.ar  114  PHE114     -0.0000
     33  N         16.9650   37.0470   -6.9680 N.am  115  TRP115     -0.1960
     34  CA        17.9900   36.3340   -7.7240 C.3   115  TRP115      0.1771
     35  C         18.4230   37.2640   -8.8580 C.2   115  TRP115      0.2620
     36  O         17.5860   37.7910   -9.5830 O.2   115  TRP115     -0.2715
     37  CB        17.4000   35.0270   -8.2790 C.3   115  TRP115      0.0590
     38  CG        18.3050   34.2860   -9.2120 C.ar  115  TRP115      0.0006
     39  CD1       18.2730   34.3030  -10.5660 C.ar  115  TRP115      0.0946
     40  CD2       19.3930   33.4110   -8.8410 C.ar  115  TRP115      0.0152
     41  NE1       19.2750   33.4640  -11.0660 N.ar  115  TRP115     -0.2442
     42  CE2       19.9820   32.9380  -10.0240 C.ar  115  TRP115      0.0810
     43  CE3       19.9110   32.9630   -7.6160 C.ar  115  TRP115      0.0012
     44  CZ2       21.0580   32.0350  -10.0050 C.ar  115  TRP115      0.0191
     45  CZ3       20.9550   32.0650   -7.6160 C.ar  115  TRP115      0.0001
     46  CH2       21.5020   31.6190   -8.7930 C.ar  115  TRP115      0.0015
     47  N         19.7180   37.5150   -8.9870 N.am  116  ASN116     -0.1958
     48  CA        20.2100   38.5210   -9.9240 C.3   116  ASN116      0.1819
     49  C         20.6910   37.9360  -11.2380 C.2   116  ASN116      0.2621
     50  O         21.3280   38.6510  -12.0210 O.2   116  ASN116     -0.2715
     51  CB        21.3030   39.3910   -9.3000 C.3   116  ASN116      0.1195
     52  CG        22.6520   38.7280   -9.3150 C.2   116  ASN116      0.2630
     53  OD1       22.7540   37.4930   -9.4250 O.2   116  ASN116     -0.2716
     54  ND2       23.6960   39.5300   -9.1970 N.am  116  ASN116     -0.0877
     55  N         20.3710   36.6760  -11.5010 N.am  117  GLY117     -0.1954
     56  CA        20.8870   35.9390  -12.6510 C.3   117  GLY117      0.1869
     57  C         21.9870   34.9750  -12.2890 C.2   117  GLY117      0.2309
     58  O         22.2650   34.0400  -13.0510 O.2   117  GLY117     -0.2863
     59  N          9.8180   45.2500    6.4280 N.3   130  PHE130     -0.1241
     60  CA        10.5080   43.9730    6.5620 C.3   130  PHE130      0.1605
     61  C         11.5990   44.0950    7.6080 C.2   130  PHE130      0.2264
     62  O         12.1800   45.1670    7.7990 O.2   130  PHE130     -0.2867
     63  CB        11.2010   43.5100    5.2640 C.3   130  PHE130      0.0534
     64  CG        10.2760   42.9650    4.2090 C.ar  130  PHE130     -0.0203
     65  CD1        9.8280   41.6670    4.3170 C.ar  130  PHE130     -0.0042
     66  CD2        9.9250   43.6960    3.0750 C.ar  130  PHE130     -0.0042
     67  CE1        8.9850   41.1180    3.3410 C.ar  130  PHE130     -0.0003
     68  CE2        9.0900   43.1460    2.1320 C.ar  130  PHE130     -0.0003
     69  CZ         8.6430   41.8350    2.2740 C.ar  130  PHE130     -0.0000
     70  N         15.4180   39.7280    5.2700 N.3   133  LEU133     -0.1245
     71  CA        14.4530   38.8840    4.5670 C.3   133  LEU133      0.1561
     72  C         14.8620   37.4220    4.5260 C.2   133  LEU133      0.2260
     73  O         13.9970   36.5570    4.3570 O.2   133  LEU133     -0.2867
     74  CB        14.1670   39.4090    3.1540 C.3   133  LEU133      0.0270
     75  CG        13.2390   40.6460    3.1060 C.3   133  LEU133      0.0019
     76  CD1       13.9760   41.9340    3.3370 C.3   133  LEU133      0.0001
     77  CD2       12.4630   40.7150    1.8230 C.3   133  LEU133      0.0001
     78  N         10.8400   32.7170    1.8520 N.3   139  VAL139     -0.1245
     79  CA        11.5340   33.7290    1.0480 C.3   139  VAL139      0.1561
     80  C         12.7960   33.1410    0.4150 C.2   139  VAL139      0.2260
     81  O         13.0350   33.2970   -0.7910 O.2   139  VAL139     -0.2867
     82  CB        11.8490   34.9740    1.9020 C.3   139  VAL139      0.0252
     83  CG1       12.6630   35.9560    1.0710 C.3   139  VAL139      0.0019
     84  CG2       10.5590   35.6080    2.4030 C.3   139  VAL139      0.0019
     85  N         11.8230   30.7720   -2.2000 N.3   142  HIS142     -0.1226
     86  CA        11.2870   31.5510   -3.3260 C.3   142  HIS142      0.1752
     87  C         12.4350   32.0290   -4.2220 C.2   142  HIS142      0.2595
     88  O         12.3770   31.9170   -5.4570 O.2   142  HIS142     -0.2718
     89  CB        10.4580   32.7260   -2.7520 C.3   142  HIS142      0.0759
     90  CG         9.8800   33.6600   -3.7910 C.ar  142  HIS142      0.0818
     91  ND1        8.5260   33.7430   -4.0780 N.ar  142  HIS142     -0.2268
     92  CD2       10.4800   34.5500   -4.6110 C.ar  142  HIS142      0.1154
     93  CE1        8.3310   34.6350   -5.0320 C.ar  142  HIS142      0.1986
     94  NE2        9.4990   35.1580   -5.3700 N.ar  142  HIS142     -0.2212
     95  N         13.4760   32.5900   -3.6110 N.am  143  GLU143     -0.1979
     96  CA        14.5980   33.1340   -4.3830 C.3   143  GLU143      0.1602
     97  C         15.3610   32.0310   -5.1100 C.2   143  GLU143      0.2287
     98  O         15.6730   32.1700   -6.3020 O.2   143  GLU143     -0.2864
     99  CB        15.5370   33.9600   -3.5170 C.3   143  GLU143      0.0415
    100  CG        14.8930   35.0850   -2.7110 C.3   143  GLU143      0.1163
    101  CD        13.9250   35.9520   -3.4700 C.2   143  GLU143      0.3649
    102  OE1       14.1240   36.1120   -4.7000 O.co2 143  GLU143     -0.2457
    103  OE2       12.9320   36.4670   -2.8890 O.co2 143  GLU143     -0.2457
    104  N         13.6570   30.8370   -8.2390 N.3   146  HIS146     -0.1241
    105  CA        13.8550   31.6150   -9.4650 C.3   146  HIS146      0.1621
    106  C         15.0210   31.0840  -10.2830 C.2   146  HIS146      0.2264
    107  O         14.9500   31.0250  -11.5070 O.2   146  HIS146     -0.2867
    108  CB        14.0800   33.0900   -9.1340 C.3   146  HIS146      0.0745
    109  CG        12.8150   33.8620   -8.8700 C.ar  146  HIS146      0.0817
    110  ND1       11.7880   33.9320   -9.7760 N.ar  146  HIS146     -0.2268
    111  CD2       12.4140   34.5890   -7.8020 C.ar  146  HIS146      0.1154
    112  CE1       10.8110   34.6790   -9.2850 C.ar  146  HIS146      0.1986
    113  NE2       11.1700   35.1020   -8.0860 N.ar  146  HIS146     -0.2212
    114  N         10.0620   37.1640  -17.4820 N.3   157  TYR157     -0.1241
    115  CA         9.5620   37.8240  -16.2650 C.3   157  TYR157      0.1605
    116  C          8.6370   39.0050  -16.5740 C.2   157  TYR157      0.2264
    117  O          8.8790   40.1420  -16.1820 O.2   157  TYR157     -0.2867
    118  CB        10.7140   38.2370  -15.3610 C.3   157  TYR157      0.0534
    119  CG        10.3520   38.3950  -13.8950 C.ar  157  TYR157     -0.0201
    120  CD1        9.8780   37.3340  -13.1530 C.ar  157  TYR157     -0.0009
    121  CD2       10.5360   39.6040  -13.2530 C.ar  157  TYR157     -0.0009
    122  CE1        9.5990   37.4640  -11.8160 C.ar  157  TYR157      0.0417
    123  CE2       10.2500   39.7550  -11.9080 C.ar  157  TYR157      0.0417
    124  CZ         9.7740   38.6790  -11.1840 C.ar  157  TYR157      0.1957
    125  OH         9.5260   38.8410   -9.8380 O.3   157  TYR157     -0.2866
    126  N          6.5040   33.7590  -10.8740 N.3   166  GLU166     -0.1245
    127  CA         6.2750   34.1430   -9.4810 C.3   166  GLU166      0.1567
    128  C          5.5650   33.0520   -8.6980 C.2   166  GLU166      0.2260
    129  O          5.9660   32.7300   -7.5710 O.2   166  GLU166     -0.2867
    130  CB         5.4880   35.4490   -9.4110 C.3   166  GLU166      0.0388
    131  CG         6.3850   36.6620   -9.3950 C.3   166  GLU166      0.1160
    132  CD         7.3710   36.5760   -8.2460 C.2   166  GLU166      0.3649
    133  OE1        6.9080   36.4080   -7.0990 O.co2 166  GLU166     -0.2457
    134  OE2        8.6010   36.6120   -8.5120 O.co2 166  GLU166     -0.2457
    135  N          2.9190   33.8870    2.3750 N.3   188  ILE188     -0.1231
    136  CA         4.2720   34.1870    1.8990 C.3   188  ILE188      0.1692
    137  C          4.8870   35.3080    2.7220 C.2   188  ILE188      0.2592
    138  O          4.3670   36.4330    2.7360 O.2   188  ILE188     -0.2718
    139  CB         4.2900   34.5630    0.4100 C.3   188  ILE188      0.0266
    140  CG1        3.6290   33.4910   -0.4570 C.3   188  ILE188      0.0019
    141  CG2        5.6920   34.8560   -0.0390 C.3   188  ILE188      0.0020
    142  CD1        4.2710   32.1310   -0.3770 C.3   188  ILE188      0.0001
    143  N          6.0280   35.0150    3.3520 N.am  189  GLY189     -0.1957
    144  CA         6.8510   36.0250    3.9870 C.3   189  GLY189      0.1869
    145  C          6.4340   36.4540    5.3800 C.2   189  GLY189      0.2309
    146  O          6.9980   37.4150    5.9130 O.2   189  GLY189     -0.2863
    147  N          2.9280   38.9630    3.1140 N.3   202  LEU202     -0.1231
    148  CA         3.0310   39.7050    1.8660 C.3   202  LEU202      0.1693
    149  C          1.9900   39.2440    0.8460 C.2   202  LEU202      0.2591
    150  O          1.4060   40.0700    0.1400 O.2   202  LEU202     -0.2718
    151  CB         4.4400   39.5010    1.3230 C.3   202  LEU202      0.0284
    152  CG         4.7520   40.1690    0.0070 C.3   202  LEU202      0.0019
    153  CD1        4.6750   41.6850    0.1130 C.3   202  LEU202      0.0001
    154  CD2        6.1530   39.7300   -0.4480 C.3   202  LEU202      0.0001
    155  N          1.7870   37.9350    0.7350 N.am  203  ARG203     -0.1980
    156  CA         0.7750   37.3310   -0.1050 C.3   203  ARG203      0.1597
    157  C          0.1810   36.1550    0.6470 C.2   203  ARG203      0.2287
    158  O          0.7880   35.6000    1.5570 O.2   203  ARG203     -0.2864
    159  CB         1.3650   36.7580   -1.4130 C.3   203  ARG203      0.0334
    160  CG         1.7970   37.8150   -2.4030 C.3   203  ARG203      0.0492
    161  CD         2.4100   37.2010   -3.6150 C.3   203  ARG203      0.2205
    162  NE         3.7470   36.6260   -3.4400 N.pl3 203  ARG203     -0.0865
    163  CZ         4.8800   37.3110   -3.4820 C.cat 203  ARG203      0.5346
    164  NH1        4.8610   38.6260   -3.5740 N.pl3 203  ARG203      0.1354
    165  NH2        6.0390   36.6740   -3.4470 N.pl3 203  ARG203      0.1354
    166  N          4.7420   46.5980  -12.2280 N.3   226  ASP226     -0.1225
    167  CA         5.1950   45.3110  -11.6990 C.3   226  ASP226      0.1805
    168  C          5.3860   44.2870  -12.8260 C.2   226  ASP226      0.2597
    169  O          4.9650   43.1290  -12.7280 O.2   226  ASP226     -0.2718
    170  CB         4.2250   44.8110  -10.6270 C.3   226  ASP226      0.1424
    171  CG         4.6340   43.4990   -9.9780 C.2   226  ASP226      0.3668
    172  OD1        5.8600   43.2440   -9.7460 O.co2 226  ASP226     -0.2456
    173  OD2        3.7080   42.7100   -9.6410 O.co2 226  ASP226     -0.2456
    174  N          5.9680   44.7400  -13.9460 N.am  227  ASN227     -0.1974
    175  CA         6.2160   43.8700  -15.1040 C.3   227  ASN227      0.1688
    176  C          4.9400   43.2230  -15.6120 C.2   227  ASN227      0.2292
    177  O          4.9160   42.0490  -15.9900 O.2   227  ASN227     -0.2864
    178  CB         7.2660   42.8090  -14.7910 C.3   227  ASN227      0.1181
    179  CG         8.6490   43.3920  -14.6540 C.2   227  ASN227      0.2629
    180  OD1        9.3110   43.2930  -13.6080 O.2   227  ASN227     -0.2716
    181  ND2        9.1170   43.9380  -15.7160 N.am  227  ASN227     -0.0877
    182  N          3.6580   39.8890   -9.5360 N.3   231  HIS231     -0.1241
    183  CA         3.4110   39.5900   -8.1260 C.3   231  HIS231      0.1621
    184  C          1.9500   39.7340   -7.7270 C.2   231  HIS231      0.2264
    185  O          1.6230   39.5480   -6.5410 O.2   231  HIS231     -0.2867
    186  CB         4.2600   40.4980   -7.2190 C.3   231  HIS231      0.0745
    187  CG         5.7450   40.3270   -7.3940 C.ar  231  HIS231      0.0817
    188  ND1        6.5000   41.0940   -8.2560 N.ar  231  HIS231     -0.2268
    189  CD2        6.6060   39.4750   -6.8010 C.ar  231  HIS231      0.1154
    190  CE1        7.7650   40.6910   -8.2070 C.ar  231  HIS231      0.1986
    191  NE2        7.8520   39.7190   -7.3250 N.ar  231  HIS231     -0.2212
@<TRIPOS>BOND
     1   114   115    1
     2   116   115    1
     3   116   117    2
     4   115   118    1
     5   177   176    2
     6   181   179   am
     7   176   175    1
     8   118   119    1
     9   175   178    1
    10   175   174    1
    11   178   179    1
    12   179   180    2
    13   174   168   am
    14   119   121   ar
    15   119   120   ar
    16   121   123   ar
    17   120   122   ar
    18    58    57    2
    19   168   169    2
    20   168   167    1
    21    56    57    1
    22    56    55    1
    23   166   167    1
    24    50    49    2
    25   123   124   ar
    26   122   124   ar
    27   167   170    1
    28   107   106    2
    29    55    49   am
    30    49    48    1
    31   124   125    1
    32    41    39   ar
    33    41    42   ar
    34   126   127    1
    35   170   171    1
    36    39    38   ar
    37   106   105    1
    38    42    44   ar
    39    42    40   ar
    40    44    46   ar
    41   171   172   ar
    42   171   173   ar
    43    48    51    1
    44    48    47    1
    45   110   112   ar
    46   110   109   ar
    47    36    35    2
    48   182   183    1
    49   127   130    1
    50   127   128    1
    51   105   108    1
    52   105   104    1
    53    53    52    2
    54   130   131    1
    55   131   132    1
    56    52    51    1
    57    52    54   am
    58   112   113   ar
    59    38    40   ar
    60    38    37    1
    61   108   109    1
    62    47    35   am
    63   109   111   ar
    64    35    34    1
    65    40    43   ar
    66    46    45   ar
    67   128   129    2
    68   134   132   ar
    69    37    34    1
    70   188   190   ar
    71   188   187   ar
    72   132   133   ar
    73   190   191   ar
    74   183   184    1
    75   183   186    1
    76   113   111   ar
    77   184   185    2
    78    34    33    1
    79    43    45   ar
    80   187   186    1
    81   187   189   ar
    82   191   189   ar
    83    29    31   ar
    84    29    27   ar
    85    31    32   ar
    86    33    24   am
    87    26    27    1
    88    26    23    1
    89    98    97    2
    90    27    28   ar
    91    32    30   ar
    92    24    23    1
    93    24    25    2
    94    23    22    1
    95    88    87    2
    96    94    93   ar
    97    94    92   ar
    98    28    30   ar
    99    97    96    1
   100    93    91   ar
   101   102   101   ar
   102    92    90   ar
   103    16    14   am
   104    96    95    1
   105    96    99    1
   106    87    95   am
   107    87    86    1
   108    91    90   ar
   109    22    19   am
   110    20    19    2
   111    90    89    1
   112   161   162    1
   113   161   160    1
   114   164   163    1
   115    99   100    1
   116   163   165    1
   117   163   162    2
   118   101   103   ar
   119   101   100    1
   120    19    18    1
   121    86    89    1
   122    86    85    1
   123    14    15    2
   124    14    13    1
   125   160   159    1
   126    13    10    1
   127    18    17    1
   128    18    21    1
   129    17    11   am
   130   159   156    1
   131    10    11    1
   132    10     9    1
   133    11    12    2
   134    81    80    2
   135   140   142    1
   136   140   139    1
   137   154   152    1
   138     4     3    2
   139   156   157    1
   140   156   155    1
   141   141   139    1
   142   152   153    1
   143   152   151    1
   144     9     3   am
   145   150   149    2
   146     3     2    1
   147   139   136    1
   148    80    79    1
   149   157   158    2
   150   155   149   am
   151   149   148    1
   152    79    78    1
   153    79    82    1
   154    83    82    1
   155     1     2    1
   156   151   148    1
   157     2     5    1
   158     5     6    1
   159    77    75    1
   160   148   147    1
   161   136   135    1
   162   136   137    1
   163    82    84    1
   164    68    69   ar
   165    68    66   ar
   166    69    67   ar
   167   137   138    2
   168   137   143   am
   169     8     6   am
   170     6     7    2
   171    66    64   ar
   172    75    74    1
   173    75    76    1
   174    74    71    1
   175    67    65   ar
   176   143   144    1
   177   144   145    1
   178    64    65   ar
   179    64    63    1
   180    73    72    2
   181    72    71    1
   182    71    70    1
   183    63    60    1
   184   145   146    2
   185    59    60    1
   186    60    61    1
   187    61    62    2
