@<TRIPOS>MOLECULE
tmp/5n49B00.pdb
 129 127 0 0 0
SMALL
GASTEIGER

@<TRIPOS>ATOM
      1  N        -18.2540  -12.7760   32.8080 N.3    26  ALA26      -0.1231
      2  CA       -19.6750  -12.4080   32.7900 C.3    26  ALA26       0.1694
      3  C        -20.4350  -12.9640   31.5980 C.2    26  ALA26       0.2592
      4  O        -21.6600  -12.9250   31.5850 O.2    26  ALA26      -0.2718
      5  CB       -19.7980  -10.9200   32.8470 C.3    26  ALA26       0.0304
      6  N        -19.7160  -13.4560   30.5920 N.am   27  ARG27      -0.1966
      7  CA       -20.3080  -13.9480   29.3510 C.3    27  ARG27       0.1729
      8  C        -21.0130  -12.9030   28.5420 C.2    27  ARG27       0.2616
      9  O        -21.7800  -13.2550   27.6610 O.2    27  ARG27      -0.2715
     10  CB       -21.2660  -15.1410   29.5530 C.3    27  ARG27       0.0348
     11  CG       -20.7030  -16.2540   30.4510 C.3    27  ARG27       0.0492
     12  CD       -19.4660  -16.9160   29.8850 C.3    27  ARG27       0.2205
     13  NE       -19.7470  -17.8220   28.7540 N.pl3  27  ARG27      -0.0865
     14  CZ       -18.8320  -18.5550   28.1100 C.cat  27  ARG27       0.5346
     15  NH1      -17.5440  -18.4860   28.4350 N.pl3  27  ARG27       0.1354
     16  NH2      -19.2010  -19.3360   27.1050 N.pl3  27  ARG27       0.1354
     17  N        -20.7190  -11.6270   28.8010 N.am   28  ILE28      -0.1963
     18  CA       -21.2520  -10.5290   28.0270 C.3    28  ILE28       0.1727
     19  C        -21.0260  -10.6450   26.5110 C.2    28  ILE28       0.2616
     20  O        -21.8650  -10.1590   25.7420 O.2    28  ILE28      -0.2715
     21  CB       -20.7450   -9.1660   28.6200 C.3    28  ILE28       0.0290
     22  CG1      -21.4270   -8.9410   29.9700 C.3    28  ILE28       0.0022
     23  CG2      -21.1130   -8.0180   27.7160 C.3    28  ILE28       0.0023
     24  CD1      -20.8520   -7.8280   30.8300 C.3    28  ILE28       0.0001
     25  N        -19.8850  -11.2170   26.1010 N.am   29  PHE29      -0.1974
     26  CA       -19.4590  -11.2340   24.7270 C.3    29  PHE29       0.1639
     27  C        -19.5230  -12.6600   24.1080 C.2    29  PHE29       0.2290
     28  O        -19.0020  -12.9030   23.0060 O.2    29  PHE29      -0.2864
     29  CB       -18.0680  -10.6450   24.5940 C.3    29  PHE29       0.0560
     30  CG       -17.9390   -9.2400   25.1280 C.ar   29  PHE29      -0.0200
     31  CD1      -18.4960   -8.1760   24.4510 C.ar   29  PHE29      -0.0042
     32  CD2      -17.2930   -9.0000   26.2970 C.ar   29  PHE29      -0.0042
     33  CE1      -18.4010   -6.8870   24.9250 C.ar   29  PHE29      -0.0003
     34  CE2      -17.2680   -7.7180   26.8360 C.ar   29  PHE29      -0.0003
     35  CZ       -17.7840   -6.6580   26.1380 C.ar   29  PHE29      -0.0000
     36  N        -22.0460  -14.5510   23.0570 N.3    31  GLN31      -0.1231
     37  CA       -23.0270  -14.7960   22.0540 C.3    31  GLN31       0.1683
     38  C        -23.4100  -13.4220   21.4740 C.2    31  GLN31       0.2434
     39  O        -23.0670  -12.3890   22.0810 O.2    31  GLN31      -0.2733
     40  CB       -24.2890  -15.5080   22.6490 C.3    31  GLN31       0.0380
     41  CG       -25.0610  -14.6890   23.7050 C.3    31  GLN31       0.0905
     42  CD       -24.2680  -14.6510   25.0200 C.2    31  GLN31       0.2608
     43  OE1      -23.9840  -15.7360   25.5840 O.2    31  GLN31      -0.2717
     44  NE2      -23.8630  -13.4250   25.5010 N.am   31  GLN31      -0.0878
     45  N        -24.1660  -13.4070   20.3460 N.am   32  PRO32      -0.2718
     46  CA       -24.6410  -12.1430   19.7790 C.3    32  PRO32       0.1535
     47  C        -25.3680  -11.3310   20.7870 C.2    32  PRO32       0.2598
     48  O        -26.0820  -11.8620   21.6360 O.2    32  PRO32      -0.2715
     49  CB       -25.5250  -12.5630   18.5740 C.3    32  PRO32       0.0310
     50  CG       -24.9220  -13.8670   18.1400 C.3    32  PRO32       0.0237
     51  CD       -24.4510  -14.5540   19.4270 C.3    32  PRO32       0.0939
     52  N        -25.1370  -10.0300   20.7330 N.am   33  VAL33      -0.1964
     53  CA       -26.0420   -9.1490   21.4590 C.3    33  VAL33       0.1727
     54  C        -27.5070   -9.5060   21.1360 C.2    33  VAL33       0.2616
     55  O        -27.9140   -9.6000   19.9710 O.2    33  VAL33      -0.2715
     56  CB       -25.7570   -7.6620   21.1770 C.3    33  VAL33       0.0290
     57  CG1      -26.8380   -6.7840   21.8010 C.3    33  VAL33       0.0023
     58  CG2      -24.3060   -7.2980   21.5480 C.3    33  VAL33       0.0023
     59  N        -28.3010   -9.7480   22.1710 N.am   34  SER34      -0.1950
     60  CA       -29.7110  -10.1480   21.9770 C.3    34  SER34       0.1924
     61  C        -30.5490   -9.1030   21.3600 C.2    34  SER34       0.2314
     62  O        -30.6290   -7.9940   21.8750 O.2    34  SER34      -0.2863
     63  CB       -30.3710  -10.4940   23.3410 C.3    34  SER34       0.2116
     64  OG       -31.7610  -10.6810   23.1390 O.3    34  SER34      -0.2180
     65  N        -33.4420   -8.1630   23.6990 N.3    37  GLU37      -0.1231
     66  CA       -33.1370   -7.2010   24.7480 C.3    37  GLU37       0.1699
     67  C        -32.8570   -5.8190   24.1710 C.2    37  GLU37       0.2592
     68  O        -33.0890   -4.8600   24.8290 O.2    37  GLU37      -0.2718
     69  CB       -31.9400   -7.6440   25.6060 C.3    37  GLU37       0.0402
     70  CG       -32.0400   -9.0490   26.2280 C.3    37  GLU37       0.1161
     71  CD       -33.1620   -9.1650   27.2850 C.2    37  GLU37       0.3649
     72  OE1      -33.5110   -8.1190   27.7960 O.co2  37  GLU37      -0.2457
     73  OE2      -33.6760  -10.3120   27.5500 O.co2  37  GLU37      -0.2457
     74  N        -32.2640   -5.7580   22.9720 N.am   38  VAL38      -0.1980
     75  CA       -31.8250   -4.5490   22.3500 C.3    38  VAL38       0.1595
     76  C        -32.3900   -4.4970   20.9110 C.2    38  VAL38       0.2287
     77  O        -31.6690   -4.7170   19.9370 O.2    38  VAL38      -0.2864
     78  CB       -30.3010   -4.4930   22.3150 C.3    38  VAL38       0.0276
     79  CG1      -29.8840   -3.0720   22.0160 C.3    38  VAL38       0.0022
     80  CG2      -29.7140   -4.9340   23.6550 C.3    38  VAL38       0.0022
     81  N        -30.5780   -2.5600   18.0730 N.3    41  TYR41      -0.1241
     82  CA       -29.1090   -2.6750   18.0360 C.3    41  TYR41       0.1605
     83  C        -28.5900   -2.5380   16.5920 C.2    41  TYR41       0.2264
     84  O        -27.5990   -1.8520   16.3710 O.2    41  TYR41      -0.2867
     85  CB       -28.6630   -3.9900   18.6580 C.3    41  TYR41       0.0534
     86  CG       -27.1810   -4.1490   18.7870 C.ar   41  TYR41      -0.0201
     87  CD1      -26.4430   -3.3960   19.6970 C.ar   41  TYR41      -0.0009
     88  CD2      -26.4870   -5.1090   18.0490 C.ar   41  TYR41      -0.0009
     89  CE1      -25.0570   -3.5290   19.8060 C.ar   41  TYR41       0.0417
     90  CE2      -25.1180   -5.2620   18.1750 C.ar   41  TYR41       0.0417
     91  CZ       -24.3910   -4.4810   19.0890 C.ar   41  TYR41       0.1957
     92  OH       -23.0100   -4.5980   19.1920 O.3    41  TYR41      -0.2866
     93  N        -19.0060   -2.4390   21.2070 N.3    80  CYS80      -0.1235
     94  CA       -19.4180   -2.1800   22.5940 C.3    80  CYS80       0.1677
     95  C        -19.1160   -0.7670   23.0990 C.2    80  CYS80       0.2270
     96  O        -19.9580   -0.1430   23.8020 O.2    80  CYS80      -0.2867
     97  CB       -18.8390   -3.2660   23.4330 C.3    80  CYS80       0.0956
     98  SG       -19.4270   -3.3150   25.1280 S.3    80  CYS80      -0.0801
     99  N        -21.8220    1.6240   21.2590 N.3    83  TYR83      -0.1227
    100  CA       -23.2130    1.4950   21.6710 C.3    83  TYR83       0.1736
    101  C        -23.4340    1.9470   23.1060 C.2    83  TYR83       0.2595
    102  O        -24.4350    2.6730   23.4010 O.2    83  TYR83      -0.2718
    103  CB       -23.7120    0.0520   21.4710 C.3    83  TYR83       0.0548
    104  CG       -25.1900   -0.0700   21.7070 C.ar   83  TYR83      -0.0200
    105  CD1      -26.1060    0.2490   20.7180 C.ar   83  TYR83      -0.0009
    106  CD2      -25.6790   -0.3090   22.9790 C.ar   83  TYR83      -0.0009
    107  CE1      -27.4510    0.2430   20.9680 C.ar   83  TYR83       0.0417
    108  CE2      -27.0350   -0.3230   23.2450 C.ar   83  TYR83       0.0417
    109  CZ       -27.9130   -0.0270   22.2420 C.ar   83  TYR83       0.1957
    110  OH       -29.2720   -0.0030   22.5180 O.3    83  TYR83      -0.2866
    111  N        -22.5170    1.5770   23.9880 N.am   84  ASN84      -0.1974
    112  CA       -22.7140    1.8160   25.4550 C.3    84  ASN84       0.1688
    113  C        -21.9770    3.0450   25.9470 C.2    84  ASN84       0.2292
    114  O        -20.8640    3.3470   25.5200 O.2    84  ASN84      -0.2864
    115  CB       -22.2970    0.6000   26.2580 C.3    84  ASN84       0.1181
    116  CG       -23.0170   -0.6030   25.8460 C.2    84  ASN84       0.2629
    117  OD1      -24.1540   -0.7980   26.2370 O.2    84  ASN84      -0.2716
    118  ND2      -22.4060   -1.4120   24.9840 N.am   84  ASN84      -0.0877
    119  N        -21.2140   -2.8680   30.5680 N.3    90  PHE90      -0.1241
    120  CA       -20.7940   -3.2590   29.2070 C.3    90  PHE90       0.1605
    121  C        -19.5400   -2.5690   28.7170 C.2    90  PHE90       0.2264
    122  O        -18.6170   -3.2360   28.2590 O.2    90  PHE90      -0.2867
    123  CB       -21.9260   -3.0110   28.2440 C.3    90  PHE90       0.0534
    124  CG       -23.1920   -3.7370   28.6070 C.ar   90  PHE90      -0.0203
    125  CD1      -23.3160   -5.0880   28.4060 C.ar   90  PHE90      -0.0042
    126  CD2      -24.2690   -3.0390   29.1600 C.ar   90  PHE90      -0.0042
    127  CE1      -24.4760   -5.7560   28.7980 C.ar   90  PHE90      -0.0003
    128  CE2      -25.4280   -3.6850   29.5760 C.ar   90  PHE90      -0.0003
    129  CZ       -25.5500   -5.0440   29.3760 C.ar   90  PHE90      -0.0000
@<TRIPOS>BOND
     1    84    83    2
     2    83    82    1
     3    82    81    1
     4    82    85    1
     5    88    90   ar
     6    88    86   ar
     7    50    49    1
     8    50    51    1
     9    90    91   ar
    10    49    46    1
    11    85    86    1
    12    86    87   ar
    13    91    92    1
    14    91    89   ar
    15    51    45    1
    16    87    89   ar
    17    46    45    1
    18    46    47    1
    19    77    76    2
    20    55    54    2
    21    45    38   am
    22   105   107   ar
    23   105   104   ar
    24    52    47   am
    25    52    53    1
    26    47    48    2
    27    76    75    1
    28   107   109   ar
    29    54    53    1
    30    54    59   am
    31    56    53    1
    32    56    58    1
    33    56    57    1
    34    93    94    1
    35    99   100    1
    36    61    62    2
    37    61    60    1
    38   103   100    1
    39   103   104    1
    40    38    37    1
    41    38    39    2
    42   100   101    1
    43   104   106   ar
    44    60    59    1
    45    60    63    1
    46    79    78    1
    47    37    40    1
    48    37    36    1
    49   109   110    1
    50   109   108   ar
    51    78    75    1
    52    78    80    1
    53    75    74    1
    54    94    95    1
    55    94    97    1
    56    40    41    1
    57    74    67   am
    58   106   108   ar
    59    28    27    2
    60    95    96    2
    61   101   102    2
    62   101   111   am
    63    64    63    1
    64    97    98    1
    65    65    66    1
    66    41    42    1
    67   111   112    1
    68    27    26    1
    69    67    66    1
    70    67    68    2
    71    31    33   ar
    72    31    30   ar
    73    29    26    1
    74    29    30    1
    75    26    25    1
    76    66    69    1
    77    33    35   ar
    78   118   116   am
    79    42    44   am
    80    42    43    2
    81    30    32   ar
    82   112   113    1
    83   112   115    1
    84   114   113    2
    85    69    70    1
    86    20    19    2
    87   116   117    2
    88   116   115    1
    89    25    19   am
    90    35    34   ar
    91    70    71    1
    92    32    34   ar
    93    19    18    1
    94    16    14    1
    95    71    73   ar
    96    71    72   ar
    97     9     8    2
    98    23    21    1
    99    18    21    1
   100    18    17    1
   101    14    15    1
   102    14    13    2
   103   123   124    1
   104   123   120    1
   105   122   121    2
   106   125   124   ar
   107   125   127   ar
   108     8    17   am
   109     8     7    1
   110   124   126   ar
   111    21    22    1
   112   121   120    1
   113    13    12    1
   114   127   129   ar
   115   126   128   ar
   116   120   119    1
   117     7    10    1
   118     7     6    1
   119   129   128   ar
   120    10    11    1
   121    12    11    1
   122    22    24    1
   123     6     3   am
   124     4     3    2
   125     3     2    1
   126     2     1    1
   127     2     5    1
