@<TRIPOS>MOLECULE
tmp/5n4hA00.pdb
 103 98 0 0 0
SMALL
GASTEIGER

@<TRIPOS>ATOM
      1  N        -20.9300   -2.1640  -21.9270 N.3    17  ARG17      -0.1245
      2  CA       -20.7450   -3.5820  -21.6960 C.3    17  ARG17       0.1563
      3  C        -19.7070   -4.1280  -22.6510 C.2    17  ARG17       0.2260
      4  O        -19.6810   -3.7210  -23.8180 O.2    17  ARG17      -0.2867
      5  CB       -22.0530   -4.3510  -21.8750 C.3    17  ARG17       0.0307
      6  CG       -23.1600   -3.9490  -20.9000 C.3    17  ARG17       0.0489
      7  CD       -22.8350   -4.3450  -19.5260 C.3    17  ARG17       0.2205
      8  NE       -22.8230   -5.7940  -19.3820 N.pl3  17  ARG17      -0.0865
      9  CZ       -23.9190   -6.5270  -19.2010 C.cat  17  ARG17       0.5346
     10  NH1      -23.8160   -7.8460  -19.1000 N.pl3  17  ARG17       0.1354
     11  NH2      -25.1170   -5.9390  -19.1050 N.pl3  17  ARG17       0.1354
     12  N        -28.2490   -1.3040  -20.9810 N.3   101  ASP101     -0.1239
     13  CA       -28.2530   -2.6500  -20.4360 C.3   101  ASP101      0.1674
     14  C        -29.2040   -2.7810  -19.2620 C.2   101  ASP101      0.2266
     15  O        -29.3940   -3.8930  -18.7620 O.2   101  ASP101     -0.2867
     16  CB       -26.8300   -3.0740  -20.0250 C.3   101  ASP101      0.1410
     17  CG       -26.4160   -2.5760  -18.6460 C.2   101  ASP101      0.3668
     18  OD1      -27.0200   -1.6130  -18.1090 O.co2 101  ASP101     -0.2456
     19  OD2      -25.4510   -3.1660  -18.1210 O.co2 101  ASP101     -0.2456
     20  N        -29.0330   -2.2080  -16.3160 N.3   103  ASN103     -0.1225
     21  CA       -28.3670   -2.7420  -15.1540 C.3   103  ASN103      0.1785
     22  C        -28.5400   -4.2340  -14.9810 C.2   103  ASN103      0.2597
     23  O        -28.2660   -4.7520  -13.9400 O.2   103  ASN103     -0.2718
     24  CB       -28.8290   -2.0180  -13.9060 C.3   103  ASN103      0.1169
     25  CG       -28.3170   -0.6150  -13.8350 C.2   103  ASN103      0.2627
     26  OD1      -27.1360   -0.3620  -13.9490 O.2   103  ASN103     -0.2716
     27  ND2      -29.2150    0.3010  -13.6330 N.am  103  ASN103     -0.0877
     28  N        -28.9330   -4.9190  -16.0430 N.am  104  GLU104     -0.1966
     29  CA       -29.1580   -6.3540  -16.0020 C.3   104  GLU104      0.1718
     30  C        -28.0620   -7.0930  -16.7550 C.2   104  GLU104      0.2458
     31  O        -27.8320   -6.8070  -17.9430 O.2   104  GLU104     -0.2730
     32  CB       -30.5190   -6.7130  -16.6130 C.3   104  GLU104      0.0428
     33  CG       -31.7060   -6.3440  -15.7430 C.3   104  GLU104      0.1163
     34  CD       -31.8030   -7.1960  -14.4800 C.2   104  GLU104      0.3649
     35  OE1      -30.9340   -8.0720  -14.2620 O.co2 104  GLU104     -0.2457
     36  OE2      -32.7690   -7.0020  -13.7260 O.co2 104  GLU104     -0.2457
     37  N        -27.3820   -8.0500  -16.1090 N.am  105  PRO105     -0.2727
     38  CA       -26.4190   -8.8840  -16.8530 C.3   105  PRO105      0.1402
     39  C        -26.9780   -9.4110  -18.1680 C.2   105  PRO105      0.2269
     40  O        -26.2460   -9.4750  -19.1690 O.2   105  PRO105     -0.2865
     41  CB       -26.1180  -10.0100  -15.8570 C.3   105  PRO105      0.0296
     42  CG       -26.3250   -9.3800  -14.4890 C.3   105  PRO105      0.0237
     43  CD       -27.4490   -8.4060  -14.6690 C.3   105  PRO105      0.0939
     44  N        -27.4440   -2.2750   -7.1750 N.3   116  VAL116     -0.1245
     45  CA       -26.2290   -2.0840   -7.9560 C.3   116  VAL116      0.1561
     46  C        -25.1070   -1.5720   -7.0620 C.2   116  VAL116      0.2260
     47  O        -25.2940   -0.5870   -6.3240 O.2   116  VAL116     -0.2867
     48  CB       -26.4850   -1.0850   -9.0880 C.3   116  VAL116      0.0252
     49  CG1      -25.1850   -0.7830   -9.8670 C.3   116  VAL116      0.0019
     50  CG2      -27.5780   -1.5970   -9.9970 C.3   116  VAL116      0.0019
     51  N        -17.5610  -10.8760  -10.2360 N.3   146  VAL146     -0.1245
     52  CA       -18.4590  -10.8830  -11.3790 C.3   146  VAL146      0.1561
     53  C        -17.5980  -10.9690  -12.6250 C.2   146  VAL146      0.2260
     54  O        -16.5350  -10.3420  -12.6820 O.2   146  VAL146     -0.2867
     55  CB       -19.3120   -9.5930  -11.3780 C.3   146  VAL146      0.0252
     56  CG1      -20.1500   -9.5010  -12.6080 C.3   146  VAL146      0.0019
     57  CG2      -20.2020   -9.6140  -10.1520 C.3   146  VAL146      0.0019
     58  N        -20.2930   -9.1580  -17.3170 N.3   150  ASN150     -0.1240
     59  CA       -21.4440   -8.7460  -16.5380 C.3   150  ASN150      0.1653
     60  C        -21.2040   -7.4730  -15.7250 C.2   150  ASN150      0.2266
     61  O        -22.0510   -7.1010  -14.9370 O.2   150  ASN150     -0.2867
     62  CB       -21.8700   -9.9020  -15.6270 C.3   150  ASN150      0.1155
     63  CG       -22.5520  -11.0090  -16.4070 C.2   150  ASN150      0.2627
     64  OD1      -23.1930  -10.7660  -17.4440 O.2   150  ASN150     -0.2716
     65  ND2      -22.3770  -12.2370  -15.9510 N.am  150  ASN150     -0.0877
     66  N        -20.4120   -3.2050  -15.8860 N.3   152  LYS152     -0.1245
     67  CA       -20.7790   -2.0540  -16.6990 C.3   152  LYS152      0.1561
     68  C        -19.7680   -0.9530  -16.4270 C.2   152  LYS152      0.2260
     69  O        -19.3370   -0.7510  -15.2930 O.2   152  LYS152     -0.2867
     70  CB       -22.1620   -1.5920  -16.4040 C.3   152  LYS152      0.0271
     71  CG       -22.6070   -0.3810  -17.2120 C.3   152  LYS152      0.0035
     72  CD       -24.0470    0.0310  -16.8010 C.3   152  LYS152      0.0206
     73  CE       -24.5580    1.1460  -17.6700 C.3   152  LYS152      0.1093
     74  NZ       -25.9420    1.5040  -17.2990 N.3   152  LYS152     -0.1314
     75  N        -19.7350   -0.6720  -12.4890 N.3   185  SER185     -0.1202
     76  CA       -20.8220   -1.1550  -11.6580 C.3   185  SER185      0.2020
     77  C        -21.2230   -2.5820  -12.0010 C.2   185  SER185      0.2619
     78  O        -20.9290   -3.1190  -13.0710 O.2   185  SER185     -0.2717
     79  CB       -22.0680   -0.2390  -11.7430 C.3   185  SER185      0.2103
     80  OG       -22.5850   -0.2720  -13.1010 O.3   185  SER185     -0.2182
     81  N        -21.9000   -3.2070  -11.0430 N.am  186  TRP186     -0.1961
     82  CA       -22.4450   -4.5340  -11.2500 C.3   186  TRP186      0.1771
     83  C        -23.6320   -4.7760  -10.3350 C.2   186  TRP186      0.2619
     84  O        -23.8160   -4.0810   -9.3280 O.2   186  TRP186     -0.2715
     85  CB       -21.3870   -5.6100  -11.0200 C.3   186  TRP186      0.0590
     86  CG       -20.7350   -5.6400   -9.6600 C.ar  186  TRP186      0.0006
     87  CD1      -21.1240   -6.3890   -8.5980 C.ar  186  TRP186      0.0946
     88  CD2      -19.5650   -4.9400   -9.2620 C.ar  186  TRP186      0.0152
     89  NE1      -20.2460   -6.2100   -7.5690 N.ar  186  TRP186     -0.2442
     90  CE2      -19.2910   -5.3050   -7.9240 C.ar  186  TRP186      0.0810
     91  CE3      -18.7260   -4.0180   -9.8860 C.ar  186  TRP186      0.0012
     92  CZ2      -18.1930   -4.7790   -7.2210 C.ar  186  TRP186      0.0191
     93  CZ3      -17.6590   -3.5090   -9.2090 C.ar  186  TRP186      0.0001
     94  CH2      -17.3770   -3.8960   -7.8810 C.ar  186  TRP186      0.0015
     95  N        -24.4210   -5.7990  -10.6950 N.am  187  LYS187     -0.1977
     96  CA       -25.6220   -6.1640   -9.9390 C.3   187  LYS187      0.1596
     97  C        -25.2860   -7.0620   -8.7570 C.2   187  LYS187      0.2287
     98  O        -24.5460   -8.0530   -8.8800 O.2   187  LYS187     -0.2864
     99  CB       -26.6240   -6.8720  -10.8640 C.3   187  LYS187      0.0298
    100  CG       -27.8680   -7.3470  -10.2430 C.3   187  LYS187      0.0038
    101  CD       -28.7490   -7.9990  -11.2940 C.3   187  LYS187      0.0206
    102  CE       -30.0290   -8.5140  -10.6610 C.3   187  LYS187      0.1093
    103  NZ       -30.8760   -9.2330  -11.6650 N.3   187  LYS187     -0.1314
@<TRIPOS>BOND
     1     4     3    2
     2     3     2    1
     3     1     2    1
     4     5     2    1
     5     5     6    1
     6    12    13    1
     7     6     7    1
     8    13    16    1
     9    13    14    1
    10    16    17    1
    11     7     8    1
    12     8     9    2
    13    14    15    2
    14     9    11    1
    15     9    10    1
    16    40    39    2
    17    17    19   ar
    18    17    18   ar
    19    39    38    1
    20    31    30    2
    21    73    74    1
    22    73    72    1
    23    64    63    2
    24    58    59    1
    25    71    72    1
    26    71    70    1
    27    38    37    1
    28    38    41    1
    29    30    37   am
    30    30    29    1
    31    67    68    1
    32    67    70    1
    33    67    66    1
    34    32    29    1
    35    32    33    1
    36    59    60    1
    37    59    62    1
    38    68    69    2
    39    63    65   am
    40    63    62    1
    41    20    21    1
    42    37    43    1
    43    28    29    1
    44    28    22   am
    45    41    42    1
    46    33    34    1
    47    60    61    2
    48    21    22    1
    49    21    24    1
    50    22    23    2
    51    43    42    1
    52    34    35   ar
    53    34    36   ar
    54    26    25    2
    55    24    25    1
    56    25    27   am
    57    80    79    1
    58    78    77    2
    59    54    53    2
    60    53    52    1
    61    56    55    1
    62    75    76    1
    63    77    76    1
    64    77    81   am
    65    79    76    1
    66   103   102    1
    67    52    55    1
    68    52    51    1
    69    55    57    1
    70   101   102    1
    71   101   100    1
    72    82    81    1
    73    82    85    1
    74    82    83    1
    75    85    86    1
    76    99   100    1
    77    99    96    1
    78    95    83   am
    79    95    96    1
    80    83    84    2
    81    50    48    1
    82    96    97    1
    83    91    88   ar
    84    91    93   ar
    85    49    48    1
    86    86    88   ar
    87    86    87   ar
    88    88    90   ar
    89    93    94   ar
    90    48    45    1
    91    98    97    2
    92    87    89   ar
    93    45    44    1
    94    45    46    1
    95    90    89   ar
    96    90    92   ar
    97    94    92   ar
    98    46    47    2
