@<TRIPOS>MOLECULE
tmp/5n4nA00.pdb
 135 126 0 0 0
SMALL
GASTEIGER

@<TRIPOS>ATOM
      1  N         91.3280   80.2850    0.0350 N.3    12  LEU12      -0.1231
      2  CA        91.8660   81.5680    0.4770 C.3    12  LEU12       0.1693
      3  C         90.8590   82.3390    1.3280 C.2    12  LEU12       0.2592
      4  O         91.2260   82.8990    2.3670 O.2    12  LEU12      -0.2718
      5  CB        92.2990   82.3990   -0.7270 C.3    12  LEU12       0.0284
      6  CG        93.4240   81.8130   -1.5850 C.3    12  LEU12       0.0019
      7  CD1       93.7980   82.7590   -2.7180 C.3    12  LEU12       0.0001
      8  CD2       94.6300   81.5240   -0.7210 C.3    12  LEU12       0.0001
      9  N         89.5980   82.3780    0.9130 N.am   13  GLY13      -0.1957
     10  CA        88.5710   83.0690    1.6800 C.3    13  GLY13       0.1869
     11  C         87.2130   82.8860    1.0340 C.2    13  GLY13       0.2309
     12  O         87.1040   82.4440   -0.1140 O.2    13  GLY13      -0.2863
     13  N         81.4040   87.4500   -2.0360 N.3    17  PHE17      -0.1241
     14  CA        81.9980   87.2820   -3.3590 C.3    17  PHE17       0.1605
     15  C         81.9640   85.8370   -3.8510 C.2    17  PHE17       0.2264
     16  O         82.0280   85.6060   -5.0600 O.2    17  PHE17      -0.2867
     17  CB        83.4490   87.7960   -3.3580 C.3    17  PHE17       0.0534
     18  CG        84.3010   87.2450   -2.2360 C.ar   17  PHE17      -0.0203
     19  CD1       84.3780   87.9030   -1.0130 C.ar   17  PHE17      -0.0042
     20  CD2       85.0410   86.0770   -2.4100 C.ar   17  PHE17      -0.0042
     21  CE1       85.1610   87.3960    0.0180 C.ar   17  PHE17      -0.0003
     22  CE2       85.8230   85.5610   -1.3750 C.ar   17  PHE17      -0.0003
     23  CZ        85.8900   86.2220   -0.1710 C.ar   17  PHE17      -0.0000
     24  N         87.0530   81.3430   -2.8810 N.3    20  VAL20      -0.1245
     25  CA        88.2580   81.5360   -3.6790 C.3    20  VAL20       0.1561
     26  C         89.3380   80.6070   -3.1570 C.2    20  VAL20       0.2260
     27  O         89.6240   80.6030   -1.9550 O.2    20  VAL20      -0.2867
     28  CB        88.7380   83.0010   -3.6440 C.3    20  VAL20       0.0252
     29  CG1       89.9740   83.1870   -4.5430 C.3    20  VAL20       0.0019
     30  CG2       87.6170   83.9380   -4.0690 C.3    20  VAL20       0.0019
     31  N         94.1940   82.2710   -8.8250 N.3    33  ALA33      -0.1245
     32  CA        93.1370   82.1580   -7.8320 C.3    33  ALA33       0.1562
     33  C         91.8860   81.6710   -8.5390 C.2    33  ALA33       0.2260
     34  O         91.5540   82.1460   -9.6260 O.2    33  ALA33      -0.2867
     35  CB        92.8640   83.4960   -7.1160 C.3    33  ALA33       0.0290
     36  N         87.9690   81.1900   -8.3580 N.3    35  LYS35      -0.1245
     37  CA        86.7930   81.7360   -7.6880 C.3    35  LYS35       0.1561
     38  C         85.5320   81.0600   -8.2130 C.2    35  LYS35       0.2260
     39  O         85.2790   81.0590   -9.4280 O.2    35  LYS35      -0.2867
     40  CB        86.7080   83.2550   -7.9000 C.3    35  LYS35       0.0271
     41  CG        85.5250   83.9230   -7.1980 C.3    35  LYS35       0.0035
     42  CD        85.4900   85.4220   -7.5330 C.3    35  LYS35       0.0206
     43  CE        84.6590   86.2070   -6.5410 C.3    35  LYS35       0.1093
     44  NZ        84.5290   87.6530   -6.9080 N.3    35  LYS35      -0.1314
     45  N         93.2470   92.9100  -10.7410 N.3    72  ILE72      -0.1245
     46  CA        93.4890   91.4700  -10.8470 C.3    72  ILE72       0.1561
     47  C         92.7520   90.9520  -12.0790 C.2    72  ILE72       0.2260
     48  O         91.5210   91.0470  -12.1700 O.2    72  ILE72      -0.2867
     49  CB        93.0390   90.7260   -9.5830 C.3    72  ILE72       0.0252
     50  CG1       94.0290   90.9290   -8.4230 C.3    72  ILE72       0.0019
     51  CG2       92.8640   89.2300   -9.8730 C.3    72  ILE72       0.0019
     52  CD1       95.4300   90.4380   -8.6930 C.3    72  ILE72       0.0001
     53  N         91.6970   83.6750  -12.0200 N.3    88  LEU88      -0.1231
     54  CA        92.2290   85.0160  -11.8570 C.3    88  LEU88       0.1693
     55  C         93.7200   84.9510  -11.5470 C.2    88  LEU88       0.2592
     56  O         94.2220   83.9360  -11.0670 O.2    88  LEU88      -0.2718
     57  CB        91.4870   85.7530  -10.7350 C.3    88  LEU88       0.0284
     58  CG        89.9720   85.8540  -10.9410 C.3    88  LEU88       0.0019
     59  CD1       89.2500   85.8080   -9.6120 C.3    88  LEU88       0.0001
     60  CD2       89.6240   87.1260  -11.6910 C.3    88  LEU88       0.0001
     61  N         94.4290   86.0420  -11.8460 N.am   89  GLU89      -0.1966
     62  CA        95.8330   86.1440  -11.4630 C.3    89  GLU89       0.1733
     63  C         95.9710   86.0210   -9.9530 C.2    89  GLU89       0.2616
     64  O         95.0680   86.3870   -9.1950 O.2    89  GLU89      -0.2715
     65  CB        96.4320   87.4850  -11.8820 C.3    89  GLU89       0.0429
     66  CG        96.5690   87.7430  -13.3620 C.3    89  GLU89       0.1163
     67  CD        97.0940   89.1580  -13.6290 C.2    89  GLU89       0.3649
     68  OE1       96.5540   90.1260  -13.0210 O.co2  89  GLU89      -0.2457
     69  OE2       98.0540   89.2980  -14.4260 O.co2  89  GLU89      -0.2457
     70  N         97.1200   85.5230   -9.5090 N.am   90  ARG90      -0.1964
     71  CA        97.4340   85.5110   -8.0790 C.3    90  ARG90       0.1714
     72  C         98.8570   86.0050   -7.8690 C.2    90  ARG90       0.2458
     73  O         99.8180   85.2340   -8.0280 O.2    90  ARG90      -0.2730
     74  CB        97.2490   84.1300   -7.4740 C.3    90  ARG90       0.0347
     75  CG        97.6540   84.0710   -6.0030 C.3    90  ARG90       0.0492
     76  CD        97.1410   82.8050   -5.3550 C.3    90  ARG90       0.2205
     77  NE        97.6290   81.5920   -6.0030 N.pl3  90  ARG90      -0.0865
     78  CZ        98.7850   81.0030   -5.6940 C.cat  90  ARG90       0.5346
     79  NH1       99.5760   81.5340   -4.7680 N.pl3  90  ARG90       0.1354
     80  NH2       99.1530   79.8970   -6.3100 N.pl3  90  ARG90       0.1354
     81  N         99.0360   87.2730   -7.5450 N.am   91  PRO91      -0.2716
     82  CA       100.3640   87.7500   -7.1600 C.3    91  PRO91       0.1536
     83  C        100.8150   87.0960   -5.8660 C.2    91  PRO91       0.2598
     84  O        100.0030   86.6860   -5.0310 O.2    91  PRO91      -0.2715
     85  CB       100.1650   89.2590   -6.9800 C.3    91  PRO91       0.0310
     86  CG        98.6890   89.4380   -6.7760 C.3    91  PRO91       0.0237
     87  CD        98.0190   88.3330   -7.5260 C.3    91  PRO91       0.0939
     88  N        102.1330   86.9890   -5.7170 N.am   92  GLU92      -0.1978
     89  CA       102.7470   86.3970   -4.5260 C.3    92  GLU92       0.1602
     90  C        104.0790   87.0810   -4.2050 C.2    92  GLU92       0.2287
     91  O        104.8990   87.2780   -5.0980 O.2    92  GLU92      -0.2864
     92  CB       102.9800   84.8890   -4.7200 C.3    92  GLU92       0.0415
     93  CG       101.7320   84.0190   -4.6090 C.3    92  GLU92       0.1163
     94  CD       100.9920   84.2110   -3.2870 C.2    92  GLU92       0.3649
     95  OE1       99.7420   84.2320   -3.3040 O.co2  92  GLU92      -0.2457
     96  OE2      101.6600   84.3430   -2.2320 O.co2  92  GLU92      -0.2457
     97  N        101.2410   88.3530   -1.1010 N.3    94  VAL94      -0.1245
     98  CA       100.2210   89.3980   -1.0610 C.3    94  VAL94       0.1561
     99  C         99.6440   89.5150    0.3340 C.2    94  VAL94       0.2260
    100  O         99.6780   88.5750    1.1270 O.2    94  VAL94      -0.2867
    101  CB        99.0380   89.1630   -2.0230 C.3    94  VAL94       0.0252
    102  CG1       99.4830   89.2690   -3.4370 C.3    94  VAL94       0.0019
    103  CG2       98.3700   87.8190   -1.7250 C.3    94  VAL94       0.0019
    104  N         88.9600   95.2650   -0.7620 N.3   140  ASN140     -0.1240
    105  CA        88.9880   94.8640   -2.1690 C.3   140  ASN140      0.1653
    106  C         90.2490   95.3190   -2.8870 C.2   140  ASN140      0.2266
    107  O         90.2380   95.4910   -4.1120 O.2   140  ASN140     -0.2867
    108  CB        87.7340   95.3620   -2.8870 C.3   140  ASN140      0.1155
    109  CG        86.5010   94.5820   -2.4570 C.2   140  ASN140      0.2627
    110  OD1       86.6310   93.4290   -2.0610 O.2   140  ASN140     -0.2716
    111  ND2       85.3170   95.1920   -2.5260 N.am  140  ASN140     -0.0877
    112  N         94.4280   94.2970   -3.1060 N.3   142  LEU142     -0.1245
    113  CA        95.5630   93.4650   -2.7280 C.3   142  LEU142      0.1561
    114  C         96.8630   94.2270   -2.9560 C.2   142  LEU142      0.2260
    115  O         96.9930   94.9740   -3.9330 O.2   142  LEU142     -0.2867
    116  CB        95.5800   92.1540   -3.5140 C.3   142  LEU142      0.0270
    117  CG        94.3390   91.2600   -3.4550 C.3   142  LEU142      0.0019
    118  CD1       94.5630   90.0090   -4.3060 C.3   142  LEU142      0.0001
    119  CD2       94.0050   90.8770   -2.0390 C.3   142  LEU142      0.0001
    120  N         90.1890   94.0200   -6.6940 N.3   153  ILE153     -0.1231
    121  CA        89.4720   92.7550   -6.8230 C.3   153  ILE153      0.1692
    122  C         87.9730   92.9510   -6.6150 C.2   153  ILE153      0.2592
    123  O         87.4980   94.0120   -6.2040 O.2   153  ILE153     -0.2718
    124  CB        89.9790   91.6740   -5.8400 C.3   153  ILE153      0.0266
    125  CG1       89.8340   92.1510   -4.3980 C.3   153  ILE153      0.0019
    126  CG2       91.4170   91.2850   -6.1410 C.3   153  ILE153      0.0020
    127  CD1       90.2220   91.0680   -3.3780 C.3   153  ILE153      0.0001
    128  N         87.2390   91.8750   -6.9090 N.am  154  ASP154     -0.1974
    129  CA        85.8260   91.6830   -6.6050 C.3   154  ASP154      0.1709
    130  C         84.9140   92.6930   -7.2940 C.2   154  ASP154      0.2293
    131  O         84.4330   93.6530   -6.6700 O.2   154  ASP154     -0.2864
    132  CB        85.6010   91.6990   -5.0880 C.3   154  ASP154      0.1436
    133  CG        84.2280   91.1650   -4.7020 C.2   154  ASP154      0.3671
    134  OD1       83.9030   91.2000   -3.4920 O.co2 154  ASP154     -0.2456
    135  OD2       83.4690   90.7250   -5.6110 O.co2 154  ASP154     -0.2456
@<TRIPOS>BOND
     1    69    67   ar
     2    67    66    1
     3    67    68   ar
     4    66    65    1
     5    48    47    2
     6    47    46    1
     7    53    54    1
     8    65    62    1
     9    54    55    1
    10    54    57    1
    11    61    55   am
    12    61    62    1
    13    60    58    1
    14    55    56    2
    15    62    63    1
    16    58    57    1
    17    58    59    1
    18    46    45    1
    19    46    49    1
    20    63    70   am
    21    63    64    2
    22    51    49    1
    23    34    33    2
    24    49    50    1
    25    70    71    1
    26    39    38    2
    27    31    32    1
    28    52    50    1
    29    33    32    1
    30    36    37    1
    31    38    37    1
    32    71    72    1
    33    71    74    1
    34    73    72    2
    35    40    37    1
    36    40    41    1
    37    72    81   am
    38    32    35    1
    39    81    87    1
    40    81    82    1
    41    42    41    1
    42    42    43    1
    43    87    86    1
    44    74    75    1
    45   130   131    2
    46   130   129    1
    47    82    85    1
    48    82    83    1
    49    85    86    1
    50   128   122   am
    51   128   129    1
    52    44    43    1
    53   121   120    1
    54   121   122    1
    55   121   124    1
    56   122   123    2
    57   129   132    1
    58    80    78    1
    59   126   124    1
    60    77    78    2
    61    77    76    1
    62    75    76    1
    63    83    88   am
    64    83    84    2
    65   124   125    1
    66    88    89    1
    67    78    79    1
    68   135   133   ar
    69    91    90    2
    70   132   133    1
    71    16    15    2
    72    92    93    1
    73    92    89    1
    74   133   134   ar
    75    93    94    1
    76    29    28    1
    77    89    90    1
    78   125   127    1
    79   118   117    1
    80   107   106    2
    81    30    28    1
    82   115   114    2
    83    15    14    1
    84    25    28    1
    85    25    26    1
    86    25    24    1
    87   116   117    1
    88   116   113    1
    89   117   119    1
    90   102   101    1
    91    14    17    1
    92    14    13    1
    93    17    18    1
    94    95    94   ar
    95    94    96   ar
    96    26    27    2
    97   112   113    1
    98   114   113    1
    99   106   105    1
   100   108   109    1
   101   108   105    1
   102     7     6    1
   103   111   109   am
   104   109   110    2
   105    20    18   ar
   106    20    22   ar
   107    18    19   ar
   108   105   104    1
   109   101   103    1
   110   101    98    1
   111     6     5    1
   112     6     8    1
   113    22    23   ar
   114    97    98    1
   115    98    99    1
   116    19    21   ar
   117     5     2    1
   118    23    21   ar
   119    12    11    2
   120     1     2    1
   121    99   100    2
   122     2     3    1
   123     9     3   am
   124     9    10    1
   125    11    10    1
   126     3     4    2
