@<TRIPOS>MOLECULE
tmp/5n4oA01.pdb
 131 122 0 0 0
SMALL
GASTEIGER

@<TRIPOS>ATOM
      1  N       -139.7850   -5.1840   -7.9760 N.3    12  LEU12      -0.1245
      2  CA      -140.3260   -3.8870   -8.3720 C.3    12  LEU12       0.1561
      3  C       -139.3120   -3.0760   -9.1680 C.2    12  LEU12       0.2260
      4  O       -139.6930   -2.3140  -10.0660 O.2    12  LEU12      -0.2867
      5  CB      -140.7710   -3.0850   -7.1410 C.3    12  LEU12       0.0270
      6  CG      -141.9380   -3.5870   -6.3360 C.3    12  LEU12       0.0019
      7  CD1     -142.0480   -3.3380   -4.9380 C.3    12  LEU12       0.0001
      8  CD2     -143.1560   -3.9470   -7.0980 C.3    12  LEU12       0.0001
      9  N       -135.3670   -4.3100   -5.1220 N.3    18  VAL18      -0.1245
     10  CA      -136.5790   -4.0560   -4.3470 C.3    18  VAL18       0.1561
     11  C       -137.6930   -4.9560   -4.8500 C.2    18  VAL18       0.2260
     12  O       -138.0450   -4.9110   -6.0370 O.2    18  VAL18      -0.2867
     13  CB      -137.0030   -2.5840   -4.4300 C.3    18  VAL18       0.0252
     14  CG1     -138.2330   -2.3480   -3.5550 C.3    18  VAL18       0.0019
     15  CG2     -135.8500   -1.6820   -4.0170 C.3    18  VAL18       0.0019
     16  N       -142.6630   -3.2410    0.7040 N.3    31  ALA31      -0.1245
     17  CA      -141.5770   -3.3480   -0.2520 C.3    31  ALA31       0.1562
     18  C       -140.3550   -3.8670    0.4890 C.2    31  ALA31       0.2260
     19  O       -140.0610   -3.4260    1.6010 O.2    31  ALA31      -0.2867
     20  CB      -141.2810   -2.0030   -0.9370 C.3    31  ALA31       0.0290
     21  N       -136.3800   -4.4130    0.3730 N.3    33  LYS33      -0.1245
     22  CA      -135.1910   -3.8570   -0.2560 C.3    33  LYS33       0.1561
     23  C       -133.9440   -4.5550    0.2650 C.2    33  LYS33       0.2260
     24  O       -133.7180   -4.6100    1.4790 O.2    33  LYS33      -0.2867
     25  CB      -135.0870   -2.3540    0.0110 C.3    33  LYS33       0.0271
     26  CG      -133.9190   -1.6910   -0.7120 C.3    33  LYS33       0.0035
     27  CD      -133.9000   -0.1930   -0.4290 C.3    33  LYS33       0.0206
     28  CE      -132.9570    0.5640   -1.3600 C.3    33  LYS33       0.1093
     29  NZ      -132.8720    2.0090   -0.9430 N.3    33  LYS33      -0.1314
     30  N       -128.3470    4.4760    5.6100 N.3    55  GLU55      -0.1245
     31  CA      -129.7300    4.4650    5.1480 C.3    55  GLU55       0.1567
     32  C       -130.6750    3.9640    6.2350 C.2    55  GLU55       0.2260
     33  O       -131.7550    4.5320    6.4380 O.2    55  GLU55      -0.2867
     34  CB      -129.8610    3.6130    3.8780 C.3    55  GLU55       0.0388
     35  CG      -131.2940    3.4170    3.3950 C.3    55  GLU55       0.1160
     36  CD      -131.3860    2.7950    2.0030 C.2    55  GLU55       0.3649
     37  OE1     -130.3590    2.2970    1.4770 O.co2  55  GLU55      -0.2457
     38  OE2     -132.4980    2.8020    1.4200 O.co2  55  GLU55      -0.2457
     39  N       -133.5440    6.3190    7.9840 N.3    59  LEU59      -0.1245
     40  CA      -134.9380    5.8940    7.8970 C.3    59  LEU59       0.1561
     41  C       -135.5850    5.8360    9.2740 C.2    59  LEU59       0.2260
     42  O       -136.7290    6.2730    9.4450 O.2    59  LEU59      -0.2867
     43  CB      -135.0350    4.5450    7.1780 C.3    59  LEU59       0.0270
     44  CG      -134.9550    4.6580    5.6460 C.3    59  LEU59       0.0019
     45  CD1     -134.7180    3.3170    4.9460 C.3    59  LEU59       0.0001
     46  CD2     -136.2120    5.3170    5.0980 C.3    59  LEU59       0.0001
     47  N       -141.4840    7.6630    3.2220 N.3    70  ILE70      -0.1245
     48  CA      -141.6230    6.2150    3.3100 C.3    70  ILE70       0.1561
     49  C       -141.2140    5.7490    4.7010 C.2    70  ILE70       0.2260
     50  O       -140.2430    6.2400    5.2870 O.2    70  ILE70      -0.2867
     51  CB      -140.7610    5.5550    2.2260 C.3    70  ILE70       0.0252
     52  CG1     -141.3460    4.2000    1.8240 C.3    70  ILE70       0.0019
     53  CG2     -139.2500    5.5360    2.6770 C.3    70  ILE70       0.0019
     54  CD1     -142.6440    4.3470    1.0720 C.3    70  ILE70       0.0001
     55  N       -140.1700   -1.9320    3.9270 N.3    86  LEU86      -0.1231
     56  CA      -140.6860   -0.5830    3.7900 C.3    86  LEU86       0.1693
     57  C       -142.1820   -0.6290    3.5070 C.2    86  LEU86       0.2592
     58  O       -142.7130   -1.6340    3.0330 O.2    86  LEU86      -0.2718
     59  CB      -139.9510    0.1760    2.6640 C.3    86  LEU86       0.0284
     60  CG      -138.4320    0.2360    2.8930 C.3    86  LEU86       0.0019
     61  CD1     -137.6550    0.0300    1.6110 C.3    86  LEU86       0.0001
     62  CD2     -138.0390    1.5680    3.5450 C.3    86  LEU86       0.0001
     63  N       -142.8560    0.4740    3.8310 N.am   87  GLU87      -0.1966
     64  CA      -144.2190    0.6890    3.3650 C.3    87  GLU87       0.1733
     65  C       -144.3010    0.5110    1.8600 C.2    87  GLU87       0.2616
     66  O       -143.3650    0.8310    1.1200 O.2    87  GLU87      -0.2715
     67  CB      -144.6990    2.1050    3.6990 C.3    87  GLU87       0.0429
     68  CG      -145.2040    2.3140    5.1140 C.3    87  GLU87       0.1163
     69  CD      -145.7500    3.7320    5.3110 C.2    87  GLU87       0.3649
     70  OE1     -145.1620    4.6960    4.7380 O.co2  87  GLU87      -0.2457
     71  OE2     -146.7720    3.8730    6.0290 O.co2  87  GLU87      -0.2457
     72  N       -145.4450    0.0220    1.3990 N.am   88  ARG88      -0.1964
     73  CA      -145.7560    0.0350   -0.0300 C.3    88  ARG88       0.1714
     74  C       -147.1810    0.5260   -0.2200 C.2    88  ARG88       0.2458
     75  O       -148.1400   -0.2240    0.0270 O.2    88  ARG88      -0.2730
     76  CB      -145.5720   -1.3300   -0.6780 C.3    88  ARG88       0.0347
     77  CG      -145.9980   -1.3360   -2.1550 C.3    88  ARG88       0.0492
     78  CD      -145.5400   -2.5970   -2.8630 C.3    88  ARG88       0.2205
     79  NE      -146.1400   -3.8060   -2.3060 N.pl3  88  ARG88      -0.0865
     80  CZ      -147.3120   -4.2990   -2.6970 C.cat  88  ARG88       0.5346
     81  NH1     -148.0150   -3.6740   -3.6370 N.pl3  88  ARG88       0.1354
     82  NH2     -147.7820   -5.4140   -2.1520 N.pl3  88  ARG88       0.1354
     83  N       -147.3600    1.7650   -0.6440 N.am   89  PRO89      -0.2727
     84  CA      -148.6850    2.2000   -1.0890 C.3    89  PRO89       0.1402
     85  C       -149.0930    1.4890   -2.3660 C.2    89  PRO89       0.2269
     86  O       -148.2650    1.1210   -3.2050 O.2    89  PRO89      -0.2865
     87  CB      -148.5090    3.7040   -1.3240 C.3    89  PRO89       0.0296
     88  CG      -147.0270    3.8870   -1.5480 C.3    89  PRO89       0.0237
     89  CD      -146.3590    2.8420   -0.6920 C.3    89  PRO89       0.0939
     90  N       -149.7600    2.7690   -6.8210 N.3    92  VAL92      -0.1245
     91  CA      -148.7080    3.7720   -6.7550 C.3    92  VAL92       0.1561
     92  C       -148.1150    3.9800   -8.1460 C.2    92  VAL92       0.2260
     93  O       -148.1400    3.0820   -8.9930 O.2    92  VAL92      -0.2867
     94  CB      -147.6220    3.3430   -5.7320 C.3    92  VAL92       0.0252
     95  CG1     -146.7980    2.1810   -6.2780 C.3    92  VAL92       0.0019
     96  CG2     -146.7370    4.4920   -5.3710 C.3    92  VAL92       0.0019
     97  N       -142.9650    8.8620   -4.7030 N.3   140  LEU140     -0.1245
     98  CA      -144.1000    8.0190   -5.0560 C.3   140  LEU140      0.1561
     99  C       -145.3920    8.8020   -4.8880 C.2   140  LEU140      0.2260
    100  O       -145.5190    9.6260   -3.9760 O.2   140  LEU140     -0.2867
    101  CB      -144.1470    6.7540   -4.1970 C.3   140  LEU140      0.0270
    102  CG      -142.9380    5.8140   -4.2570 C.3   140  LEU140      0.0019
    103  CD1     -143.1680    4.6200   -3.3330 C.3   140  LEU140      0.0001
    104  CD2     -142.6530    5.3390   -5.6750 C.3   140  LEU140      0.0001
    105  N       -138.8180    8.6750   -1.1120 N.3   151  ILE151     -0.1231
    106  CA      -138.1850    7.3660   -0.9550 C.3   151  ILE151      0.1692
    107  C       -136.6850    7.4710   -1.1940 C.2   151  ILE151      0.2592
    108  O       -136.1710    8.4820   -1.6740 O.2   151  ILE151     -0.2718
    109  CB      -138.7780    6.2980   -1.9030 C.3   151  ILE151      0.0266
    110  CG1     -138.4840    6.6580   -3.3590 C.3   151  ILE151      0.0019
    111  CG2     -140.2810    6.1400   -1.6940 C.3   151  ILE151      0.0020
    112  CD1     -138.9190    5.5810   -4.3550 C.3   151  ILE151      0.0001
    113  N       -135.9920    6.3710   -0.8750 N.am  152  ASP152     -0.1960
    114  CA      -134.5780    6.1410   -1.1580 C.3   152  ASP152      0.1840
    115  C       -133.6500    7.1190   -0.4450 C.2   152  ASP152      0.2622
    116  O       -133.1490    8.0770   -1.0540 O.2   152  ASP152     -0.2715
    117  CB      -134.3120    6.1740   -2.6680 C.3   152  ASP152      0.1450
    118  CG      -132.9310    5.6550   -3.0250 C.2   152  ASP152      0.3671
    119  OD1     -132.5760    5.6850   -4.2270 O.co2 152  ASP152     -0.2456
    120  OD2     -132.1930    5.2240   -2.1070 O.co2 152  ASP152     -0.2456
    121  N       -133.3640    6.8440    0.8270 N.am  153  PHE153     -0.1974
    122  CA      -132.4120    7.6170    1.6090 C.3   153  PHE153      0.1639
    123  C       -130.9860    7.0750    1.5080 C.2   153  PHE153      0.2290
    124  O       -130.1530    7.3940    2.3590 O.2   153  PHE153     -0.2864
    125  CB      -132.8540    7.6620    3.0740 C.3   153  PHE153      0.0560
    126  CG      -134.0560    8.5230    3.3100 C.ar  153  PHE153     -0.0200
    127  CD1     -133.9230    9.7630    3.9160 C.ar  153  PHE153     -0.0042
    128  CD2     -135.3150    8.1010    2.9280 C.ar  153  PHE153     -0.0042
    129  CE1     -135.0350   10.5710    4.1310 C.ar  153  PHE153     -0.0003
    130  CE2     -136.4320    8.9020    3.1360 C.ar  153  PHE153     -0.0003
    131  CZ      -136.2910   10.1440    3.7360 C.ar  153  PHE153     -0.0000
@<TRIPOS>BOND
     1     4     3    2
     2     3     2    1
     3    93    92    2
     4     2     1    1
     5     2     5    1
     6    92    91    1
     7     5     6    1
     8     8     6    1
     9    90    91    1
    10    91    94    1
    11     6     7    1
    12    95    94    1
    13    12    11    2
    14    94    96    1
    15   104   102    1
    16     9    10    1
    17    98    99    1
    18    98    97    1
    19    98   101    1
    20    99   100    2
    21    11    10    1
    22    13    10    1
    23    13    15    1
    24    13    14    1
    25   112   110    1
    26   102   101    1
    27   102   103    1
    28   119   118   ar
    29    81    80    1
    30   110   109    1
    31    86    85    2
    32   118   117    1
    33   118   120   ar
    34    78    79    1
    35    78    77    1
    36    80    79    2
    37    80    82    1
    38   117   114    1
    39    85    84    1
    40    77    76    1
    41   109   111    1
    42   109   106    1
    43   108   107    2
    44    88    87    1
    45    88    89    1
    46    28    29    1
    47    28    27    1
    48    87    84    1
    49   107   106    1
    50   107   113   am
    51   114   113    1
    52   114   115    1
    53   105   106    1
    54    84    83    1
    55   116   115    2
    56    20    17    1
    57    26    27    1
    58    26    25    1
    59    89    83    1
    60    76    73    1
    61    83    74   am
    62   115   121   am
    63    22    25    1
    64    22    23    1
    65    22    21    1
    66    17    18    1
    67    17    16    1
    68    74    73    1
    69    74    75    2
    70    73    72    1
    71    23    24    2
    72    18    19    2
    73   121   122    1
    74    54    52    1
    75    66    65    2
    76    72    65   am
    77    38    36   ar
    78    37    36   ar
    79   123   122    1
    80   123   124    2
    81   122   125    1
    82    61    60    1
    83    52    51    1
    84    65    64    1
    85    36    35    1
    86    51    53    1
    87    51    48    1
    88    59    60    1
    89    59    56    1
    90    60    62    1
    91   128   130   ar
    92   128   126   ar
    93    58    57    2
    94   125   126    1
    95   130   131   ar
    96    47    48    1
    97    48    49    1
    98   126   127   ar
    99    64    67    1
   100    64    63    1
   101    35    34    1
   102    57    56    1
   103    57    63   am
   104    67    68    1
   105   131   129   ar
   106    56    55    1
   107    34    31    1
   108   127   129   ar
   109    49    50    2
   110    70    69   ar
   111    45    44    1
   112    46    44    1
   113    68    69    1
   114    31    30    1
   115    31    32    1
   116    69    71   ar
   117    44    43    1
   118    32    33    2
   119    43    40    1
   120    40    39    1
   121    40    41    1
   122    41    42    2
