@<TRIPOS>MOLECULE
tmp/5n4rA01.pdb
 126 117 0 0 0
SMALL
GASTEIGER

@<TRIPOS>ATOM
      1  N        139.8190    5.0720   -3.7870 N.3    12  LEU12      -0.1231
      2  CA       140.3050    3.7850   -4.2690 C.3    12  LEU12       0.1693
      3  C        139.2370    3.0040   -5.0180 C.2    12  LEU12       0.2592
      4  O        139.5630    2.2460   -5.9380 O.2    12  LEU12      -0.2718
      5  CB       140.8250    2.9390   -3.1080 C.3    12  LEU12       0.0284
      6  CG       142.0150    3.5590   -2.3780 C.3    12  LEU12       0.0019
      7  CD1      142.5140    2.6600   -1.2590 C.3    12  LEU12       0.0001
      8  CD2      143.1210    3.8470   -3.3840 C.3    12  LEU12       0.0001
      9  N        137.9750    3.1650   -4.6510 N.am   13  GLY13      -0.1957
     10  CA       136.9130    2.4610   -5.3430 C.3    13  GLY13       0.1869
     11  C        135.6260    2.5850   -4.5720 C.2    13  GLY13       0.2309
     12  O        135.5910    3.0670   -3.4330 O.2    13  GLY13      -0.2863
     13  N        130.0210   -2.1880   -1.1610 N.3    17  PHE17      -0.1241
     14  CA       130.7390   -2.0080    0.0960 C.3    17  PHE17       0.1605
     15  C        130.8580   -0.5380    0.5300 C.2    17  PHE17       0.2264
     16  O        131.4250   -0.2720    1.5960 O.2    17  PHE17      -0.2867
     17  CB       132.1430   -2.6290   -0.0300 C.3    17  PHE17       0.0534
     18  CG       132.9050   -2.1530   -1.2510 C.ar   17  PHE17      -0.0203
     19  CD1      132.8780   -2.8800   -2.4380 C.ar   17  PHE17      -0.0042
     20  CD2      133.6300   -0.9690   -1.2140 C.ar   17  PHE17      -0.0042
     21  CE1      133.5690   -2.4350   -3.5670 C.ar   17  PHE17      -0.0003
     22  CE2      134.3200   -0.5120   -2.3440 C.ar   17  PHE17      -0.0003
     23  CZ       134.2890   -1.2470   -3.5190 C.ar   17  PHE17      -0.0000
     24  N        135.5520    3.9090   -0.6640 N.3    20  VAL20      -0.1245
     25  CA       136.7830    3.6930    0.0850 C.3    20  VAL20       0.1561
     26  C        137.8440    4.6340   -0.4550 C.2    20  VAL20       0.2260
     27  O        138.0840    4.6670   -1.6710 O.2    20  VAL20      -0.2867
     28  CB       137.2510    2.2290   -0.0180 C.3    20  VAL20       0.0252
     29  CG1      138.6020    2.0450    0.6880 C.3    20  VAL20       0.0019
     30  CG2      136.1760    1.2790    0.5360 C.3    20  VAL20       0.0019
     31  N        142.8690    3.1120    5.0980 N.3    33  ALA33      -0.1245
     32  CA       141.7740    3.1960    4.1480 C.3    33  ALA33       0.1562
     33  C        140.5410    3.6930    4.8870 C.2    33  ALA33       0.2260
     34  O        140.2720    3.2780    6.0190 O.2    33  ALA33      -0.2867
     35  CB       141.5040    1.8370    3.4730 C.3    33  ALA33       0.0290
     36  N        136.5780    4.1200    4.7720 N.3    35  LYS35      -0.1245
     37  CA       135.4000    3.5690    4.1190 C.3    35  LYS35       0.1561
     38  C        134.1610    4.2960    4.6120 C.2    35  LYS35       0.2260
     39  O        133.9590    4.4310    5.8230 O.2    35  LYS35      -0.2867
     40  CB       135.2720    2.0650    4.3800 C.3    35  LYS35       0.0271
     41  CG       134.0160    1.4660    3.7580 C.3    35  LYS35       0.0035
     42  CD       133.7550    0.0220    4.2100 C.3    35  LYS35       0.0206
     43  CE       134.3330   -0.9830    3.2290 C.3    35  LYS35       0.1093
     44  NZ       133.9530   -2.3970    3.5590 N.3    35  LYS35      -0.1314
     45  N        141.6750   -7.7020    7.7140 N.3    72  ILE72      -0.1245
     46  CA       141.8880   -6.2630    7.7740 C.3    72  ILE72       0.1561
     47  C        141.5230   -5.7530    9.1630 C.2    72  ILE72       0.2260
     48  O        140.5260   -6.1740    9.7640 O.2    72  ILE72      -0.2867
     49  CB       141.0570   -5.5710    6.6790 C.3    72  ILE72       0.0252
     50  CG1      141.6830   -4.2270    6.2810 C.3    72  ILE72       0.0019
     51  CG2      139.5510   -5.4710    7.0910 C.3    72  ILE72       0.0019
     52  CD1      142.8920   -4.4210    5.3630 C.3    72  ILE72       0.0001
     53  N        140.3690    1.7570    8.3090 N.3    88  LEU88      -0.1231
     54  CA       140.9530    0.4340    8.1800 C.3    88  LEU88       0.1693
     55  C        142.4510    0.5450    7.9260 C.2    88  LEU88       0.2592
     56  O        142.9260    1.5220    7.3340 O.2    88  LEU88      -0.2718
     57  CB       140.2690   -0.3580    7.0400 C.3    88  LEU88       0.0284
     58  CG       138.7540   -0.4530    7.2820 C.3    88  LEU88       0.0019
     59  CD1      137.9410   -0.4260    5.9860 C.3    88  LEU88       0.0001
     60  CD2      138.3970   -1.6800    8.1320 C.3    88  LEU88       0.0001
     61  N        143.1880   -0.4620    8.3960 N.am   89  GLU89      -0.1966
     62  CA       144.5960   -0.6050    8.0400 C.3    89  GLU89       0.1733
     63  C        144.7450   -0.7110    6.5250 C.2    89  GLU89       0.2616
     64  O        143.8960   -1.2940    5.8440 O.2    89  GLU89      -0.2715
     65  CB       145.1790   -1.8510    8.7160 C.3    89  GLU89       0.0429
     66  CG       146.6310   -2.0860    8.4310 C.3    89  GLU89       0.1163
     67  CD       147.2710   -3.2230    9.1670 C.2    89  GLU89       0.3649
     68  OE1      146.5970   -3.9420    9.8740 O.co2  89  GLU89      -0.2457
     69  OE2      148.4470   -3.5630    8.9610 O.co2  89  GLU89      -0.2457
     70  N        145.8150   -0.1340    5.9860 N.am   90  ARG90      -0.1964
     71  CA       146.0610   -0.1790    4.5420 C.3    90  ARG90       0.1714
     72  C        147.4610   -0.6880    4.2450 C.2    90  ARG90       0.2458
     73  O        148.4420    0.0550    4.4540 O.2    90  ARG90      -0.2730
     74  CB       145.8650    1.1790    3.8690 C.3    90  ARG90       0.0347
     75  CG       146.2190    1.1320    2.3820 C.3    90  ARG90       0.0492
     76  CD       145.7320    2.3590    1.6190 C.3    90  ARG90       0.2205
     77  NE       146.2780    3.6050    2.1510 N.pl3  90  ARG90      -0.0865
     78  CZ       147.4450    4.1190    1.7740 C.cat  90  ARG90       0.5346
     79  NH1      148.1900    3.4850    0.8700 N.pl3  90  ARG90       0.1354
     80  NH2      147.8650    5.2640    2.2960 N.pl3  90  ARG90       0.1354
     81  N        147.5990   -1.9070    3.7400 N.am   91  PRO91      -0.2727
     82  CA       148.9140   -2.3790    3.3040 C.3    91  PRO91       0.1402
     83  C        149.3940   -1.5880    2.1030 C.2    91  PRO91       0.2269
     84  O        148.6080   -1.1690    1.2480 O.2    91  PRO91      -0.2865
     85  CB       148.6660   -3.8470    2.9220 C.3    91  PRO91       0.0296
     86  CG       147.2790   -4.1730    3.4060 C.3    91  PRO91       0.0237
     87  CD       146.5340   -2.8800    3.4500 C.3    91  PRO91       0.0939
     88  N        150.0310   -2.8880   -2.2070 N.3    94  VAL94      -0.1245
     89  CA       148.9280   -3.8360   -2.1190 C.3    94  VAL94       0.1561
     90  C        148.3490   -4.0530   -3.5160 C.2    94  VAL94       0.2260
     91  O        148.4360   -3.1860   -4.3910 O.2    94  VAL94      -0.2867
     92  CB       147.8410   -3.3340   -1.1280 C.3    94  VAL94       0.0252
     93  CG1      147.0110   -2.1990   -1.7510 C.3    94  VAL94       0.0019
     94  CG2      146.9450   -4.4610   -0.6820 C.3    94  VAL94       0.0019
     95  N        144.6840   -6.4270   -4.8630 N.3    96  ASP96      -0.1239
     96  CA       143.7280   -7.4450   -4.4620 C.3    96  ASP96       0.1674
     97  C        143.9270   -8.6970   -5.3220 C.2    96  ASP96       0.2266
     98  O        144.5590   -8.6660   -6.3840 O.2    96  ASP96      -0.2867
     99  CB       142.2750   -6.9140   -4.4870 C.3    96  ASP96       0.1410
    100  CG       141.6780   -6.7510   -5.8950 C.2    96  ASP96       0.3668
    101  OD1      140.9080   -5.7820   -6.0650 O.co2  96  ASP96      -0.2456
    102  OD2      141.9010   -7.5850   -6.8080 O.co2  96  ASP96      -0.2456
    103  N        143.1450   -8.8970   -0.0350 N.3   142  LEU142     -0.1245
    104  CA       144.2850   -8.0450   -0.3530 C.3   142  LEU142      0.1561
    105  C        145.5730   -8.8310   -0.1790 C.2   142  LEU142      0.2260
    106  O        145.6900   -9.6630    0.7260 O.2   142  LEU142     -0.2867
    107  CB       144.3220   -6.8050    0.5390 C.3   142  LEU142      0.0270
    108  CG       143.0760   -5.9360    0.4060 C.3   142  LEU142      0.0019
    109  CD1      143.2470   -4.6440    1.2220 C.3   142  LEU142      0.0001
    110  CD2      142.8520   -5.6300   -1.0780 C.3   142  LEU142      0.0001
    111  N        138.9320   -8.6490    3.5060 N.3   153  ILE153     -0.1231
    112  CA       138.2750   -7.3510    3.6370 C.3   153  ILE153      0.1692
    113  C        136.7800   -7.5230    3.4050 C.2   153  ILE153      0.2592
    114  O        136.3070   -8.5880    3.0080 O.2   153  ILE153     -0.2718
    115  CB       138.8260   -6.3030    2.6470 C.3   153  ILE153      0.0266
    116  CG1      138.6290   -6.8050    1.2060 C.3   153  ILE153      0.0019
    117  CG2      140.2940   -5.9710    2.9560 C.3   153  ILE153      0.0020
    118  CD1      138.9870   -5.7860    0.1260 C.3   153  ILE153      0.0001
    119  N        136.0450   -6.4320    3.6540 N.am  154  ASP154     -0.1974
    120  CA       134.6480   -6.2520    3.2580 C.3   154  ASP154      0.1709
    121  C        133.7400   -7.2820    3.9400 C.2   154  ASP154      0.2293
    122  O        133.2170   -8.2160    3.3260 O.2   154  ASP154     -0.2864
    123  CB       134.4890   -6.2960    1.7260 C.3   154  ASP154      0.1436
    124  CG       134.9730   -5.0160    1.0400 C.2   154  ASP154      0.3671
    125  OD1      135.1490   -3.9800    1.7320 O.co2 154  ASP154     -0.2456
    126  OD2      135.1590   -5.0460   -0.2060 O.co2 154  ASP154     -0.2456
@<TRIPOS>BOND
     1   102   100   ar
     2    98    97    2
     3   101   100   ar
     4     4     3    2
     5   100    99    1
     6    10     9    1
     7    10    11    1
     8    97    96    1
     9     3     9   am
    10     3     2    1
    11    95    96    1
    12    11    12    2
    13    99    96    1
    14    91    90    2
    15     2     1    1
    16     2     5    1
    17    21    23   ar
    18    21    19   ar
    19    23    22   ar
    20    90    89    1
    21     8     6    1
    22     5     6    1
    23    19    18   ar
    24     6     7    1
    25    22    20   ar
    26    88    89    1
    27    89    92    1
    28    93    92    1
    29    27    26    2
    30    18    20   ar
    31    18    17    1
    32    13    14    1
    33    92    94    1
    34   110   108    1
    35    24    25    1
    36    26    25    1
    37   104   105    1
    38   104   103    1
    39   104   107    1
    40   126   124   ar
    41   105   106    2
    42    17    14    1
    43    28    25    1
    44    28    30    1
    45    28    29    1
    46    14    15    1
    47   118   116    1
    48   108   107    1
    49   108   109    1
    50    15    16    2
    51    79    78    1
    52   124   123    1
    53   124   125   ar
    54   116   115    1
    55    84    83    2
    56    76    77    1
    57    76    75    1
    58   123   120    1
    59    78    77    2
    60    78    80    1
    61    83    82    1
    62    75    74    1
    63   115   117    1
    64   115   112    1
    65    85    82    1
    66    85    86    1
    67   114   113    2
    68    43    44    1
    69    43    42    1
    70   120   119    1
    71   120   121    1
    72    82    81    1
    73   122   121    2
    74   113   112    1
    75   113   119   am
    76    86    87    1
    77    87    81    1
    78    35    32    1
    79   111   112    1
    80    81    72   am
    81    41    42    1
    82    41    40    1
    83    74    71    1
    84    37    40    1
    85    37    38    1
    86    37    36    1
    87    32    33    1
    88    32    31    1
    89    72    73    2
    90    72    71    1
    91    71    70    1
    92    38    39    2
    93    33    34    2
    94    52    50    1
    95    64    63    2
    96    70    63   am
    97    59    58    1
    98    50    49    1
    99    63    62    1
   100    49    51    1
   101    49    46    1
   102    57    58    1
   103    57    54    1
   104    58    60    1
   105    56    55    2
   106    45    46    1
   107    46    47    1
   108    55    54    1
   109    55    61   am
   110    62    61    1
   111    62    65    1
   112    54    53    1
   113    66    65    1
   114    66    67    1
   115    69    67   ar
   116    47    48    2
   117    67    68   ar
