@<TRIPOS>MOLECULE
tmp/5n4tB00.pdb
 150 149 0 0 0
SMALL
GASTEIGER

@<TRIPOS>ATOM
      1  N         57.2510   11.5570   38.2770 N.3    32  PHE32      -0.1241
      2  CA        58.2880   11.8180   37.2930 C.3    32  PHE32       0.1605
      3  C         58.0750   10.7890   36.1960 C.2    32  PHE32       0.2264
      4  O         58.1630    9.5780   36.4330 O.2    32  PHE32      -0.2867
      5  CB        59.6850   11.7230   37.9070 C.3    32  PHE32       0.0534
      6  CG        60.7890   11.9400   36.9100 C.ar   32  PHE32      -0.0203
      7  CD1       60.9950   13.1530   36.3130 C.ar   32  PHE32      -0.0042
      8  CD2       61.5420   10.8900   36.5140 C.ar   32  PHE32      -0.0042
      9  CE1       62.0270   13.2730   35.3200 C.ar   32  PHE32      -0.0003
     10  CE2       62.5890   11.0270   35.5620 C.ar   32  PHE32      -0.0003
     11  CZ        62.8200   12.2320   35.0030 C.ar   32  PHE32      -0.0000
     12  N         58.0130    8.2010   42.8530 N.3    37  TYR37      -0.1228
     13  CA        59.1880    7.8500   43.6270 C.3    37  TYR37       0.1721
     14  C         59.1760    8.5120   45.0010 C.2    37  TYR37       0.2437
     15  O         58.7540    9.6710   45.1400 O.2    37  TYR37      -0.2733
     16  CB        60.4860    8.2710   42.8880 C.3    37  TYR37       0.0547
     17  CG        60.6170    7.6710   41.5200 C.ar   37  TYR37      -0.0200
     18  CD1       61.1420    6.3840   41.3380 C.ar   37  TYR37      -0.0009
     19  CD2       60.1810    8.3550   40.4040 C.ar   37  TYR37      -0.0009
     20  CE1       61.2540    5.8120   40.0780 C.ar   37  TYR37       0.0417
     21  CE2       60.2860    7.7960   39.1190 C.ar   37  TYR37       0.0417
     22  CZ        60.8090    6.5150   38.9630 C.ar   37  TYR37       0.1957
     23  OH        60.9140    5.9540   37.6910 O.3    37  TYR37      -0.2866
     24  N         59.6920    7.8300   46.0210 N.am   38  PRO38      -0.2729
     25  CA        59.9190    8.4590   47.3220 C.3    38  PRO38       0.1401
     26  C         61.2720    9.1920   47.3740 C.2    38  PRO38       0.2269
     27  O         62.2030    8.9040   46.5910 O.2    38  PRO38      -0.2865
     28  CB        59.9120    7.2370   48.2660 C.3    38  PRO38       0.0296
     29  CG        60.5770    6.1990   47.4840 C.3    38  PRO38       0.0237
     30  CD        60.2360    6.4570   46.0050 C.3    38  PRO38       0.0939
     31  N         61.0660   18.1010   47.8140 N.3    57  TRP57      -0.1241
     32  CA        60.8760   17.8630   46.3910 C.3    57  TRP57       0.1605
     33  C         59.6330   18.5680   45.8550 C.2    57  TRP57       0.2264
     34  O         58.6940   17.9460   45.3350 O.2    57  TRP57      -0.2867
     35  CB        60.9320   16.3460   46.0460 C.3    57  TRP57       0.0550
     36  CG        61.1230   15.9720   44.5620 C.ar   57  TRP57       0.0003
     37  CD1       61.2410   16.8060   43.4890 C.ar   57  TRP57       0.0946
     38  CD2       61.1820   14.6330   44.0100 C.ar   57  TRP57       0.0152
     39  NE1       61.3960   16.0820   42.3190 N.ar   57  TRP57      -0.2442
     40  CE2       61.3700   14.7490   42.6370 C.ar   57  TRP57       0.0810
     41  CE3       61.1250   13.3470   44.5720 C.ar   57  TRP57       0.0012
     42  CZ2       61.4640   13.6320   41.7920 C.ar   57  TRP57       0.0191
     43  CZ3       61.2690   12.2330   43.7300 C.ar   57  TRP57       0.0001
     44  CH2       61.4160   12.3920   42.3690 C.ar   57  TRP57       0.0015
     45  N         72.7120   18.8340   47.0550 N.3    84  HIS84      -0.1241
     46  CA        73.1340   19.0260   45.6650 C.3    84  HIS84       0.1621
     47  C         72.0680   19.8460   44.9450 C.2    84  HIS84       0.2264
     48  O         71.0620   20.2730   45.5620 O.2    84  HIS84      -0.2867
     49  CB        73.5820   17.7250   44.9350 C.3    84  HIS84       0.0745
     50  CG        72.5040   16.7240   44.6240 C.ar   84  HIS84       0.0817
     51  ND1       72.0220   15.8260   45.5540 N.ar   84  HIS84      -0.2268
     52  CD2       71.8400   16.4520   43.4660 C.ar   84  HIS84       0.1154
     53  CE1       71.1100   15.0480   44.9900 C.ar   84  HIS84       0.1986
     54  NE2       70.9950   15.3950   43.7210 N.ar   84  HIS84      -0.2212
     55  N         69.8880   19.3400   42.3540 N.3    86  HIS86      -0.1226
     56  CA        68.6760   18.7700   41.7510 C.3    86  HIS86       0.1752
     57  C         67.3930   19.2330   42.5070 C.2    86  HIS86       0.2596
     58  O         67.4380   19.6270   43.6600 O.2    86  HIS86      -0.2718
     59  CB        68.7630   17.2260   41.6680 C.3    86  HIS86       0.0759
     60  CG        69.7070   16.7050   40.6210 C.ar   86  HIS86       0.0818
     61  ND1       70.2320   15.4070   40.6490 N.ar   86  HIS86      -0.2268
     62  CD2       70.2160   17.2900   39.4970 C.ar   86  HIS86       0.1154
     63  CE1       70.9980   15.2240   39.5790 C.ar   86  HIS86       0.1986
     64  NE2       71.0300   16.3540   38.8830 N.ar   86  HIS86      -0.2212
     65  N         66.2400   19.0930   41.8310 N.am   87  ASP87      -0.1960
     66  CA        64.9510   19.5960   42.3320 C.3    87  ASP87       0.1840
     67  C         64.4170   18.8600   43.5680 C.2    87  ASP87       0.2622
     68  O         63.5360   19.4040   44.2620 O.2    87  ASP87      -0.2715
     69  CB        63.9030   19.5630   41.1960 C.3    87  ASP87       0.1450
     70  CG        63.3320   20.9330   40.8780 C.2    87  ASP87       0.3671
     71  OD1       62.7230   21.5350   41.7630 O.co2  87  ASP87      -0.2456
     72  OD2       63.4920   21.4090   39.7380 O.co2  87  ASP87      -0.2456
     73  N         64.8910   17.6250   43.8550 N.am   88  ASP88      -0.1971
     74  CA        64.5220   16.9590   45.1080 C.3    88  ASP88       0.1709
     75  C         65.2940   17.4840   46.3090 C.2    88  ASP88       0.2293
     76  O         64.9920   17.0870   47.4510 O.2    88  ASP88      -0.2864
     77  CB        64.6550   15.4160   45.0070 C.3    88  ASP88       0.1436
     78  CG        66.0790   14.9000   44.7050 C.2    88  ASP88       0.3671
     79  OD1       66.9110   15.6550   44.1470 O.co2  88  ASP88      -0.2456
     80  OD2       66.2880   13.6860   44.9960 O.co2  88  ASP88      -0.2456
     81  N         77.3410   11.0480   42.4480 N.3   149  HIS149     -0.1241
     82  CA        76.0240   11.2390   41.7940 C.3   149  HIS149      0.1621
     83  C         75.9680   12.5840   41.0650 C.2   149  HIS149      0.2264
     84  O         75.3500   12.6810   39.9870 O.2   149  HIS149     -0.2867
     85  CB        74.9030   11.1330   42.8810 C.3   149  HIS149      0.0745
     86  CG        73.5520   11.6270   42.4460 C.ar  149  HIS149      0.0817
     87  ND1       72.6400   10.8390   41.7670 N.ar  149  HIS149     -0.2268
     88  CD2       72.9560   12.8460   42.5930 C.ar  149  HIS149      0.1154
     89  CE1       71.5420   11.5640   41.5070 C.ar  149  HIS149      0.1986
     90  NE2       71.7130   12.7920   41.9780 N.ar  149  HIS149     -0.2212
     91  N         71.9730   11.5170   47.6550 N.3   168  CYS168     -0.1235
     92  CA        71.7370   10.7260   46.4470 C.3   168  CYS168      0.1677
     93  C         73.0020   10.0690   45.8930 C.2   168  CYS168      0.2270
     94  O         72.9320    9.3010   44.9250 O.2   168  CYS168     -0.2867
     95  CB        70.9730   11.5730   45.4320 C.3   168  CYS168      0.0956
     96  SG        69.4020   12.2390   46.1810 S.3   168  CYS168     -0.0801
     97  N         72.9630    4.6590   47.3950 N.3   171  TYR171     -0.1227
     98  CA        71.7500    3.9350   47.0100 C.3   171  TYR171      0.1736
     99  C         71.2930    2.9970   48.1280 C.2   171  TYR171      0.2595
    100  O         72.1030    2.4710   48.9070 O.2   171  TYR171     -0.2718
    101  CB        71.9900    3.0800   45.7500 C.3   171  TYR171      0.0548
    102  CG        71.9650    3.8050   44.4090 C.ar  171  TYR171     -0.0200
    103  CD1       72.3080    5.1490   44.2890 C.ar  171  TYR171     -0.0009
    104  CD2       71.5680    3.1430   43.2720 C.ar  171  TYR171     -0.0009
    105  CE1       72.3020    5.7840   43.0350 C.ar  171  TYR171      0.0417
    106  CE2       71.5200    3.7530   42.0390 C.ar  171  TYR171      0.0417
    107  CZ        71.8520    5.1000   41.9160 C.ar  171  TYR171      0.1957
    108  OH        71.8330    5.6900   40.6610 O.3   171  TYR171     -0.2866
    109  N         69.9760    2.8080   48.2100 N.am  172  GLU172     -0.1979
    110  CA        69.3830    1.7700   49.0640 C.3   172  GLU172      0.1602
    111  C         69.6790    0.3720   48.5050 C.2   172  GLU172      0.2287
    112  O         69.9190    0.1960   47.3110 O.2   172  GLU172     -0.2864
    113  CB        67.8620    1.9750   49.1990 C.3   172  GLU172      0.0415
    114  CG        67.0440    1.6690   47.9190 C.3   172  GLU172      0.1163
    115  CD        65.5420    1.6590   48.1650 C.2   172  GLU172      0.3649
    116  OE1       65.0570    1.2250   49.2610 O.co2 172  GLU172     -0.2457
    117  OE2       64.7920    2.1160   47.2530 O.co2 172  GLU172     -0.2457
    118  N         67.9100   -1.2710   45.3270 N.3   175  ARG175     -0.1245
    119  CA        68.2360   -0.7700   43.9940 C.3   175  ARG175      0.1563
    120  C         69.5120   -1.4580   43.5150 C.2   175  ARG175      0.2260
    121  O         70.5890   -1.2380   44.0790 O.2   175  ARG175     -0.2867
    122  CB        68.4090    0.7500   44.0270 C.3   175  ARG175      0.0307
    123  CG        68.7190    1.3530   42.6860 C.3   175  ARG175      0.0489
    124  CD        67.7490    2.4760   42.3140 C.3   175  ARG175      0.2205
    125  NE        67.8260    3.6040   43.2410 N.pl3 175  ARG175     -0.0865
    126  CZ        68.1110    4.8620   42.9050 C.cat 175  ARG175      0.5346
    127  NH1       68.3570    5.2060   41.6430 N.pl3 175  ARG175      0.1354
    128  NH2       68.1470    5.7910   43.8490 N.pl3 175  ARG175      0.1354
    129  N         70.4870    4.5790   38.5710 N.3   179  GLY179     -0.1210
    130  CA        69.3590    5.4390   38.2680 C.3   179  GLY179      0.1956
    131  C         69.7290    6.5870   37.3530 C.2   179  GLY179      0.2611
    132  O         70.2640    6.3680   36.2580 O.2   179  GLY179     -0.2717
    133  N         69.4040    7.8160   37.7610 N.am  180  ASN180     -0.1974
    134  CA        69.7400    8.9950   36.9680 C.3   180  ASN180      0.1688
    135  C         71.2280    9.2900   37.1180 C.2   180  ASN180      0.2292
    136  O         71.7020    9.6590   38.2050 O.2   180  ASN180     -0.2864
    137  CB        68.8800   10.1690   37.4370 C.3   180  ASN180      0.1181
    138  CG        69.2570   11.4790   36.7760 C.2   180  ASN180      0.2629
    139  OD1       69.9830   11.5210   35.7710 O.2   180  ASN180     -0.2716
    140  ND2       68.7590   12.5720   37.3460 N.am  180  ASN180     -0.0877
    141  N         67.0280    8.1870   48.5680 N.3   210  HIS210     -0.1241
    142  CA        65.7560    7.5880   48.1810 C.3   210  HIS210      0.1621
    143  C         65.6720    6.1870   48.8050 C.2   210  HIS210      0.2264
    144  O         66.5690    5.3520   48.5720 O.2   210  HIS210     -0.2867
    145  CB        65.6650    7.5280   46.6330 C.3   210  HIS210      0.0745
    146  CG        65.8010    8.8710   45.9440 C.ar  210  HIS210      0.0817
    147  ND1       64.7330    9.7350   45.7860 N.ar  210  HIS210     -0.2268
    148  CD2       66.8870    9.5240   45.4500 C.ar  210  HIS210      0.1154
    149  CE1       65.1570   10.8440   45.1930 C.ar  210  HIS210      0.1986
    150  NE2       66.4600   10.7460   44.9600 N.ar  210  HIS210     -0.2212
@<TRIPOS>BOND
     1    11     9   ar
     2    11    10   ar
     3     9     7   ar
     4    10     8   ar
     5   139   138    2
     6     3     4    2
     7     3     2    1
     8   132   131    2
     9     7     6   ar
    10     8     6   ar
    11   138   140   am
    12   138   137    1
    13     6     5    1
    14   134   135    1
    15   134   137    1
    16   134   133    1
    17   135   136    2
    18     2     5    1
    19     2     1    1
    20   131   133   am
    21   131   130    1
    22    23    22    1
    23   130   129    1
    24    64    62   ar
    25    64    63   ar
    26    22    21   ar
    27    22    20   ar
    28    21    19   ar
    29    62    60   ar
    30    63    61   ar
    31    72    70   ar
    32    84    83    2
    33    20    18   ar
    34    19    17   ar
    35    60    61   ar
    36    60    59    1
    37   108   107    1
    38    70    69    1
    39    70    71   ar
    40    83    82    1
    41    69    66    1
    42    18    17   ar
    43    89    87   ar
    44    89    90   ar
    45    17    16    1
    46   127   126    1
    47    59    56    1
    48    56    55    1
    49    56    57    1
    50    87    86   ar
    51    42    44   ar
    52    42    40   ar
    53    82    81    1
    54    82    85    1
    55    65    66    1
    56    65    57   am
    57   107   106   ar
    58   107   105   ar
    59    90    88   ar
    60   106   104   ar
    61   124   123    1
    62   124   125    1
    63    39    40   ar
    64    39    37   ar
    65    66    67    1
    66    44    43   ar
    67    86    88   ar
    68    86    85    1
    69    57    58    2
    70    40    38   ar
    71   123   122    1
    72    12    13    1
    73    16    13    1
    74   126   125    2
    75   126   128    1
    76   105   103   ar
    77   104   102   ar
    78    52    54   ar
    79    52    50   ar
    80    37    36   ar
    81   120   119    1
    82   120   121    2
    83    67    73   am
    84    67    68    2
    85    13    14    1
    86    54    53   ar
    87    43    41   ar
    88    73    74    1
    89   119   122    1
    90   119   118    1
    91    38    36   ar
    92    38    41   ar
    93    79    78   ar
    94   103   102   ar
    95   102   101    1
    96    36    35    1
    97    50    49    1
    98    50    51   ar
    99    78    80   ar
   100    78    77    1
   101    94    93    2
   102    49    46    1
   103    47    48    2
   104    47    46    1
   105   150   149   ar
   106   150   148   ar
   107    53    51   ar
   108    14    15    2
   109    14    24   am
   110    77    74    1
   111    74    75    1
   112   149   147   ar
   113    34    33    2
   114    95    96    1
   115    95    92    1
   116   148   146   ar
   117    46    45    1
   118   101    98    1
   119   147   146   ar
   120    33    32    1
   121    93    92    1
   122   146   145    1
   123    30    24    1
   124    30    29    1
   125    24    25    1
   126    35    32    1
   127    75    76    2
   128    32    31    1
   129    92    91    1
   130    27    26    2
   131   145   142    1
   132    98    97    1
   133    98    99    1
   134   117   115   ar
   135   112   111    2
   136    25    26    1
   137    25    28    1
   138    29    28    1
   139   114   115    1
   140   114   113    1
   141    99   109   am
   142    99   100    2
   143   115   116   ar
   144   142   141    1
   145   142   143    1
   146   109   110    1
   147   111   110    1
   148   144   143    2
   149   110   113    1
