@<TRIPOS>MOLECULE
tmp/5n4uA01.pdb
 131 121 0 0 0
SMALL
GASTEIGER

@<TRIPOS>ATOM
      1  N        139.8080    4.6950   -3.6030 N.3    11  LEU11      -0.1245
      2  CA       140.2640    3.3680   -4.0140 C.3    11  LEU11       0.1561
      3  C        139.1650    2.5900   -4.7410 C.2    11  LEU11       0.2260
      4  O        139.4580    1.7100   -5.5670 O.2    11  LEU11      -0.2867
      5  CB       140.7490    2.5700   -2.8090 C.3    11  LEU11       0.0270
      6  CG       141.7760    3.2450   -1.9080 C.3    11  LEU11       0.0019
      7  CD1      141.8990    2.4850   -0.6160 C.3    11  LEU11       0.0001
      8  CD2      143.0730    3.2130   -2.6150 C.3    11  LEU11       0.0001
      9  N        129.6570   -2.0540   -1.1050 N.3    16  PHE16      -0.1241
     10  CA       130.1860   -1.7920    0.2320 C.3    16  PHE16       0.1605
     11  C        130.1190   -0.3160    0.6420 C.2    16  PHE16       0.2264
     12  O        129.9700   -0.0210    1.8310 O.2    16  PHE16      -0.2867
     13  CB       131.6370   -2.2980    0.3360 C.3    16  PHE16       0.0534
     14  CG       132.4930   -1.9960   -0.8710 C.ar   16  PHE16      -0.0203
     15  CD1      132.6410   -2.9320   -1.8890 C.ar   16  PHE16      -0.0042
     16  CD2      133.1710   -0.7880   -0.9780 C.ar   16  PHE16      -0.0042
     17  CE1      133.4370   -2.6620   -3.0030 C.ar   16  PHE16      -0.0003
     18  CE2      133.9680   -0.5080   -2.1010 C.ar   16  PHE16      -0.0003
     19  CZ       134.1010   -1.4430   -3.1050 C.ar   16  PHE16      -0.0000
     20  N        135.3210    3.9940   -0.7050 N.3    19  VAL19      -0.1245
     21  CA       136.5180    3.7790    0.1020 C.3    19  VAL19       0.1561
     22  C        137.6320    4.6610   -0.4270 C.2    19  VAL19       0.2260
     23  O        137.8970    4.6490   -1.6380 O.2    19  VAL19      -0.2867
     24  CB       136.9280    2.2980    0.0800 C.3    19  VAL19       0.0252
     25  CG1      138.1610    2.0950    0.9400 C.3    19  VAL19       0.0019
     26  CG2      135.7500    1.4240    0.5530 C.3    19  VAL19       0.0019
     27  N        142.6270    3.0620    5.1710 N.3    32  ALA32      -0.1245
     28  CA       141.5480    3.1460    4.2000 C.3    32  ALA32       0.1562
     29  C        140.3270    3.6870    4.9260 C.2    32  ALA32       0.2260
     30  O        140.0700    3.3170    6.0730 O.2    32  ALA32      -0.2867
     31  CB       141.2300    1.7630    3.5560 C.3    32  ALA32       0.0290
     32  N        136.3330    4.2210    4.7930 N.3    34  LYS34      -0.1245
     33  CA       135.1400    3.7090    4.1470 C.3    34  LYS34       0.1561
     34  C        133.9180    4.4220    4.6910 C.2    34  LYS34       0.2260
     35  O        133.7090    4.4470    5.9100 O.2    34  LYS34      -0.2867
     36  CB       135.0040    2.2040    4.3930 C.3    34  LYS34       0.0271
     37  CG       133.7740    1.5950    3.7790 C.3    34  LYS34       0.0035
     38  CD       133.8280    0.0720    3.9690 C.3    34  LYS34       0.0206
     39  CE       132.6610   -0.6380    3.3190 C.3    34  LYS34       0.1093
     40  NZ       132.7750   -2.1240    3.4570 N.3    34  LYS34      -0.1314
     41  N        128.2700   -4.5200   10.1950 N.3    56  GLU56      -0.1245
     42  CA       129.6430   -4.6100    9.7320 C.3    56  GLU56       0.1567
     43  C        130.6080   -4.1120   10.7970 C.2    56  GLU56       0.2260
     44  O        131.6950   -4.6890   10.9820 O.2    56  GLU56      -0.2867
     45  CB       129.7860   -3.8310    8.4250 C.3    56  GLU56       0.0388
     46  CG       131.2090   -3.5780    7.9640 C.3    56  GLU56       0.1160
     47  CD       131.2500   -2.8890    6.5860 C.2    56  GLU56       0.3649
     48  OE1      130.1950   -2.3770    6.1250 O.co2  56  GLU56      -0.2457
     49  OE2      132.3310   -2.8800    5.9710 O.co2  56  GLU56      -0.2457
     50  N        141.6770   -7.5360    7.5000 N.3    71  ILE71      -0.1245
     51  CA       141.9590   -6.1020    7.6070 C.3    71  ILE71       0.1561
     52  C        141.2660   -5.5720    8.8560 C.2    71  ILE71       0.2260
     53  O        140.0540   -5.7450    9.0260 O.2    71  ILE71      -0.2867
     54  CB       141.4990   -5.3340    6.3550 C.3    71  ILE71       0.0252
     55  CG1      142.4630   -5.5000    5.1790 C.3    71  ILE71       0.0019
     56  CG2      141.4040   -3.8440    6.6180 C.3    71  ILE71       0.0019
     57  CD1      143.7770   -4.8880    5.3770 C.3    71  ILE71       0.0001
     58  N        140.1820    1.7970    8.4090 N.3    87  LEU87      -0.1231
     59  CA       140.6460    0.4350    8.2170 C.3    87  LEU87       0.1693
     60  C        142.1260    0.4750    7.8830 C.2    87  LEU87       0.2592
     61  O        142.6340    1.4800    7.3880 O.2    87  LEU87      -0.2718
     62  CB       139.8640   -0.2790    7.0720 C.3    87  LEU87       0.0284
     63  CG       138.3630   -0.3980    7.4400 C.3    87  LEU87       0.0019
     64  CD1      137.4570   -0.1980    6.2370 C.3    87  LEU87       0.0001
     65  CD2      138.0120   -1.7450    8.0780 C.3    87  LEU87       0.0001
     66  N        142.8130   -0.6360    8.1560 N.am   88  GLU88      -0.1966
     67  CA       144.2070   -0.7750    7.7540 C.3    88  GLU88       0.1733
     68  C        144.3430   -0.6130    6.2490 C.2    88  GLU88       0.2616
     69  O        143.4340   -0.9470    5.4720 O.2    88  GLU88      -0.2715
     70  CB       144.7530   -2.1510    8.1390 C.3    88  GLU88       0.0429
     71  CG       144.9760   -2.3840    9.6220 C.3    88  GLU88       0.1163
     72  CD       145.6410   -3.7470    9.8800 C.2    88  GLU88       0.3649
     73  OE1      145.0750   -4.7980    9.4440 O.co2  88  GLU88      -0.2457
     74  OE2      146.7350   -3.7580   10.5030 O.co2  88  GLU88      -0.2457
     75  N        145.5070   -0.1470    5.8220 N.am   89  ARG89      -0.1964
     76  CA       145.8430   -0.1710    4.3980 C.3    89  ARG89       0.1714
     77  C        147.2520   -0.7090    4.1930 C.2    89  ARG89       0.2458
     78  O        148.2310    0.0070    4.4820 O.2    89  ARG89      -0.2730
     79  CB       145.6990    1.2110    3.7680 C.3    89  ARG89       0.0347
     80  CG       146.1800    1.2240    2.3050 C.3    89  ARG89       0.0492
     81  CD       145.6620    2.4590    1.5630 C.3    89  ARG89       0.2205
     82  NE       146.1130    3.7140    2.1850 N.pl3  89  ARG89      -0.0865
     83  CZ       147.2810    4.2740    1.8830 C.cat  89  ARG89       0.5346
     84  NH1      148.0790    3.6590    1.0090 N.pl3  89  ARG89       0.1354
     85  NH2      147.6520    5.4280    2.4310 N.pl3  89  ARG89       0.1354
     86  N        147.4040   -1.9300    3.7100 N.am   90  PRO90      -0.2727
     87  CA       148.7300   -2.3960    3.3000 C.3    90  PRO90       0.1402
     88  C        149.2640   -1.5740    2.1400 C.2    90  PRO90       0.2269
     89  O        148.5280   -1.0690    1.2840 O.2    90  PRO90      -0.2865
     90  CB       148.4960   -3.8560    2.8680 C.3    90  PRO90       0.0296
     91  CG       147.0660   -4.2140    3.3110 C.3    90  PRO90       0.0237
     92  CD       146.3320   -2.8910    3.3980 C.3    90  PRO90       0.0939
     93  N        150.0240   -2.8830   -2.3460 N.3    93  VAL93      -0.1245
     94  CA       148.9010   -3.8120   -2.2780 C.3    93  VAL93       0.1561
     95  C        148.2940   -3.9790   -3.6700 C.2    93  VAL93       0.2260
     96  O        148.3630   -3.0720   -4.5040 O.2    93  VAL93      -0.2867
     97  CB       147.8310   -3.3130   -1.2520 C.3    93  VAL93       0.0252
     98  CG1      146.9170   -2.2480   -1.8710 C.3    93  VAL93       0.0019
     99  CG2      147.0100   -4.4210   -0.7500 C.3    93  VAL93       0.0019
    100  N        144.5490   -6.2770   -5.0900 N.3    95  ASP95      -0.1239
    101  CA       143.5670   -7.2540   -4.6460 C.3    95  ASP95       0.1674
    102  C        143.7340   -8.5150   -5.4860 C.2    95  ASP95       0.2266
    103  O        144.2950   -8.4810   -6.5850 O.2    95  ASP95      -0.2867
    104  CB       142.1180   -6.6970   -4.6640 C.3    95  ASP95       0.1410
    105  CG       141.5040   -6.5970   -6.0560 C.2    95  ASP95       0.3668
    106  OD1      140.6300   -5.7130   -6.2130 O.co2  95  ASP95      -0.2456
    107  OD2      141.8110   -7.3990   -6.9840 O.co2  95  ASP95      -0.2456
    108  N        142.9820   -8.8020   -0.1910 N.3   141  LEU141     -0.1245
    109  CA       144.1400   -7.9910   -0.5590 C.3   141  LEU141      0.1561
    110  C        145.4230   -8.7920   -0.3850 C.2   141  LEU141      0.2260
    111  O        145.5230   -9.6240    0.5170 O.2   141  LEU141     -0.2867
    112  CB       144.2240   -6.7120    0.2840 C.3   141  LEU141      0.0270
    113  CG       142.9580   -5.8470    0.2210 C.3   141  LEU141      0.0019
    114  CD1      143.1650   -4.5940    1.0600 C.3   141  LEU141      0.0001
    115  CD2      142.6490   -5.4570   -1.2530 C.3   141  LEU141      0.0001
    116  N        138.7700   -8.6100    3.3190 N.3   152  ILE152     -0.1231
    117  CA       138.0900   -7.3300    3.5120 C.3   152  ILE152      0.1692
    118  C        136.5940   -7.4840    3.2880 C.2   152  ILE152      0.2592
    119  O        136.1070   -8.5190    2.8250 O.2   152  ILE152     -0.2718
    120  CB       138.6140   -6.2290    2.5700 C.3   152  ILE152      0.0266
    121  CG1      138.4960   -6.6980    1.1150 C.3   152  ILE152      0.0019
    122  CG2      140.0730   -5.9010    2.8700 C.3   152  ILE152      0.0020
    123  CD1      138.7980   -5.5610    0.1070 C.3   152  ILE152      0.0001
    124  N        135.8850   -6.3840    3.5750 N.am  153  ASP153     -0.1974
    125  CA       134.4650   -6.1660    3.3190 C.3   153  ASP153      0.1709
    126  C        133.5760   -7.1780    4.0170 C.2   153  ASP153      0.2293
    127  O        133.1520   -8.1910    3.4320 O.2   153  ASP153     -0.2864
    128  CB       134.1700   -6.1580    1.8070 C.3   153  ASP153      0.1436
    129  CG       132.7330   -5.6740    1.4890 C.2   153  ASP153      0.3671
    130  OD1      131.9690   -5.2990    2.4340 O.co2 153  ASP153     -0.2456
    131  OD2      132.3750   -5.6440    0.2810 O.co2 153  ASP153     -0.2456
@<TRIPOS>BOND
     1   107   105   ar
     2   103   102    2
     3   106   105   ar
     4   105   104    1
     5     4     3    2
     6   102   101    1
     7   100   101    1
     8     3     2    1
     9   104   101    1
    10    96    95    2
    11     2     1    1
    12     2     5    1
    13    95    94    1
    14    19    17   ar
    15    19    18   ar
    16    17    15   ar
    17     5     6    1
    18     8     6    1
    19    93    94    1
    20    94    97    1
    21    18    16   ar
    22     6     7    1
    23    15    14   ar
    24    98    97    1
    25    23    22    2
    26   115   113    1
    27    97    99    1
    28     9    10    1
    29    16    14   ar
    30    14    13    1
    31    20    21    1
    32   109   110    1
    33   109   108    1
    34   109   112    1
    35    22    21    1
    36   110   111    2
    37    24    21    1
    38    24    26    1
    39    24    25    1
    40   123   121    1
    41   113   112    1
    42   113   114    1
    43    10    13    1
    44    10    11    1
    45   131   129   ar
    46    11    12    2
    47    84    83    1
    48   121   120    1
    49    89    88    2
    50   129   128    1
    51   129   130   ar
    52    81    82    1
    53    81    80    1
    54   128   125    1
    55    83    82    2
    56    83    85    1
    57    88    87    1
    58    80    79    1
    59   120   122    1
    60   120   117    1
    61   119   118    2
    62    90    87    1
    63    90    91    1
    64   118   117    1
    65   118   124   am
    66    87    86    1
    67    91    92    1
    68   125   124    1
    69   125   126    1
    70    39    40    1
    71    39    38    1
    72   116   117    1
    73    92    86    1
    74   127   126    2
    75    31    28    1
    76    86    77   am
    77    79    76    1
    78    37    38    1
    79    37    36    1
    80    33    36    1
    81    33    34    1
    82    33    32    1
    83    77    76    1
    84    77    78    2
    85    28    29    1
    86    28    27    1
    87    76    75    1
    88    34    35    2
    89    29    30    2
    90    55    57    1
    91    55    54    1
    92    69    68    2
    93    75    68   am
    94    49    47   ar
    95    48    47   ar
    96    64    63    1
    97    68    67    1
    98    54    56    1
    99    54    51    1
   100    47    46    1
   101    62    63    1
   102    62    59    1
   103    61    60    2
   104    63    65    1
   105    50    51    1
   106    51    52    1
   107    67    70    1
   108    67    66    1
   109    60    66   am
   110    60    59    1
   111    46    45    1
   112    70    71    1
   113    59    58    1
   114    45    42    1
   115    52    53    2
   116    73    72   ar
   117    71    72    1
   118    42    41    1
   119    42    43    1
   120    72    74   ar
   121    43    44    2
