@<TRIPOS>MOLECULE
tmp/5n4vA01.pdb
 154 144 0 0 0
SMALL
GASTEIGER

@<TRIPOS>ATOM
      1  N         90.5750   80.0360    0.3200 N.3    12  LEU12      -0.1231
      2  CA        91.0910   81.3460    0.7100 C.3    12  LEU12       0.1693
      3  C         90.0520   82.2000    1.4230 C.2    12  LEU12       0.2592
      4  O         90.4010   82.9790    2.3200 O.2    12  LEU12      -0.2718
      5  CB        91.6040   82.1040   -0.5200 C.3    12  LEU12       0.0284
      6  CG        92.8320   81.5300   -1.2280 C.3    12  LEU12       0.0019
      7  CD1       93.0180   82.1850   -2.5880 C.3    12  LEU12       0.0001
      8  CD2       94.0820   81.7080   -0.3710 C.3    12  LEU12       0.0001
      9  N         88.7910   82.0940    1.0310 N.am   13  GLY13      -0.1957
     10  CA        87.7370   82.8340    1.7000 C.3    13  GLY13       0.1869
     11  C         86.4100   82.5020    1.0590 C.2    13  GLY13       0.2309
     12  O         86.3460   81.9300   -0.0380 O.2    13  GLY13      -0.2863
     13  N         80.5810   86.9300   -2.1970 N.3    17  PHE17      -0.1241
     14  CA        81.1290   86.7070   -3.5290 C.3    17  PHE17       0.1605
     15  C         81.1050   85.2430   -3.9600 C.2    17  PHE17       0.2264
     16  O         81.3110   84.9670   -5.1460 O.2    17  PHE17      -0.2867
     17  CB        82.5710   87.2280   -3.5910 C.3    17  PHE17       0.0534
     18  CG        83.4300   86.7670   -2.4460 C.ar   17  PHE17      -0.0203
     19  CD1       83.6100   87.5720   -1.3300 C.ar   17  PHE17      -0.0042
     20  CD2       84.0490   85.5230   -2.4780 C.ar   17  PHE17      -0.0042
     21  CE1       84.4010   87.1450   -0.2620 C.ar   17  PHE17      -0.0003
     22  CE2       84.8400   85.0910   -1.4180 C.ar   17  PHE17      -0.0003
     23  CZ        85.0190   85.9040   -0.3100 C.ar   17  PHE17      -0.0000
     24  N         86.2630   81.0190   -2.7460 N.3    20  VAL20      -0.1245
     25  CA        87.4860   81.2000   -3.5260 C.3    20  VAL20       0.1561
     26  C         88.5700   80.2940   -2.9600 C.2    20  VAL20       0.2260
     27  O         88.8590   80.3480   -1.7560 O.2    20  VAL20      -0.2867
     28  CB        87.9540   82.6660   -3.5140 C.3    20  VAL20       0.0252
     29  CG1       89.3070   82.8080   -4.2260 C.3    20  VAL20       0.0019
     30  CG2       86.9010   83.5720   -4.1400 C.3    20  VAL20       0.0019
     31  N         93.5610   81.9760   -8.4410 N.3    33  ALA33      -0.1245
     32  CA        92.4730   81.9030   -7.4780 C.3    33  ALA33       0.1562
     33  C         91.2480   81.3890   -8.2130 C.2    33  ALA33       0.2260
     34  O         90.9540   81.8420   -9.3250 O.2    33  ALA33      -0.2867
     35  CB        92.1990   83.2620   -6.8370 C.3    33  ALA33       0.0290
     36  N         87.3150   80.8180   -8.2050 N.3    35  LYS35      -0.1245
     37  CA        86.1460   81.4130   -7.5700 C.3    35  LYS35       0.1561
     38  C         84.8850   80.7100   -8.0550 C.2    35  LYS35       0.2260
     39  O         84.6070   80.6770   -9.2610 O.2    35  LYS35      -0.2867
     40  CB        86.0770   82.9120   -7.8700 C.3    35  LYS35       0.0271
     41  CG        84.9290   83.6380   -7.1930 C.3    35  LYS35       0.0035
     42  CD        84.9580   85.1190   -7.5900 C.3    35  LYS35       0.0206
     43  CE        83.8620   85.8970   -6.9270 C.3    35  LYS35       0.1093
     44  NZ        84.0090   87.3630   -7.1820 N.3    35  LYS35      -0.1314
     45  N         79.4530   89.5940  -13.8410 N.3    57  GLU57      -0.1245
     46  CA        80.8260   89.6730  -13.3550 C.3    57  GLU57       0.1567
     47  C         81.8040   89.1660  -14.4080 C.2    57  GLU57       0.2260
     48  O         82.8960   89.7220  -14.5700 O.2    57  GLU57      -0.2867
     49  CB        80.9760   88.8900  -12.0470 C.3    57  GLU57       0.0388
     50  CG        82.4050   88.8150  -11.5490 C.3    57  GLU57       0.1160
     51  CD        82.5470   88.1250  -10.1980 C.2    57  GLU57       0.3649
     52  OE1       81.5430   87.5990   -9.6620 O.co2  57  GLU57      -0.2457
     53  OE2       83.6780   88.1210   -9.6760 O.co2  57  GLU57      -0.2457
     54  N         84.7020   91.5500  -16.0120 N.3    61  LEU61      -0.1245
     55  CA        86.1020   91.1350  -15.9530 C.3    61  LEU61       0.1561
     56  C         86.7180   91.0740  -17.3470 C.2    61  LEU61       0.2260
     57  O         87.8650   91.4960  -17.5440 O.2    61  LEU61      -0.2867
     58  CB        86.2260   89.7810  -15.2440 C.3    61  LEU61       0.0270
     59  CG        86.1130   89.8340  -13.7130 C.3    61  LEU61       0.0019
     60  CD1       86.0150   88.4230  -13.0990 C.3    61  LEU61       0.0001
     61  CD2       87.3010   90.5680  -13.1080 C.3    61  LEU61       0.0001
     62  N         92.3730   92.8370  -11.3290 N.3    72  ILE72      -0.1245
     63  CA        92.4960   91.3830  -11.3940 C.3    72  ILE72       0.1561
     64  C         92.1670   90.8810  -12.7970 C.2    72  ILE72       0.2260
     65  O         91.2610   91.3880  -13.4770 O.2    72  ILE72      -0.2867
     66  CB        91.6040   90.7140  -10.3300 C.3    72  ILE72       0.0252
     67  CG1       92.0700   89.2800  -10.0620 C.3    72  ILE72       0.0019
     68  CG2       90.1260   90.7170  -10.7340 C.3    72  ILE72       0.0019
     69  CD1       93.1930   89.2080   -9.0800 C.3    72  ILE72       0.0001
     70  N         91.0210   83.2270  -11.7560 N.3    88  LEU88      -0.1231
     71  CA        91.5860   84.5600  -11.6220 C.3    88  LEU88       0.1693
     72  C         93.0710   84.4560  -11.3010 C.2    88  LEU88       0.2592
     73  O         93.5160   83.5020  -10.6510 O.2    88  LEU88      -0.2718
     74  CB        90.8670   85.3530  -10.5130 C.3    88  LEU88       0.0284
     75  CG        89.3420   85.4950  -10.6290 C.3    88  LEU88       0.0019
     76  CD1       88.7300   85.8520   -9.2720 C.3    88  LEU88       0.0001
     77  CD2       88.9500   86.5370  -11.6740 C.3    88  LEU88       0.0001
     78  N         93.8430   85.4400  -11.7610 N.am   89  GLU89      -0.1966
     79  CA        95.2490   85.4720  -11.3830 C.3    89  GLU89       0.1733
     80  C         95.3740   85.6330   -9.8720 C.2    89  GLU89       0.2616
     81  O         94.4710   86.1400   -9.1990 O.2    89  GLU89      -0.2715
     82  CB        95.9780   86.6090  -12.0990 C.3    89  GLU89       0.0429
     83  CG        95.6070   87.9790  -11.5830 C.3    89  GLU89       0.1163
     84  CD        96.2710   89.0950  -12.3610 C.2    89  GLU89       0.3649
     85  OE1       97.3500   88.8630  -12.9530 O.co2  89  GLU89      -0.2457
     86  OE2       95.7030   90.2030  -12.3900 O.co2  89  GLU89      -0.2457
     87  N         96.4970   85.1770   -9.3310 N.am   90  ARG90      -0.1964
     88  CA        96.7530   85.2770   -7.8960 C.3    90  ARG90       0.1714
     89  C         98.1600   85.8050   -7.6650 C.2    90  ARG90       0.2458
     90  O         99.1400   85.0840   -7.9430 O.2    90  ARG90      -0.2730
     91  CB        96.5620   83.9280   -7.2080 C.3    90  ARG90       0.0347
     92  CG        96.9690   83.9430   -5.7410 C.3    90  ARG90       0.0492
     93  CD        96.5160   82.6870   -5.0220 C.3    90  ARG90       0.2205
     94  NE        97.0770   81.4680   -5.6010 N.pl3  90  ARG90      -0.0865
     95  CZ        98.2390   80.9330   -5.2310 C.cat  90  ARG90       0.5346
     96  NH1       98.9740   81.5210   -4.2910 N.pl3  90  ARG90       0.1354
     97  NH2       98.6680   79.8150   -5.8010 N.pl3  90  ARG90       0.1354
     98  N         98.3090   87.0350   -7.1830 N.am   91  PRO91      -0.2727
     99  CA        99.6400   87.5210   -6.8100 C.3    91  PRO91       0.1402
    100  C        100.1980   86.7010   -5.6610 C.2    91  PRO91       0.2269
    101  O         99.4640   86.2380   -4.7860 O.2    91  PRO91      -0.2865
    102  CB        99.3880   88.9750   -6.3810 C.3    91  PRO91       0.0296
    103  CG        97.9940   89.3020   -6.8280 C.3    91  PRO91       0.0237
    104  CD        97.2500   88.0120   -6.8800 C.3    91  PRO91       0.0939
    105  N        101.2010   87.9260   -1.2540 N.3    94  VAL94      -0.1245
    106  CA       100.1030   88.8820   -1.3130 C.3    94  VAL94       0.1561
    107  C         99.5490   89.0690    0.0900 C.2    94  VAL94       0.2260
    108  O         99.6290   88.1690    0.9320 O.2    94  VAL94      -0.2867
    109  CB        99.0030   88.4010   -2.2930 C.3    94  VAL94       0.0252
    110  CG1       98.2500   87.2050   -1.7220 C.3    94  VAL94       0.0019
    111  CG2       98.0360   89.5310   -2.6430 C.3    94  VAL94       0.0019
    112  N         88.9520   94.7460   -0.8750 N.3   140  ASN140     -0.1240
    113  CA        88.9680   94.3830   -2.2860 C.3   140  ASN140      0.1653
    114  C         90.2030   94.9140   -3.0060 C.2   140  ASN140      0.2266
    115  O         90.1780   95.1090   -4.2320 O.2   140  ASN140     -0.2867
    116  CB        87.6720   94.8530   -2.9450 C.3   140  ASN140      0.1155
    117  CG        86.5010   93.9850   -2.5440 C.2   140  ASN140      0.2627
    118  OD1       86.7070   92.8580   -2.0920 O.2   140  ASN140     -0.2716
    119  ND2       85.2870   94.4930   -2.6670 N.am  140  ASN140     -0.0877
    120  N         94.3470   94.0140   -3.3270 N.3   142  LEU142     -0.1245
    121  CA        95.4510   93.1080   -3.0290 C.3   142  LEU142      0.1561
    122  C         96.7750   93.8400   -3.2140 C.2   142  LEU142      0.2260
    123  O         96.9550   94.5910   -4.1800 O.2   142  LEU142     -0.2867
    124  CB        95.4130   91.8660   -3.9310 C.3   142  LEU142      0.0270
    125  CG        94.2010   90.9350   -3.8320 C.3   142  LEU142      0.0019
    126  CD1       94.3800   89.7370   -4.7800 C.3   142  LEU142      0.0001
    127  CD2       93.9690   90.4720   -2.3900 C.3   142  LEU142      0.0001
    128  N         90.0940   93.8450   -6.8430 N.3   153  ILE153     -0.1231
    129  CA        89.4750   92.5320   -7.0330 C.3   153  ILE153      0.1692
    130  C         87.9800   92.5840   -6.7530 C.2   153  ILE153      0.2592
    131  O         87.4460   93.6230   -6.3550 O.2   153  ILE153     -0.2718
    132  CB        90.1360   91.4550   -6.1460 C.3   153  ILE153      0.0266
    133  CG1       89.8980   91.7720   -4.6580 C.3   153  ILE153      0.0019
    134  CG2       91.6180   91.3480   -6.4630 C.3   153  ILE153      0.0020
    135  CD1       90.2570   90.6210   -3.7190 C.3   153  ILE153      0.0001
    136  N         87.3040   91.4450   -6.9710 N.am  154  ASP154     -0.1960
    137  CA        85.8870   91.2000   -6.6980 C.3   154  ASP154      0.1840
    138  C         84.9580   92.1810   -7.4000 C.2   154  ASP154      0.2622
    139  O         84.4240   93.1280   -6.8000 O.2   154  ASP154     -0.2715
    140  CB        85.5830   91.1850   -5.2010 C.3   154  ASP154      0.1450
    141  CG        84.2210   90.5730   -4.9050 C.2   154  ASP154      0.3671
    142  OD1       83.8710   90.4160   -3.7190 O.co2 154  ASP154     -0.2456
    143  OD2       83.4920   90.2380   -5.8720 O.co2 154  ASP154     -0.2456
    144  N         84.7250   91.9080   -8.6770 N.am  155  PHE155     -0.1974
    145  CA        83.8010   92.6740   -9.4960 C.3   155  PHE155      0.1639
    146  C         82.3600   92.1620   -9.3930 C.2   155  PHE155      0.2290
    147  O         81.5200   92.5110  -10.2340 O.2   155  PHE155     -0.2864
    148  CB        84.2920   92.6520  -10.9440 C.3   155  PHE155      0.0560
    149  CG        85.4520   93.5780  -11.2010 C.ar  155  PHE155     -0.0200
    150  CD1       85.2640   94.7450  -11.9340 C.ar  155  PHE155     -0.0042
    151  CD2       86.7130   93.3070  -10.6860 C.ar  155  PHE155     -0.0042
    152  CE1       86.3210   95.6170  -12.1770 C.ar  155  PHE155     -0.0003
    153  CE2       87.7790   94.1830  -10.9160 C.ar  155  PHE155     -0.0003
    154  CZ        87.5770   95.3390  -11.6610 C.ar  155  PHE155     -0.0000
@<TRIPOS>BOND
     1    57    56    2
     2    56    55    1
     3    54    55    1
     4    55    58    1
     5    58    59    1
     6    48    47    2
     7    47    46    1
     8    45    46    1
     9    59    61    1
    10    59    60    1
    11    65    64    2
    12    46    49    1
    13    85    84   ar
    14    64    63    1
    15    86    84   ar
    16    84    83    1
    17   152   150   ar
    18   152   154   ar
    19    82    83    1
    20    82    79    1
    21    49    50    1
    22   150   149   ar
    23    78    79    1
    24    78    72   am
    25    70    71    1
    26    77    75    1
    27   154   153   ar
    28    71    72    1
    29    71    74    1
    30    50    51    1
    31    63    62    1
    32    63    66    1
    33    79    80    1
    34    72    73    2
    35   149   148    1
    36   149   151   ar
    37   148   145    1
    38   153   151   ar
    39    68    66    1
    40    75    74    1
    41    75    76    1
    42    66    67    1
    43   147   146    2
    44    51    53   ar
    45    51    52   ar
    46    67    69    1
    47    80    87   am
    48    80    81    2
    49   145   146    1
    50   145   144    1
    51    87    88    1
    52    34    33    2
    53    39    38    2
    54   144   138   am
    55    31    32    1
    56    33    32    1
    57    36    37    1
    58    38    37    1
    59    90    89    2
    60    88    89    1
    61    88    91    1
    62    40    37    1
    63    40    41    1
    64    89    98   am
    65    42    41    1
    66    42    43    1
    67    32    35    1
    68   138   139    2
    69   138   137    1
    70    91    92    1
    71    98   104    1
    72    98    99    1
    73    44    43    1
    74   129   128    1
    75   129   130    1
    76   129   132    1
    77   136   130   am
    78   136   137    1
    79   104   103    1
    80   103   102    1
    81    99   102    1
    82    99   100    1
    83   130   131    2
    84   137   140    1
    85   134   132    1
    86   132   133    1
    87   143   141   ar
    88    97    95    1
    89    92    93    1
    90   100   101    2
    91    94    95    2
    92    94    93    1
    93    95    96    1
    94   140   141    1
    95    16    15    2
    96   141   142   ar
    97   126   125    1
    98   133   135    1
    99   115   114    2
   100    29    28    1
   101   123   122    2
   102    30    28    1
   103    15    14    1
   104   124   125    1
   105   124   121    1
   106   125   127    1
   107    17    14    1
   108    17    18    1
   109    14    13    1
   110    25    28    1
   111    25    26    1
   112    25    24    1
   113   120   121    1
   114   122   121    1
   115   114   113    1
   116    26    27    2
   117   116   117    1
   118   116   113    1
   119   119   117   am
   120   111   109    1
   121     7     6    1
   122   117   118    2
   123    20    18   ar
   124    20    22   ar
   125    18    19   ar
   126   109   110    1
   127   109   106    1
   128   113   112    1
   129    22    23   ar
   130    19    21   ar
   131   106   105    1
   132   106   107    1
   133     6     5    1
   134     6     8    1
   135     5     2    1
   136    23    21   ar
   137    12    11    2
   138   107   108    2
   139     1     2    1
   140     2     3    1
   141     9     3   am
   142     9    10    1
   143    11    10    1
   144     3     4    2
