@<TRIPOS>MOLECULE
tmp/5n4xA00.pdb
 183 173 0 0 0
SMALL
GASTEIGER

@<TRIPOS>ATOM
      1  N        129.1800   -2.0270   -3.7610 N.3    16  GLY16      -0.1225
      2  CA       128.3300   -2.5350   -2.6930 C.3    16  GLY16       0.1811
      3  C        128.9240   -2.3620   -1.3130 C.2    16  GLY16       0.2280
      4  O        128.1820   -2.3410   -0.3260 O.2    16  GLY16      -0.2866
      5  N        144.6730   -6.2650   -4.9450 N.3    95  ASP95      -0.1239
      6  CA       143.6910   -7.2840   -4.6170 C.3    95  ASP95       0.1674
      7  C        143.8840   -8.5040   -5.5180 C.2    95  ASP95       0.2266
      8  O        144.4760   -8.4260   -6.6060 O.2    95  ASP95      -0.2867
      9  CB       142.2450   -6.7260   -4.6540 C.3    95  ASP95       0.1410
     10  CG       141.6430   -6.5720   -6.0670 C.2    95  ASP95       0.3668
     11  OD1      141.8790   -7.3610   -7.0040 O.co2  95  ASP95      -0.2456
     12  OD2      140.8390   -5.6350   -6.2260 O.co2  95  ASP95      -0.2456
     13  N        141.8430  -10.3150   -7.2360 N.3    97  PHE97      -0.1227
     14  CA       141.1940  -10.3110   -8.5500 C.3    97  PHE97       0.1736
     15  C        142.0890   -9.6650   -9.6070 C.2    97  PHE97       0.2595
     16  O        142.2730  -10.2090  -10.7030 O.2    97  PHE97      -0.2718
     17  CB       139.8400   -9.5880   -8.4980 C.3    97  PHE97       0.0547
     18  CG       139.1560   -9.4890   -9.8640 C.ar   97  PHE97      -0.0202
     19  CD1      138.2250  -10.4430  -10.2590 C.ar   97  PHE97      -0.0042
     20  CD2      139.4830   -8.4560  -10.7600 C.ar   97  PHE97      -0.0042
     21  CE1      137.6130  -10.3750  -11.5110 C.ar   97  PHE97      -0.0003
     22  CE2      138.8830   -8.3810  -12.0200 C.ar   97  PHE97      -0.0003
     23  CZ       137.9430   -9.3420  -12.3980 C.ar   97  PHE97      -0.0000
     24  N        142.6060   -8.4660   -9.3200 N.am   98  ASP98      -0.1974
     25  CA       143.5310   -7.8300  -10.2540 C.3    98  ASP98       0.1709
     26  C        144.7860   -8.6710  -10.4350 C.2    98  ASP98       0.2293
     27  O        145.3440   -8.7320  -11.5310 O.2    98  ASP98      -0.2864
     28  CB       143.9120   -6.4360   -9.7610 C.3    98  ASP98       0.1436
     29  CG       142.7620   -5.4680   -9.7940 C.2    98  ASP98       0.3671
     30  OD1      141.8350   -5.6750  -10.6070 O.co2  98  ASP98      -0.2456
     31  OD2      142.7980   -4.4880   -9.0140 O.co2  98  ASP98      -0.2456
     32  N        145.1780  -11.9880  -10.3020 N.3   100  ILE100     -0.1231
     33  CA       144.9080  -13.1200  -11.1850 C.3   100  ILE100      0.1692
     34  C        144.6710  -12.6440  -12.6150 C.2   100  ILE100      0.2592
     35  O        145.0800  -13.3050  -13.5790 O.2   100  ILE100     -0.2718
     36  CB       143.7170  -13.9380  -10.6450 C.3   100  ILE100      0.0266
     37  CG1      144.1400  -14.7190   -9.3980 C.3   100  ILE100      0.0019
     38  CG2      143.1780  -14.8620  -11.7140 C.3   100  ILE100      0.0020
     39  CD1      142.9590  -15.3060   -8.6020 C.3   100  ILE100      0.0001
     40  N        144.0270  -11.4870  -12.7800 N.am  101  THR101     -0.1953
     41  CA       143.8100  -10.9510  -14.1200 C.3   101  THR101      0.1897
     42  C        145.1250  -10.6830  -14.8320 C.2   101  THR101      0.2313
     43  O        145.2630  -10.9770  -16.0230 O.2   101  THR101     -0.2863
     44  CB       142.9900   -9.6630  -14.0610 C.3   101  THR101      0.1794
     45  OG1      141.6980   -9.9560  -13.5290 O.3   101  THR101     -0.2208
     46  CG2      142.8520   -9.0390  -15.4830 C.3   101  THR101      0.0378
     47  N        131.1270  -13.6670    1.9690 N.3   134  ASP134     -0.1239
     48  CA       131.4310  -13.0990    0.6610 C.3   134  ASP134      0.1674
     49  C        132.9040  -13.3430    0.3190 C.2   134  ASP134      0.2266
     50  O        133.6000  -12.4510   -0.1760 O.2   134  ASP134     -0.2867
     51  CB       131.0750  -11.6050    0.6070 C.3   134  ASP134      0.1410
     52  CG       130.9440  -11.0670   -0.8340 C.2   134  ASP134      0.3668
     53  OD1      131.0030   -9.8230   -1.0140 O.co2 134  ASP134     -0.2456
     54  OD2      130.8040  -11.8800   -1.7900 O.co2 134  ASP134     -0.2456
     55  N        135.8380  -14.1710   -1.8130 N.3   136  LYS136     -0.1231
     56  CA       136.1130  -14.1590   -3.2440 C.3   136  LYS136      0.1693
     57  C        137.4180  -13.4000   -3.4600 C.2   136  LYS136      0.2592
     58  O        137.8950  -12.6960   -2.5640 O.2   136  LYS136     -0.2718
     59  CB       134.9520  -13.5250   -4.0250 C.3   136  LYS136      0.0285
     60  CG       134.5430  -12.0940   -3.5760 C.3   136  LYS136      0.0035
     61  CD       133.4670  -11.5130   -4.5510 C.3   136  LYS136      0.0206
     62  CE       133.1090  -10.0550   -4.2060 C.3   136  LYS136      0.1093
     63  NZ       132.1490   -9.4570   -5.1750 N.3   136  LYS136     -0.1314
     64  N        137.9770  -13.5200   -4.6740 N.am  137  ASP137     -0.1960
     65  CA       139.2650  -12.8770   -4.9510 C.3   137  ASP137      0.1840
     66  C        139.2010  -11.3610   -4.7620 C.2   137  ASP137      0.2621
     67  O        140.1680  -10.7530   -4.2860 O.2   137  ASP137     -0.2715
     68  CB       139.7790  -13.2340   -6.3550 C.3   137  ASP137      0.1450
     69  CG       138.7650  -12.9510   -7.4900 C.2   137  ASP137      0.3671
     70  OD1      137.6970  -12.3370   -7.2910 O.co2 137  ASP137     -0.2456
     71  OD2      139.0580  -13.3510   -8.6340 O.co2 137  ASP137     -0.2456
     72  N        138.0670  -10.7350   -5.1140 N.am  138  GLU138     -0.1977
     73  CA       137.9110   -9.2920   -4.9300 C.3   138  GLU138      0.1602
     74  C        138.0080   -8.8590   -3.4720 C.2   138  GLU138      0.2287
     75  O        138.3120   -7.6940   -3.2060 O.2   138  GLU138     -0.2864
     76  CB       136.5590   -8.8020   -5.4580 C.3   138  GLU138      0.0415
     77  CG       136.2670   -9.0870   -6.9100 C.3   138  GLU138      0.1163
     78  CD       134.9010   -8.5630   -7.3050 C.2   138  GLU138      0.3649
     79  OE1      133.9840   -9.3780   -7.5620 O.co2 138  GLU138     -0.2457
     80  OE2      134.7450   -7.3190   -7.3200 O.co2 138  GLU138     -0.2457
     81  N        128.5510   -8.0880    4.1260 N.3   156  SER156     -0.1217
     82  CA       127.5440   -9.1280    3.9250 C.3   156  SER156      0.1889
     83  C        127.5860  -10.1990    5.0060 C.2   156  SER156      0.2288
     84  O        126.8820  -11.2030    4.8920 O.2   156  SER156     -0.2866
     85  CB       127.7170   -9.8120    2.5650 C.3   156  SER156      0.2089
     86  OG       127.7710   -8.8770    1.4860 O.3   156  SER156     -0.2183
     87  N        123.2810  -11.9400    0.8580 N.3   169  ASP169     -0.1225
     88  CA       123.5340  -10.8140   -0.0280 C.3   169  ASP169      0.1805
     89  C        124.9970  -10.7710   -0.4590 C.2   169  ASP169      0.2598
     90  O        125.5170   -9.7070   -0.8190 O.2   169  ASP169     -0.2718
     91  CB       123.1190   -9.4900    0.6330 C.3   169  ASP169      0.1424
     92  CG       123.0570   -8.3630   -0.3950 C.2   169  ASP169      0.3668
     93  OD1      122.5870   -8.4940   -1.5190 O.co2 169  ASP169     -0.2456
     94  OD2      123.6110   -7.2890   -0.0040 O.co2 169  ASP169     -0.2456
     95  N        125.6720  -11.9130   -0.4530 N.am  170  GLY170     -0.1942
     96  CA       127.0220  -12.0040   -0.9680 C.3   170  GLY170      0.2014
     97  C        127.0200  -12.1320   -2.4800 C.2   170  GLY170      0.2640
     98  O        126.0630  -11.7610   -3.1550 O.2   170  GLY170     -0.2714
     99  N        128.0970  -12.6920   -3.0210 N.am  171  THR171     -0.1936
    100  CA       128.2600  -12.7790   -4.4680 C.3   171  THR171      0.2028
    101  C        127.6740  -14.0970   -4.9770 C.2   171  THR171      0.2642
    102  O        128.0910  -15.1790   -4.5460 O.2   171  THR171     -0.2714
    103  CB       129.7310  -12.6390   -4.8520 C.3   171  THR171      0.1808
    104  OG1      130.2250  -11.3860   -4.3610 O.3   171  THR171     -0.2208
    105  CG2      129.8810  -12.6670   -6.3840 C.3   171  THR171      0.0379
    106  N        126.7250  -13.9980   -5.9160 N.am  172  ARG172     -0.1963
    107  CA       125.9340  -15.1630   -6.3020 C.3   172  ARG172      0.1729
    108  C        126.7960  -16.2490   -6.9360 C.2   172  ARG172      0.2616
    109  O        126.5790  -17.4440   -6.6850 O.2   172  ARG172     -0.2715
    110  CB       124.8080  -14.7430   -7.2540 C.3   172  ARG172      0.0348
    111  CG       123.7600  -15.8330   -7.5050 C.3   172  ARG172      0.0492
    112  CD       122.5710  -15.3140   -8.3360 C.3   172  ARG172      0.2205
    113  NE       121.5760  -16.3480   -8.6110 N.pl3 172  ARG172     -0.0865
    114  CZ       120.6160  -16.7220   -7.7610 C.cat 172  ARG172      0.5346
    115  NH1      120.5170  -16.1630   -6.5610 N.pl3 172  ARG172      0.1354
    116  NH2      119.7430  -17.6600   -8.1100 N.pl3 172  ARG172      0.1354
    117  N        127.7850  -15.8680   -7.7520 N.am  173  VAL173     -0.1963
    118  CA       128.5910  -16.8780   -8.4400 C.3   173  VAL173      0.1727
    119  C        129.5160  -17.6380   -7.5020 C.2   173  VAL173      0.2616
    120  O        130.0910  -18.6480   -7.9220 O.2   173  VAL173     -0.2715
    121  CB       129.4230  -16.3010   -9.6150 C.3   173  VAL173      0.0290
    122  CG1      128.5100  -16.0280  -10.8530 C.3   173  VAL173      0.0023
    123  CG2      130.2050  -15.0470   -9.2030 C.3   173  VAL173      0.0023
    124  N        129.6710  -17.1900   -6.2460 N.am  174  TYR174     -0.1974
    125  CA       130.3800  -17.9540   -5.2190 C.3   174  TYR174      0.1639
    126  C        129.4250  -18.5970   -4.2230 C.2   174  TYR174      0.2290
    127  O        129.8760  -19.1570   -3.2140 O.2   174  TYR174     -0.2864
    128  CB       131.3650  -17.0720   -4.4410 C.3   174  TYR174      0.0560
    129  CG       132.6430  -16.6560   -5.1430 C.ar  174  TYR174     -0.0198
    130  CD1      132.6320  -15.6910   -6.1510 C.ar  174  TYR174     -0.0009
    131  CD2      133.8680  -17.1870   -4.7580 C.ar  174  TYR174     -0.0009
    132  CE1      133.8110  -15.3010   -6.7930 C.ar  174  TYR174      0.0417
    133  CE2      135.0590  -16.7950   -5.3880 C.ar  174  TYR174      0.0417
    134  CZ       135.0130  -15.8570   -6.4040 C.ar  174  TYR174      0.1957
    135  OH       136.1860  -15.4640   -6.9970 O.3   174  TYR174     -0.2866
    136  N        139.4070  -20.6850   -9.1820 N.3   201  ASP201     -0.1239
    137  CA       139.7710  -19.3710   -9.7040 C.3   201  ASP201      0.1674
    138  C        141.2880  -19.1720   -9.7220 C.2   201  ASP201      0.2266
    139  O        141.8540  -18.7240  -10.7260 O.2   201  ASP201     -0.2867
    140  CB       139.0800  -18.3120   -8.8460 C.3   201  ASP201      0.1410
    141  CG       139.3390  -16.8990   -9.3080 C.2   201  ASP201      0.3668
    142  OD1      139.2400  -16.5820  -10.5230 O.co2 201  ASP201     -0.2456
    143  OD2      139.6340  -16.0850   -8.4070 O.co2 201  ASP201     -0.2456
    144  N        142.5780  -19.4050  -13.4750 N.3   205  GLY205     -0.1210
    145  CA       142.5340  -18.0530  -13.9880 C.3   205  GLY205      0.1956
    146  C        141.1590  -17.4140  -14.0320 C.2   205  GLY205      0.2612
    147  O        141.0670  -16.2090  -14.3150 O.2   205  GLY205     -0.2717
    148  N        140.0940  -18.1680  -13.7640 N.am  206  ASP206     -0.1959
    149  CA       138.7630  -17.5890  -13.6230 C.3   206  ASP206      0.1840
    150  C        137.8650  -18.6010  -12.9200 C.2   206  ASP206      0.2621
    151  O        138.2270  -19.7640  -12.7520 O.2   206  ASP206     -0.2715
    152  CB       138.1700  -17.1740  -14.9710 C.3   206  ASP206      0.1450
    153  CG       137.0990  -16.0900  -14.8260 C.2   206  ASP206      0.3671
    154  OD1      136.8550  -15.6070  -13.6850 O.co2 206  ASP206     -0.2456
    155  OD2      136.5200  -15.7050  -15.8600 O.co2 206  ASP206     -0.2456
    156  N        136.6890  -18.1420  -12.5050 N.am  207  ILE207     -0.1977
    157  CA       135.7930  -18.9610  -11.6890 C.3   207  ILE207      0.1596
    158  C        135.1540  -20.0250  -12.5740 C.2   207  ILE207      0.2287
    159  O        135.0980  -19.8610  -13.8020 O.2   207  ILE207     -0.2864
    160  CB       134.7290  -18.1020  -10.9830 C.3   207  ILE207      0.0276
    161  CG1      134.0150  -17.1790  -11.9800 C.3   207  ILE207      0.0022
    162  CG2      135.3450  -17.3170   -9.8230 C.3   207  ILE207      0.0022
    163  CD1      132.8630  -16.3610  -11.3210 C.3   207  ILE207      0.0001
    164  N        129.2400  -19.3910  -14.0560 N.3   210  GLU210     -0.1245
    165  CA       128.6220  -18.0750  -14.1960 C.3   210  GLU210      0.1567
    166  C        127.1040  -18.0890  -14.0650 C.2   210  GLU210      0.2260
    167  O        126.5240  -17.0410  -13.7670 O.2   210  GLU210     -0.2867
    168  CB       128.9630  -17.4300  -15.5590 C.3   210  GLU210      0.0388
    169  CG       130.4500  -17.0300  -15.7890 C.3   210  GLU210      0.1160
    170  CD       130.8990  -15.8050  -14.9800 C.2   210  GLU210      0.3649
    171  OE1      132.1170  -15.7030  -14.7040 O.co2 210  GLU210     -0.2457
    172  OE2      130.0580  -14.9450  -14.6180 O.co2 210  GLU210     -0.2457
    173  N        139.8750  -26.0100  -17.2180 N.3   223  ARG223     -0.1245
    174  CA       140.3010  -25.3300  -18.4400 C.3   223  ARG223      0.1563
    175  C        141.8040  -25.1210  -18.5030 C.2   223  ARG223      0.2260
    176  O        142.3070  -24.6380  -19.5190 O.2   223  ARG223     -0.2867
    177  CB       139.5880  -23.9710  -18.5620 C.3   223  ARG223      0.0307
    178  CG       139.7880  -23.0260  -17.3440 C.3   223  ARG223      0.0489
    179  CD       138.8280  -21.8070  -17.3940 C.3   223  ARG223      0.2205
    180  NE       137.5100  -22.1240  -16.8210 N.pl3 223  ARG223     -0.0865
    181  CZ       136.4330  -21.3400  -16.9100 C.cat 223  ARG223      0.5346
    182  NH1      136.4930  -20.1760  -17.5500 N.pl3 223  ARG223      0.1354
    183  NH2      135.2910  -21.7250  -16.3680 N.pl3 223  ARG223      0.1354
@<TRIPOS>BOND
     1   176   175    2
     2   177   174    1
     3   177   178    1
     4   175   174    1
     5   174   173    1
     6   182   181    1
     7   179   178    1
     8   179   180    1
     9   181   180    2
    10   181   183    1
    11    43    42    2
    12   155   153   ar
    13   169   168    1
    14   169   170    1
    15   168   165    1
    16    46    44    1
    17   170   171   ar
    18   170   172   ar
    19   152   153    1
    20   152   149    1
    21    42    41    1
    22   153   154   ar
    23   147   146    2
    24   165   166    1
    25   165   164    1
    26    41    44    1
    27    41    40    1
    28   166   167    2
    29    44    45    1
    30   146   145    1
    31   146   148   am
    32   145   144    1
    33   159   158    2
    34   148   149    1
    35   149   150    1
    36    35    34    2
    37   150   151    2
    38   150   156   am
    39    40    34   am
    40    34    33    1
    41   158   157    1
    42   156   157    1
    43    23    22   ar
    44    23    21   ar
    45    22    20   ar
    46   161   163    1
    47   161   160    1
    48    38    36    1
    49   157   160    1
    50    27    26    2
    51    21    19   ar
    52    33    36    1
    53    33    32    1
    54   160   162    1
    55   122   121    1
    56    20    18   ar
    57   139   138    2
    58    16    15    2
    59    36    37    1
    60    30    29   ar
    61   142   141   ar
    62    26    25    1
    63    19    18   ar
    64    25    28    1
    65    25    24    1
    66    18    17    1
    67    29    28    1
    68    29    31   ar
    69   138   137    1
    70   137   136    1
    71   137   140    1
    72   121   123    1
    73   121   118    1
    74    15    24   am
    75    15    14    1
    76    37    39    1
    77   141   140    1
    78   141   143   ar
    79    71    69   ar
    80   113   112    1
    81   113   114    2
    82    14    17    1
    83    14    13    1
    84   118   117    1
    85   118   119    1
    86   112   111    1
    87   116   114    1
    88   120   119    2
    89   114   115    1
    90   117   108   am
    91    79    78   ar
    92   111   110    1
    93   119   124   am
    94    69    70   ar
    95    69    68    1
    96    80    78   ar
    97    78    77    1
    98   110   107    1
    99    11    10   ar
   100   135   134    1
   101   108   109    2
   102   108   107    1
   103    77    76    1
   104   132   134   ar
   105   132   130   ar
   106     8     7    2
   107   134   133   ar
   108   105   103    1
   109    68    65    1
   110   107   106    1
   111   124   125    1
   112    12    10   ar
   113   130   129   ar
   114    10     9    1
   115   106   101   am
   116     7     6    1
   117    76    73    1
   118   133   131   ar
   119   125   128    1
   120   125   126    1
   121    63    62    1
   122   129   131   ar
   123   129   128    1
   124    72    73    1
   125    72    66   am
   126   101   102    2
   127   101   100    1
   128    65    66    1
   129    65    64    1
   130     5     6    1
   131    73    74    1
   132   103   100    1
   133   103   104    1
   134    66    67    2
   135    64    57   am
   136     9     6    1
   137    61    62    1
   138    61    60    1
   139   100    99    1
   140   126   127    2
   141    59    60    1
   142    59    56    1
   143     1     2    1
   144    74    75    2
   145    57    56    1
   146    57    58    2
   147    56    55    1
   148    98    97    2
   149    99    97   am
   150     2     3    1
   151    97    96    1
   152    54    52   ar
   153    93    92   ar
   154     3     4    2
   155    53    52   ar
   156    96    95    1
   157    52    51    1
   158    90    89    2
   159    89    95   am
   160    89    88    1
   161    92    94   ar
   162    92    91    1
   163    50    49    2
   164    88    91    1
   165    88    87    1
   166    49    48    1
   167    51    48    1
   168    48    47    1
   169    86    85    1
   170    85    82    1
   171    82    81    1
   172    82    83    1
   173    84    83    2
