@<TRIPOS>MOLECULE
tmp/5n4xA01.pdb
 114 106 0 0 0
SMALL
GASTEIGER

@<TRIPOS>ATOM
      1  N        139.8380    4.9550   -3.8570 N.3    12  LEU12      -0.1245
      2  CA       140.3570    3.6550   -4.2740 C.3    12  LEU12       0.1561
      3  C        139.3140    2.8360   -5.0310 C.2    12  LEU12       0.2260
      4  O        139.6560    2.1160   -5.9800 O.2    12  LEU12      -0.2867
      5  CB       140.8480    2.8630   -3.0550 C.3    12  LEU12       0.0270
      6  CG       142.0320    3.4210   -2.2600 C.3    12  LEU12       0.0019
      7  CD1      142.3570    2.5460   -1.0630 C.3    12  LEU12       0.0001
      8  CD2      143.2520    3.5480   -3.1550 C.3    12  LEU12       0.0001
      9  N        130.2500   -2.2170   -1.2280 N.3    17  PHE17      -0.1241
     10  CA       131.0050   -2.0400    0.0080 C.3    17  PHE17       0.1605
     11  C        131.1110   -0.5810    0.4730 C.2    17  PHE17       0.2264
     12  O        131.7690   -0.3300    1.4900 O.2    17  PHE17      -0.2867
     13  CB       132.4190   -2.6010   -0.1850 C.3    17  PHE17       0.0534
     14  CG       133.1030   -2.1140   -1.4560 C.ar   17  PHE17      -0.0203
     15  CD1      132.9870   -2.8280   -2.6460 C.ar   17  PHE17      -0.0042
     16  CD2      133.8490   -0.9450   -1.4580 C.ar   17  PHE17      -0.0042
     17  CE1      133.5980   -2.3780   -3.8220 C.ar   17  PHE17      -0.0003
     18  CE2      134.4650   -0.4830   -2.6330 C.ar   17  PHE17      -0.0003
     19  CZ       134.3490   -1.2100   -3.8090 C.ar   17  PHE17      -0.0000
     20  N        135.6040    3.9590   -0.7700 N.3    20  VAL20      -0.1245
     21  CA       136.8230    3.7320    0.0020 C.3    20  VAL20       0.1561
     22  C        137.9160    4.6600   -0.5050 C.2    20  VAL20       0.2260
     23  O        138.2410    4.6530   -1.7010 O.2    20  VAL20      -0.2867
     24  CB       137.2730    2.2670   -0.0650 C.3    20  VAL20       0.0252
     25  CG1      138.5770    2.0720    0.7000 C.3    20  VAL20       0.0019
     26  CG2      136.1800    1.3650    0.4780 C.3    20  VAL20       0.0019
     27  N        142.9080    3.1470    5.1330 N.3    33  ALA33      -0.1245
     28  CA       141.8150    3.2340    4.1770 C.3    33  ALA33       0.1562
     29  C        140.5840    3.7540    4.9030 C.2    33  ALA33       0.2260
     30  O        140.2970    3.3440    6.0280 O.2    33  ALA33      -0.2867
     31  CB       141.5290    1.8690    3.5150 C.3    33  ALA33       0.0290
     32  N        136.6150    4.1720    4.7400 N.3    35  LYS35      -0.1245
     33  CA       135.4190    3.6410    4.1000 C.3    35  LYS35       0.1561
     34  C        134.1870    4.3770    4.6140 C.2    35  LYS35       0.2260
     35  O        133.9600    4.4560    5.8270 O.2    35  LYS35      -0.2867
     36  CB       135.2820    2.1290    4.3470 C.3    35  LYS35       0.0271
     37  CG       134.0270    1.5250    3.7230 C.3    35  LYS35       0.0035
     38  CD       133.7110    0.0970    4.2080 C.3    35  LYS35       0.0206
     39  CE       134.4030   -0.9790    3.3800 C.3    35  LYS35       0.1093
     40  NZ       133.6860   -2.2850    3.4280 N.3    35  LYS35      -0.1314
     41  N        142.0180   -7.5540    7.5110 N.3    71  ILE71      -0.1245
     42  CA       142.2750   -6.1170    7.6450 C.3    71  ILE71       0.1561
     43  C        141.5920   -5.6170    8.9130 C.2    71  ILE71       0.2260
     44  O        140.4030   -5.8730    9.1430 O.2    71  ILE71      -0.2867
     45  CB       141.8100   -5.3460    6.3930 C.3    71  ILE71       0.0252
     46  CG1      142.7090   -5.6490    5.1850 C.3    71  ILE71       0.0019
     47  CG2      141.8620   -3.8200    6.6170 C.3    71  ILE71       0.0019
     48  CD1      144.0850   -5.0320    5.2700 C.3    71  ILE71       0.0001
     49  N        140.5000    1.7830    8.3710 N.3    87  LEU87      -0.1231
     50  CA       141.0790    0.4550    8.2570 C.3    87  LEU87       0.1693
     51  C        142.5680    0.5650    7.9870 C.2    87  LEU87       0.2592
     52  O        143.0320    1.5250    7.3740 O.2    87  LEU87      -0.2718
     53  CB       140.4040   -0.3510    7.1470 C.3    87  LEU87       0.0284
     54  CG       138.9050   -0.5120    7.4070 C.3    87  LEU87       0.0019
     55  CD1      138.1140   -0.2840    6.1300 C.3    87  LEU87       0.0001
     56  CD2      138.5820   -1.8750    8.0360 C.3    87  LEU87       0.0001
     57  N        143.3100   -0.4330    8.4500 N.am   88  GLU88      -0.1966
     58  CA       144.7550   -0.4440    8.2670 C.3    88  GLU88       0.1733
     59  C        145.0900   -0.7740    6.8220 C.2    88  GLU88       0.2616
     60  O        144.5970   -1.7670    6.2920 O.2    88  GLU88      -0.2715
     61  CB       145.3850   -1.4760    9.1990 C.3    88  GLU88       0.0429
     62  CG       146.5640   -0.9340   10.0030 C.3    88  GLU88       0.1163
     63  CD       147.3200   -2.0340   10.7260 C.2    88  GLU88       0.3649
     64  OE1      146.8610   -3.2070   10.6870 O.co2  88  GLU88      -0.2457
     65  OE2      148.3730   -1.7240   11.3200 O.co2  88  GLU88      -0.2457
     66  N        145.9380    0.0360    6.1810 N.am   89  ARG89      -0.1964
     67  CA       146.2350   -0.1770    4.7630 C.3    89  ARG89       0.1714
     68  C        147.6530   -0.6940    4.5680 C.2    89  ARG89       0.2458
     69  O        148.6150   -0.0100    4.9450 O.2    89  ARG89      -0.2730
     70  CB       146.0280    1.1060    3.9550 C.3    89  ARG89       0.0347
     71  CG       146.4630    0.9840    2.4960 C.3    89  ARG89       0.0492
     72  CD       146.0200    2.1840    1.6660 C.3    89  ARG89       0.2205
     73  NE       146.4610    3.4600    2.2290 N.pl3  89  ARG89      -0.0865
     74  CZ       147.6150    4.0500    1.9150 C.cat  89  ARG89       0.5346
     75  NH1      148.4480    3.4810    1.0440 N.pl3  89  ARG89       0.1354
     76  NH2      147.9340    5.2120    2.4620 N.pl3  89  ARG89       0.1354
     77  N        147.8330   -1.8710    3.9790 N.am   90  PRO90      -0.2727
     78  CA       149.1760   -2.3030    3.5840 C.3    90  PRO90       0.1402
     79  C        149.6250   -1.5920    2.3200 C.2    90  PRO90       0.2269
     80  O        148.8200   -1.1900    1.4730 O.2    90  PRO90      -0.2865
     81  CB       149.0120   -3.8090    3.3280 C.3    90  PRO90       0.0296
     82  CG       147.5730   -4.1500    3.7490 C.3    90  PRO90       0.0237
     83  CD       146.8120   -2.8740    3.6410 C.3    90  PRO90       0.0939
     84  N        150.0370   -2.8640   -2.1310 N.3    93  VAL93      -0.1245
     85  CA       148.9580   -3.8300   -2.0490 C.3    93  VAL93       0.1561
     86  C        148.3260   -3.9700   -3.4330 C.2    93  VAL93       0.2260
     87  O        148.3860   -3.0560   -4.2600 O.2    93  VAL93      -0.2867
     88  CB       147.9270   -3.3940   -0.9740 C.3    93  VAL93       0.0252
     89  CG1      147.1770   -2.1440   -1.4230 C.3    93  VAL93       0.0019
     90  CG2      146.9720   -4.5070   -0.6450 C.3    93  VAL93       0.0019
     91  N        143.1650   -8.8660   -0.1560 N.3   141  LEU141     -0.1245
     92  CA       144.2960   -8.0120   -0.4760 C.3   141  LEU141      0.1561
     93  C        145.5900   -8.7900   -0.2930 C.2   141  LEU141      0.2260
     94  O        145.7080   -9.6080    0.6250 O.2   141  LEU141     -0.2867
     95  CB       144.3130   -6.7550    0.4040 C.3   141  LEU141      0.0270
     96  CG       143.0680   -5.8600    0.2950 C.3   141  LEU141      0.0019
     97  CD1      143.2720   -4.5210    1.0200 C.3   141  LEU141      0.0001
     98  CD2      142.6970   -5.6120   -1.1810 C.3   141  LEU141      0.0001
     99  N        138.9170   -8.5580    3.3820 N.3   152  ILE152     -0.1231
    100  CA       138.2300   -7.2800    3.5220 C.3   152  ILE152      0.1692
    101  C        136.7400   -7.4780    3.2840 C.2   152  ILE152      0.2592
    102  O        136.2960   -8.5220    2.8050 O.2   152  ILE152     -0.2718
    103  CB       138.7660   -6.1950    2.5550 C.3   152  ILE152      0.0266
    104  CG1      138.6700   -6.6720    1.0960 C.3   152  ILE152      0.0019
    105  CG2      140.1850   -5.8030    2.9220 C.3   152  ILE152      0.0020
    106  CD1      139.0370   -5.6090    0.0690 C.3   152  ILE152      0.0001
    107  N        135.9790   -6.4280    3.6120 N.am  153  ASP153     -0.1974
    108  CA       134.5790   -6.2420    3.2400 C.3   153  ASP153      0.1709
    109  C        133.6630   -7.2520    3.9230 C.2   153  ASP153      0.2293
    110  O        133.1770   -8.2080    3.3000 O.2   153  ASP153     -0.2864
    111  CB       134.3870   -6.2940    1.7180 C.3   153  ASP153      0.1436
    112  CG       134.8320   -5.0210    1.0200 C.2   153  ASP153      0.3671
    113  OD1      135.0930   -3.9910    1.7020 O.co2 153  ASP153     -0.2456
    114  OD2      134.9160   -5.0370   -0.2370 O.co2 153  ASP153     -0.2456
@<TRIPOS>BOND
     1     4     3    2
     2     3     2    1
     3     2     1    1
     4     2     5    1
     5    87    86    2
     6    17    19   ar
     7    17    15   ar
     8    19    18   ar
     9    86    85    1
    10     8     6    1
    11     5     6    1
    12    15    14   ar
    13    18    16   ar
    14     6     7    1
    15    84    85    1
    16    85    88    1
    17    23    22    2
    18    16    14   ar
    19    14    13    1
    20    89    88    1
    21     9    10    1
    22    98    96    1
    23    88    90    1
    24    20    21    1
    25    22    21    1
    26    92    93    1
    27    92    91    1
    28    92    95    1
    29    93    94    2
    30   114   112   ar
    31    13    10    1
    32    24    21    1
    33    24    26    1
    34    24    25    1
    35    10    11    1
    36   106   104    1
    37    96    95    1
    38    96    97    1
    39    11    12    2
    40   112   113   ar
    41   112   111    1
    42    75    74    1
    43   104   103    1
    44    80    79    2
    45    72    73    1
    46    72    71    1
    47   111   108    1
    48    74    73    2
    49    74    76    1
    50    79    78    1
    51    71    70    1
    52   103   105    1
    53   103   100    1
    54   102   101    2
    55   108   107    1
    56   108   109    1
    57   101   100    1
    58   101   107   am
    59   110   109    2
    60    81    78    1
    61    81    82    1
    62    39    40    1
    63    39    38    1
    64    99   100    1
    65    31    28    1
    66    78    77    1
    67    83    82    1
    68    83    77    1
    69    37    38    1
    70    37    36    1
    71    70    67    1
    72    77    68   am
    73    33    36    1
    74    33    34    1
    75    33    32    1
    76    28    29    1
    77    28    27    1
    78    68    67    1
    79    68    69    2
    80    34    35    2
    81    67    66    1
    82    29    30    2
    83    46    48    1
    84    46    45    1
    85    55    54    1
    86    66    59   am
    87    60    59    2
    88    45    47    1
    89    45    42    1
    90    59    58    1
    91    53    54    1
    92    53    50    1
    93    52    51    2
    94    54    56    1
    95    41    42    1
    96    42    43    1
    97    51    50    1
    98    51    57   am
    99    50    49    1
   100    58    57    1
   101    58    61    1
   102    43    44    2
   103    61    62    1
   104    62    63    1
   105    64    63   ar
   106    63    65   ar
