@<TRIPOS>MOLECULE
tmp/5n4yA01.pdb
 116 106 0 0 0
SMALL
GASTEIGER

@<TRIPOS>ATOM
      1  N         91.3000   80.2930    0.0790 N.3    12  LEU12      -0.1245
      2  CA        91.7700   81.6160    0.4740 C.3    12  LEU12       0.1561
      3  C         90.7070   82.4140    1.2050 C.2    12  LEU12       0.2260
      4  O         91.0320   83.2290    2.0810 O.2    12  LEU12      -0.2867
      5  CB        92.2150   82.4170   -0.7440 C.3    12  LEU12       0.0270
      6  CG        93.3410   81.7740   -1.5390 C.3    12  LEU12       0.0019
      7  CD1       93.8220   82.7290   -2.6190 C.3    12  LEU12       0.0001
      8  CD2       94.4570   81.4020   -0.5820 C.3    12  LEU12       0.0001
      9  N         81.0100   86.9780   -1.8730 N.3    17  PHE17      -0.1241
     10  CA        81.6100   86.8620   -3.1960 C.3    17  PHE17       0.1605
     11  C         81.6600   85.4280   -3.7110 C.2    17  PHE17       0.2264
     12  O         81.7410   85.2230   -4.9290 O.2    17  PHE17      -0.2867
     13  CB        83.0320   87.4630   -3.1970 C.3    17  PHE17       0.0534
     14  CG        83.8580   87.1480   -1.9580 C.ar   17  PHE17      -0.0203
     15  CD1       84.8090   86.1280   -1.9770 C.ar   17  PHE17      -0.0042
     16  CD2       83.7080   87.8980   -0.7870 C.ar   17  PHE17      -0.0042
     17  CE1       85.5810   85.8430   -0.8440 C.ar   17  PHE17      -0.0003
     18  CE2       84.4690   87.6200    0.3510 C.ar   17  PHE17      -0.0003
     19  CZ        85.4110   86.5930    0.3200 C.ar   17  PHE17      -0.0000
     20  N         87.0440   81.2130   -2.7880 N.3    20  VAL20      -0.1245
     21  CA        88.2290   81.4330   -3.6020 C.3    20  VAL20       0.1561
     22  C         89.3260   80.5100   -3.1150 C.2    20  VAL20       0.2260
     23  O         89.6520   80.5060   -1.9260 O.2    20  VAL20      -0.2867
     24  CB        88.6790   82.9010   -3.5560 C.3    20  VAL20       0.0252
     25  CG1       89.8510   83.1120   -4.4980 C.3    20  VAL20       0.0019
     26  CG2       87.5020   83.8140   -3.9030 C.3    20  VAL20       0.0019
     27  N         94.1670   82.0640   -8.8470 N.3    33  ALA33      -0.1245
     28  CA        93.1010   81.9550   -7.8700 C.3    33  ALA33       0.1562
     29  C         91.8680   81.4220   -8.5800 C.2    33  ALA33       0.2260
     30  O         91.5950   81.7890   -9.7240 O.2    33  ALA33      -0.2867
     31  CB        92.8110   83.2900   -7.1960 C.3    33  ALA33       0.0290
     32  N         87.8550   80.8840   -8.3240 N.3    35  LYS35      -0.1245
     33  CA        86.7150   81.4770   -7.6450 C.3    35  LYS35       0.1561
     34  C         85.4370   80.8210   -8.1270 C.2    35  LYS35       0.2260
     35  O         85.2040   80.7270   -9.3320 O.2    35  LYS35      -0.2867
     36  CB        86.6550   82.9770   -7.9000 C.3    35  LYS35       0.0271
     37  CG        85.4490   83.6760   -7.2930 C.3    35  LYS35       0.0035
     38  CD        85.6150   85.1750   -7.4570 C.3    35  LYS35       0.0206
     39  CE        84.4820   85.9550   -6.8400 C.3    35  LYS35       0.1093
     40  NZ        84.8480   87.3930   -6.6840 N.3    35  LYS35      -0.1314
     41  N         79.7330   89.9330  -13.4910 N.3    57  GLU57      -0.1245
     42  CA        81.1260   89.9370  -13.0730 C.3    57  GLU57       0.1567
     43  C         82.0590   89.4510  -14.1850 C.2    57  GLU57       0.2260
     44  O         83.1380   90.0210  -14.3960 O.2    57  GLU57      -0.2867
     45  CB        81.2680   89.0790  -11.8190 C.3    57  GLU57       0.0388
     46  CG        82.6130   89.1240  -11.1520 C.3    57  GLU57       0.1160
     47  CD        82.6680   88.1830   -9.9740 C.2    57  GLU57       0.3649
     48  OE1       81.6180   87.5760   -9.6660 O.co2  57  GLU57      -0.2457
     49  OE2       83.7470   88.0410   -9.3600 O.co2  57  GLU57      -0.2457
     50  N         93.0170   93.0450  -11.2190 N.3    72  ILE72      -0.1245
     51  CA        93.1640   91.5970  -11.2860 C.3    72  ILE72       0.1561
     52  C         92.6820   91.0900  -12.6410 C.2    72  ILE72       0.2260
     53  O         91.6050   91.4590  -13.1190 O.2    72  ILE72      -0.2867
     54  CB        92.3930   90.9660  -10.1150 C.3    72  ILE72       0.0252
     55  CG1       93.1210   89.7310   -9.6070 C.3    72  ILE72       0.0019
     56  CG2       90.8590   90.7720  -10.4370 C.3    72  ILE72       0.0019
     57  CD1       94.4480   90.0980   -9.0080 C.3    72  ILE72       0.0001
     58  N         91.6390   83.4560  -11.8830 N.3    88  LEU88      -0.1231
     59  CA        92.1390   84.8160  -11.7490 C.3    88  LEU88       0.1693
     60  C         93.6160   84.8040  -11.3690 C.2    88  LEU88       0.2592
     61  O         94.1400   83.8120  -10.8540 O.2    88  LEU88      -0.2718
     62  CB        91.3210   85.6030  -10.7000 C.3    88  LEU88       0.0284
     63  CG        89.8350   85.8030  -11.0290 C.3    88  LEU88       0.0019
     64  CD1       88.9500   85.4230   -9.8650 C.3    88  LEU88       0.0001
     65  CD2       89.5030   87.2380  -11.4850 C.3    88  LEU88       0.0001
     66  N         94.2840   85.9260  -11.6450 N.am   89  GLU89      -0.1966
     67  CA        95.6500   86.1280  -11.1760 C.3    89  GLU89       0.1733
     68  C         95.7280   85.9950   -9.6630 C.2    89  GLU89       0.2616
     69  O         94.7880   86.3080   -8.9260 O.2    89  GLU89      -0.2715
     70  CB        96.1600   87.5100  -11.5790 C.3    89  GLU89       0.0429
     71  CG        96.3350   87.7200  -13.0760 C.3    89  GLU89       0.1163
     72  CD        96.9780   89.0690  -13.3980 C.2    89  GLU89       0.3649
     73  OE1       96.4100   90.1280  -13.0030 O.co2  89  GLU89      -0.2457
     74  OE2       98.0630   89.0630  -14.0340 O.co2  89  GLU89      -0.2457
     75  N         96.8880   85.5190   -9.1870 N.am   90  ARG90      -0.1977
     76  CA        97.1740   85.4600   -7.7570 C.3    90  ARG90       0.1597
     77  C         98.5910   85.9650   -7.5330 C.2    90  ARG90       0.2287
     78  O         99.5620   85.2550   -7.8400 O.2    90  ARG90      -0.2864
     79  CB        97.0120   84.0530   -7.1860 C.3    90  ARG90       0.0334
     80  CG        97.3690   83.9650   -5.7120 C.3    90  ARG90       0.0492
     81  CD        96.9270   82.6280   -5.0910 C.3    90  ARG90       0.2205
     82  NE        97.4730   81.4570   -5.7820 N.pl3  90  ARG90      -0.0865
     83  CZ        98.6880   80.9660   -5.5630 C.cat  90  ARG90       0.5346
     84  NH1       99.4820   81.5510   -4.6720 N.pl3  90  ARG90       0.1354
     85  NH2       99.1120   79.9020   -6.2360 N.pl3  90  ARG90       0.1354
     86  N        101.2080   87.9840   -1.1280 N.3    94  VAL94      -0.1245
     87  CA       100.1090   88.9360   -1.2480 C.3    94  VAL94       0.1561
     88  C         99.4740   89.1510    0.1220 C.2    94  VAL94       0.2260
     89  O         99.5180   88.2820    0.9950 O.2    94  VAL94      -0.2867
     90  CB        99.0590   88.4410   -2.2730 C.3    94  VAL94       0.0252
     91  CG1       98.2550   87.3090   -1.6820 C.3    94  VAL94       0.0019
     92  CG2       98.1440   89.5700   -2.7220 C.3    94  VAL94       0.0019
     93  N         94.3820   94.1930   -3.3860 N.3   142  LEU142     -0.1245
     94  CA        95.4820   93.2880   -3.0900 C.3   142  LEU142      0.1561
     95  C         96.8000   94.0250   -3.2380 C.2   142  LEU142      0.2260
     96  O         96.9500   94.8710   -4.1230 O.2   142  LEU142     -0.2867
     97  CB        95.4690   92.0750   -4.0150 C.3   142  LEU142      0.0270
     98  CG        94.2710   91.1410   -3.8640 C.3   142  LEU142      0.0019
     99  CD1       94.5430   89.8690   -4.6250 C.3   142  LEU142      0.0001
    100  CD2       93.9920   90.8420   -2.4030 C.3   142  LEU142      0.0001
    101  N         90.1630   94.0520   -7.0020 N.3   153  ILE153     -0.1231
    102  CA        89.5180   92.7490   -7.1360 C.3   153  ILE153      0.1692
    103  C         88.0190   92.8760   -6.9130 C.2   153  ILE153      0.2592
    104  O         87.5100   93.9010   -6.4650 O.2   153  ILE153     -0.2718
    105  CB        90.0840   91.6830   -6.1620 C.3   153  ILE153      0.0266
    106  CG1       89.7020   92.0300   -4.7110 C.3   153  ILE153      0.0019
    107  CG2       91.5960   91.5220   -6.3510 C.3   153  ILE153      0.0020
    108  CD1       90.1890   91.0520   -3.6700 C.3   153  ILE153      0.0001
    109  N         87.3240   91.7880   -7.2430 N.am  154  ASP154     -0.1974
    110  CA        85.9260   91.5410   -6.9160 C.3   154  ASP154      0.1709
    111  C         84.9740   92.5220   -7.5810 C.2   154  ASP154      0.2293
    112  O         84.5430   93.5040   -6.9670 O.2   154  ASP154     -0.2864
    113  CB        85.7350   91.5640   -5.4040 C.3   154  ASP154      0.1436
    114  CG        84.5740   90.7220   -4.9680 C.2   154  ASP154      0.3671
    115  OD1       84.5810   90.3110   -3.7910 O.co2 154  ASP154     -0.2456
    116  OD2       83.6710   90.4610   -5.8080 O.co2 154  ASP154     -0.2456
@<TRIPOS>BOND
     1    44    43    2
     2    43    42    1
     3    74    72   ar
     4    41    42    1
     5    72    71    1
     6    72    73   ar
     7    53    52    2
     8    71    70    1
     9    42    45    1
    10    52    51    1
    11    58    59    1
    12    45    46    1
    13    59    60    1
    14    59    62    1
    15    66    60   am
    16    66    67    1
    17    70    67    1
    18    65    63    1
    19    60    61    2
    20    51    50    1
    21    51    54    1
    22    67    68    1
    23    46    47    1
    24    63    62    1
    25    63    64    1
    26    56    54    1
    27    54    55    1
    28    47    48   ar
    29    47    49   ar
    30    30    29    2
    31    68    75   am
    32    68    69    2
    33    55    57    1
    34    35    34    2
    35    75    76    1
    36    27    28    1
    37    29    28    1
    38    32    33    1
    39    34    33    1
    40    36    33    1
    41    36    37    1
    42    28    31    1
    43    78    77    2
    44    76    77    1
    45    76    79    1
    46   111   112    2
    47   111   110    1
    48    38    37    1
    49    38    39    1
    50   109   110    1
    51   109   103   am
    52    79    80    1
    53   102   101    1
    54   102   103    1
    55   102   105    1
    56   110   113    1
    57   103   104    2
    58    39    40    1
    59   107   105    1
    60    85    83    1
    61   105   106    1
    62   116   114   ar
    63    82    83    2
    64    82    81    1
    65    80    81    1
    66    83    84    1
    67   113   114    1
    68   114   115   ar
    69    12    11    2
    70   106   108    1
    71    99    98    1
    72    25    24    1
    73    96    95    2
    74    97    98    1
    75    97    94    1
    76    26    24    1
    77    98   100    1
    78    11    10    1
    79    21    24    1
    80    21    22    1
    81    21    20    1
    82    93    94    1
    83    95    94    1
    84    13    10    1
    85    13    14    1
    86    10     9    1
    87    22    23    2
    88    92    90    1
    89     7     6    1
    90    90    91    1
    91    90    87    1
    92    15    14   ar
    93    15    17   ar
    94    14    16   ar
    95     6     5    1
    96     6     8    1
    97    87    86    1
    98    87    88    1
    99    17    19   ar
   100    16    18   ar
   101     5     2    1
   102     1     2    1
   103    88    89    2
   104    19    18   ar
   105     2     3    1
   106     3     4    2
