@<TRIPOS>MOLECULE
tmp/5n4zA01.pdb
 131 121 0 0 0
SMALL
GASTEIGER

@<TRIPOS>ATOM
      1  N         91.3930   80.6200    0.2390 N.3    11  LEU11      -0.1245
      2  CA        91.8850   81.9350    0.6240 C.3    11  LEU11       0.1561
      3  C         90.8220   82.7670    1.3280 C.2    11  LEU11       0.2260
      4  O         91.1500   83.5630    2.2180 O.2    11  LEU11      -0.2867
      5  CB        92.3970   82.6960   -0.6040 C.3    11  LEU11       0.0270
      6  CG        93.5020   82.0730   -1.4720 C.3    11  LEU11       0.0019
      7  CD1       93.8100   82.9500   -2.6900 C.3    11  LEU11       0.0001
      8  CD2       94.7540   81.8670   -0.6730 C.3    11  LEU11       0.0001
      9  N         81.0470   87.2470   -2.1230 N.3    16  PHE16      -0.1241
     10  CA        81.5920   87.0640   -3.4640 C.3    16  PHE16       0.1605
     11  C         81.6470   85.6020   -3.9120 C.2    16  PHE16       0.2264
     12  O         81.7900   85.3430   -5.1120 O.2    16  PHE16      -0.2867
     13  CB        83.0050   87.6680   -3.5260 C.3    16  PHE16       0.0534
     14  CG        83.9010   87.2350   -2.3840 C.ar   16  PHE16      -0.0203
     15  CD1       83.9910   88.0020   -1.2170 C.ar   16  PHE16      -0.0042
     16  CD2       84.6490   86.0580   -2.4720 C.ar   16  PHE16      -0.0042
     17  CE1       84.8180   87.5950   -0.1550 C.ar   16  PHE16      -0.0003
     18  CE2       85.4720   85.6390   -1.4140 C.ar   16  PHE16      -0.0003
     19  CZ        85.5620   86.4090   -0.2590 C.ar   16  PHE16      -0.0000
     20  N         87.0450   81.6700   -2.7670 N.3    19  VAL19      -0.1245
     21  CA        88.2530   81.8630   -3.5590 C.3    19  VAL19       0.1561
     22  C         89.3360   80.9380   -3.0260 C.2    19  VAL19       0.2260
     23  O         89.6250   80.9460   -1.8240 O.2    19  VAL19      -0.2867
     24  CB        88.7220   83.3290   -3.5240 C.3    19  VAL19       0.0252
     25  CG1       89.9820   83.5060   -4.3880 C.3    19  VAL19       0.0019
     26  CG2       87.6130   84.2490   -3.9810 C.3    19  VAL19       0.0019
     27  N         94.2590   82.4770   -8.6670 N.3    32  ALA32      -0.1245
     28  CA        93.1720   82.4020   -7.7010 C.3    32  ALA32       0.1562
     29  C         91.9320   81.8930   -8.4190 C.2    32  ALA32       0.2260
     30  O         91.6270   82.3230   -9.5340 O.2    32  ALA32      -0.2867
     31  CB        92.8940   83.7670   -7.0350 C.3    32  ALA32       0.0290
     32  N         87.9700   81.3690   -8.2140 N.3    34  LYS34      -0.1245
     33  CA        86.7850   81.8910   -7.5530 C.3    34  LYS34       0.1561
     34  C         85.5340   81.1930   -8.0760 C.2    34  LYS34       0.2260
     35  O         85.3310   81.0810   -9.2880 O.2    34  LYS34      -0.2867
     36  CB        86.6830   83.4060   -7.7420 C.3    34  LYS34       0.0271
     37  CG        85.4040   84.0230   -7.2040 C.3    34  LYS34       0.0035
     38  CD        85.5390   85.5490   -7.1370 C.3    34  LYS34       0.0206
     39  CE        84.2740   86.2430   -7.5540 C.3    34  LYS34       0.1093
     40  NZ        84.2250   87.6840   -7.0770 N.3    34  LYS34      -0.1314
     41  N         79.9160   90.1010  -13.6780 N.3    56  GLU56      -0.1245
     42  CA        81.2970   90.1830  -13.2280 C.3    56  GLU56       0.1567
     43  C         82.2580   89.7260  -14.3200 C.2    56  GLU56       0.2260
     44  O         83.3060   90.3500  -14.5370 O.2    56  GLU56      -0.2867
     45  CB        81.4680   89.3590  -11.9550 C.3    56  GLU56       0.0388
     46  CG        82.8000   89.5320  -11.2900 C.3    56  GLU56       0.1160
     47  CD        82.9590   88.6510  -10.0530 C.2    56  GLU56       0.3649
     48  OE1       82.0300   87.8670   -9.7350 O.co2  56  GLU56      -0.2457
     49  OE2       84.0210   88.7610   -9.4040 O.co2  56  GLU56      -0.2457
     50  N         93.3700   93.2240  -10.9720 N.3    71  ILE71      -0.1245
     51  CA        93.5820   91.7800  -11.0870 C.3    71  ILE71       0.1561
     52  C         92.8310   91.2630  -12.3090 C.2    71  ILE71       0.2260
     53  O         91.6260   91.5010  -12.4640 O.2    71  ILE71      -0.2867
     54  CB        93.1390   91.0560   -9.8020 C.3    71  ILE71       0.0252
     55  CG1       94.1830   91.2300   -8.6920 C.3    71  ILE71       0.0019
     56  CG2       92.9360   89.5510  -10.0400 C.3    71  ILE71       0.0019
     57  CD1       95.5170   90.5810   -9.0020 C.3    71  ILE71       0.0001
     58  N         91.8010   83.8280  -11.8470 N.3    87  LEU87      -0.1231
     59  CA        92.3210   85.1750  -11.6850 C.3    87  LEU87       0.1693
     60  C         93.8190   85.1350  -11.4050 C.2    87  LEU87       0.2592
     61  O         94.3540   84.1400  -10.9080 O.2    87  LEU87      -0.2718
     62  CB        91.5800   85.9060  -10.5430 C.3    87  LEU87       0.0284
     63  CG        90.0540   85.9740  -10.7570 C.3    87  LEU87       0.0019
     64  CD1       89.3100   86.0710   -9.4300 C.3    87  LEU87       0.0001
     65  CD2       89.6470   87.1180  -11.6980 C.3    87  LEU87       0.0001
     66  N         94.4930   86.2370  -11.7440 N.am   88  GLU88      -0.1966
     67  CA        95.8690   86.4430  -11.3000 C.3    88  GLU88       0.1733
     68  C         95.9680   86.3240   -9.7820 C.2    88  GLU88       0.2616
     69  O         95.0290   86.6450   -9.0450 O.2    88  GLU88      -0.2715
     70  CB        96.3800   87.8230  -11.7170 C.3    88  GLU88       0.0429
     71  CG        96.6190   88.0130  -13.2060 C.3    88  GLU88       0.1163
     72  CD        97.1520   89.4090  -13.5200 C.2    88  GLU88       0.3649
     73  OE1       96.5700   90.4140  -13.0260 O.co2  88  GLU88      -0.2457
     74  OE2       98.1690   89.5020  -14.2440 O.co2  88  GLU88      -0.2457
     75  N         97.1190   85.8610   -9.3110 N.am   89  ARG89      -0.1964
     76  CA        97.4140   85.8340   -7.8740 C.3    89  ARG89       0.1714
     77  C         98.8190   86.3700   -7.6420 C.2    89  ARG89       0.2458
     78  O         99.8020   85.7040   -8.0260 O.2    89  ARG89      -0.2730
     79  CB        97.2740   84.4350   -7.2790 C.3    89  ARG89       0.0347
     80  CG        97.6770   84.3850   -5.7940 C.3    89  ARG89       0.0492
     81  CD        97.1860   83.1030   -5.1120 C.3    89  ARG89       0.2205
     82  NE        97.7300   81.8750   -5.7080 N.pl3  89  ARG89      -0.0865
     83  CZ        98.9370   81.3830   -5.4340 C.cat  89  ARG89       0.5346
     84  NH1       99.7400   82.0200   -4.5890 N.pl3  89  ARG89       0.1354
     85  NH2       99.3450   80.2610   -6.0080 N.pl3  89  ARG89       0.1354
     86  N         98.9630   87.5550   -7.0610 N.am   90  PRO90      -0.2727
     87  CA       100.2970   88.0340   -6.6920 C.3    90  PRO90       0.1402
     88  C        100.8720   87.1790   -5.5770 C.2    90  PRO90       0.2269
     89  O        100.1460   86.6100   -4.7590 O.2    90  PRO90      -0.2865
     90  CB       100.0460   89.4750   -6.2110 C.3    90  PRO90       0.0296
     91  CG        98.6050   89.8080   -6.6130 C.3    90  PRO90       0.0237
     92  CD        97.9010   88.4760   -6.6220 C.3    90  PRO90       0.0939
     93  N        101.6810   88.4180   -1.1770 N.3    93  VAL93      -0.1245
     94  CA       100.5380   89.3180   -1.2790 C.3    93  VAL93       0.1561
     95  C         99.9230   89.5110    0.1070 C.2    93  VAL93       0.2260
     96  O         99.9720   88.6160    0.9540 O.2    93  VAL93      -0.2867
     97  CB        99.5040   88.7540   -2.2890 C.3    93  VAL93       0.0252
     98  CG1       98.7560   87.5550   -1.6840 C.3    93  VAL93       0.0019
     99  CG2       98.5410   89.8220   -2.7570 C.3    93  VAL93       0.0019
    100  N         89.1700   95.3080   -0.8770 N.3   139  ASN139     -0.1240
    101  CA        89.1810   94.9340   -2.2860 C.3   139  ASN139      0.1653
    102  C         90.4420   95.3940   -2.9990 C.2   139  ASN139      0.2266
    103  O         90.4240   95.6070   -4.2190 O.2   139  ASN139     -0.2867
    104  CB        87.9220   95.4630   -2.9710 C.3   139  ASN139      0.1155
    105  CG        86.6950   94.6800   -2.5460 C.2   139  ASN139      0.2627
    106  OD1       86.8260   93.5190   -2.1500 O.2   139  ASN139     -0.2716
    107  ND2       85.5060   95.3050   -2.5950 N.am  139  ASN139     -0.0877
    108  N         94.6790   94.4740   -3.2420 N.3   141  LEU141     -0.1245
    109  CA        95.7890   93.5970   -2.9010 C.3   141  LEU141      0.1561
    110  C         97.1090   94.3230   -3.1180 C.2   141  LEU141      0.2260
    111  O         97.2500   95.1060   -4.0630 O.2   141  LEU141     -0.2867
    112  CB        95.7600   92.3160   -3.7260 C.3   141  LEU141      0.0270
    113  CG        94.4840   91.4730   -3.6540 C.3   141  LEU141      0.0019
    114  CD1       94.6350   90.2570   -4.5700 C.3   141  LEU141      0.0001
    115  CD2       94.1360   91.0340   -2.2300 C.3   141  LEU141      0.0001
    116  N         90.3990   94.1920   -6.8900 N.3   152  ILE152     -0.1231
    117  CA        89.7270   92.9050   -7.0260 C.3   152  ILE152      0.1692
    118  C         88.2330   93.0880   -6.8060 C.2   152  ILE152      0.2592
    119  O         87.7680   94.1340   -6.3480 O.2   152  ILE152     -0.2718
    120  CB        90.2670   91.8380   -6.0420 C.3   152  ILE152      0.0266
    121  CG1       90.0600   92.2990   -4.5970 C.3   152  ILE152      0.0019
    122  CG2       91.7130   91.5160   -6.3470 C.3   152  ILE152      0.0020
    123  CD1       90.4040   91.2330   -3.5280 C.3   152  ILE152      0.0001
    124  N         87.4940   92.0180   -7.1290 N.am  153  ASP153     -0.1974
    125  CA        86.0720   91.8200   -6.8500 C.3   153  ASP153      0.1709
    126  C         85.1660   92.8240   -7.5570 C.2   153  ASP153      0.2293
    127  O         84.7940   93.8550   -6.9840 O.2   153  ASP153     -0.2864
    128  CB        85.8170   91.8420   -5.3390 C.3   153  ASP153      0.1436
    129  CG        84.4090   91.3910   -4.9770 C.2   153  ASP153      0.3671
    130  OD1       84.0970   91.4150   -3.7720 O.co2 153  ASP153     -0.2456
    131  OD2       83.6090   91.0270   -5.8710 O.co2 153  ASP153     -0.2456
@<TRIPOS>BOND
     1    44    43    2
     2    43    42    1
     3    74    72   ar
     4    41    42    1
     5    72    71    1
     6    72    73   ar
     7    42    45    1
     8    71    70    1
     9    53    52    2
    10    52    51    1
    11    45    46    1
    12    58    59    1
    13    66    60   am
    14    66    67    1
    15    70    67    1
    16    65    63    1
    17    59    60    1
    18    59    62    1
    19    60    61    2
    20    67    68    1
    21    46    47    1
    22    51    50    1
    23    51    54    1
    24    63    62    1
    25    63    64    1
    26    47    48   ar
    27    47    49   ar
    28    56    54    1
    29    54    55    1
    30    68    75   am
    31    68    69    2
    32    30    29    2
    33    75    76    1
    34    35    34    2
    35    57    55    1
    36    27    28    1
    37    29    28    1
    38    32    33    1
    39    34    33    1
    40    78    77    2
    41    76    77    1
    42    76    79    1
    43    36    33    1
    44    36    37    1
    45    28    31    1
    46    77    86   am
    47   126   127    2
    48   126   125    1
    49    39    38    1
    50    39    40    1
    51    79    80    1
    52    37    38    1
    53   124   125    1
    54   124   118   am
    55    86    87    1
    56    86    92    1
    57   117   116    1
    58   117   118    1
    59   117   120    1
    60   125   128    1
    61   118   119    2
    62    87    90    1
    63    87    88    1
    64    92    91    1
    65    91    90    1
    66   122   120    1
    67   120   121    1
    68    85    83    1
    69   131   129   ar
    70    80    81    1
    71    82    83    2
    72    82    81    1
    73    88    89    2
    74    83    84    1
    75   128   129    1
    76    12    11    2
    77   129   130   ar
    78   121   123    1
    79   114   113    1
    80    25    24    1
    81   103   102    2
    82   111   110    2
    83    26    24    1
    84    11    10    1
    85   112   113    1
    86   112   109    1
    87   113   115    1
    88    21    24    1
    89    21    22    1
    90    21    20    1
    91    13    10    1
    92    13    14    1
    93    10     9    1
    94   108   109    1
    95   110   109    1
    96    22    23    2
    97   102   101    1
    98   104   105    1
    99   104   101    1
   100    99    97    1
   101     7     6    1
   102   107   105   am
   103   105   106    2
   104    16    14   ar
   105    16    18   ar
   106    14    15   ar
   107    97    98    1
   108    97    94    1
   109   101   100    1
   110     6     8    1
   111     6     5    1
   112    18    19   ar
   113    94    93    1
   114    94    95    1
   115    15    17   ar
   116     5     2    1
   117    19    17   ar
   118    95    96    2
   119     1     2    1
   120     2     3    1
   121     3     4    2
