@<TRIPOS>MOLECULE
tmp/5n50A01.pdb
 131 122 0 0 0
SMALL
GASTEIGER

@<TRIPOS>ATOM
      1  N        -91.2230   90.0000    0.3680 N.3    12  LEU12      -0.1245
      2  CA       -91.7450   88.6970    0.7650 C.3    12  LEU12       0.1561
      3  C        -90.7150   87.8570    1.5030 C.2    12  LEU12       0.2260
      4  O        -91.0830   87.0350    2.3510 O.2    12  LEU12      -0.2867
      5  CB       -92.2480   87.9250   -0.4610 C.3    12  LEU12       0.0270
      6  CG       -93.4490   88.5090   -1.2130 C.3    12  LEU12       0.0019
      7  CD1      -93.8200   87.6330   -2.4070 C.3    12  LEU12       0.0001
      8  CD2      -94.6340   88.6620   -0.2830 C.3    12  LEU12       0.0001
      9  N        -80.8460   83.1860   -1.7490 N.3    17  PHE17      -0.1241
     10  CA       -81.3970   83.3110   -3.0990 C.3    17  PHE17       0.1605
     11  C        -81.4740   84.7540   -3.6050 C.2    17  PHE17       0.2264
     12  O        -81.6140   84.9620   -4.8130 O.2    17  PHE17      -0.2867
     13  CB       -82.8020   82.6890   -3.1480 C.3    17  PHE17       0.0534
     14  CG       -83.7450   83.2240   -2.0970 C.ar   17  PHE17      -0.0203
     15  CD1      -84.5380   84.3370   -2.3500 C.ar   17  PHE17      -0.0042
     16  CD2      -83.8370   82.6100   -0.8550 C.ar   17  PHE17      -0.0042
     17  CE1      -85.4030   84.8310   -1.3770 C.ar   17  PHE17      -0.0003
     18  CE2      -84.6990   83.0990    0.1160 C.ar   17  PHE17      -0.0003
     19  CZ       -85.4820   84.2100   -0.1490 C.ar   17  PHE17      -0.0000
     20  N        -86.8960   88.9950   -2.5650 N.3    20  VAL20      -0.1245
     21  CA       -88.0980   88.7590   -3.3580 C.3    20  VAL20       0.1561
     22  C        -89.2080   89.6570   -2.8470 C.2    20  VAL20       0.2260
     23  O        -89.5420   89.6240   -1.6550 O.2    20  VAL20      -0.2867
     24  CB       -88.5330   87.2820   -3.3120 C.3    20  VAL20       0.0252
     25  CG1      -89.8190   87.0830   -4.1110 C.3    20  VAL20       0.0019
     26  CG2      -87.4220   86.3960   -3.8380 C.3    20  VAL20       0.0019
     27  N        -94.0720   87.9570   -8.4380 N.3    33  ALA33      -0.1245
     28  CA       -93.0050   88.0640   -7.4570 C.3    33  ALA33       0.1562
     29  C        -91.7760   88.5840   -8.1830 C.2    33  ALA33       0.2260
     30  O        -91.4830   88.1650   -9.3070 O.2    33  ALA33      -0.2867
     31  CB       -92.7150   86.7130   -6.7760 C.3    33  ALA33       0.0290
     32  N        -87.8530   89.0970   -8.0480 N.3    35  LYS35      -0.1245
     33  CA       -86.6770   88.5680   -7.3760 C.3    35  LYS35       0.1561
     34  C        -85.4390   89.2900   -7.8830 C.2    35  LYS35       0.2260
     35  O        -85.1840   89.3320   -9.0950 O.2    35  LYS35      -0.2867
     36  CB       -86.5490   87.0580   -7.6080 C.3    35  LYS35       0.0271
     37  CG       -85.2950   86.4310   -7.0270 C.3    35  LYS35       0.0035
     38  CD       -85.3370   84.8950   -7.2120 C.3    35  LYS35       0.0206
     39  CE       -84.1130   84.2110   -6.6410 C.3    35  LYS35       0.1093
     40  NZ       -84.1720   82.7190   -6.7800 N.3    35  LYS35      -0.1314
     41  N        -93.0700   77.2750  -10.7110 N.3    72  ILE72      -0.1245
     42  CA       -93.3150   78.7160  -10.7810 C.3    72  ILE72       0.1561
     43  C        -92.5960   79.2640  -12.0050 C.2    72  ILE72       0.2260
     44  O        -91.3740   79.1300  -12.1380 O.2    72  ILE72      -0.2867
     45  CB       -92.8640   79.4240   -9.4940 C.3    72  ILE72       0.0252
     46  CG1      -93.8600   79.1870   -8.3590 C.3    72  ILE72       0.0019
     47  CG2      -92.7510   80.9450   -9.6900 C.3    72  ILE72       0.0019
     48  CD1      -95.2080   79.8470   -8.5540 C.3    72  ILE72       0.0001
     49  N        -91.5930   86.6070  -11.6330 N.3    88  LEU88      -0.1231
     50  CA       -92.0710   85.2480  -11.4390 C.3    88  LEU88       0.1693
     51  C        -93.5620   85.2590  -11.1250 C.2    88  LEU88       0.2592
     52  O        -94.0960   86.2490  -10.6170 O.2    88  LEU88      -0.2718
     53  CB       -91.2930   84.5620  -10.3020 C.3    88  LEU88       0.0284
     54  CG       -89.7770   84.4720  -10.5240 C.3    88  LEU88       0.0019
     55  CD1      -89.0310   84.3480   -9.2010 C.3    88  LEU88       0.0001
     56  CD2      -89.4280   83.3120  -11.4510 C.3    88  LEU88       0.0001
     57  N        -94.2330   84.1490  -11.4330 N.am   89  GLU89      -0.1966
     58  CA       -95.6240   83.9910  -11.0200 C.3    89  GLU89       0.1733
     59  C        -95.7510   84.1250   -9.5080 C.2    89  GLU89       0.2616
     60  O        -94.8370   83.7910   -8.7490 O.2    89  GLU89      -0.2715
     61  CB       -96.1630   82.6250  -11.4350 C.3    89  GLU89       0.0429
     62  CG       -96.2620   82.3780  -12.9180 C.3    89  GLU89       0.1163
     63  CD       -96.8150   80.9960  -13.1900 C.2    89  GLU89       0.3649
     64  OE1      -96.1710   79.9990  -12.7720 O.co2  89  GLU89      -0.2457
     65  OE2      -97.9130   80.9110  -13.7790 O.co2  89  GLU89      -0.2457
     66  N        -96.9070   84.6020   -9.0640 N.am   90  ARG90      -0.1964
     67  CA       -97.2270   84.6390   -7.6400 C.3    90  ARG90       0.1714
     68  C        -98.6160   84.0640   -7.4180 C.2    90  ARG90       0.2458
     69  O        -99.6160   84.7130   -7.7930 O.2    90  ARG90      -0.2730
     70  CB       -97.1450   86.0570   -7.0860 C.3    90  ARG90       0.0347
     71  CG       -97.5760   86.1410   -5.6350 C.3    90  ARG90       0.0492
     72  CD       -97.0940   87.4270   -4.9820 C.3    90  ARG90       0.2205
     73  NE       -97.6360   88.6390   -5.5970 N.pl3  90  ARG90      -0.0865
     74  CZ       -98.8400   89.1380   -5.3250 C.cat  90  ARG90       0.5346
     75  NH1      -99.6400   88.5080   -4.4720 N.pl3  90  ARG90       0.1354
     76  NH2      -99.2530   90.2590   -5.9120 N.pl3  90  ARG90       0.1354
     77  N        -98.7340   82.8710   -6.8460 N.am   91  PRO91      -0.2727
     78  CA      -100.0550   82.3770   -6.4580 C.3    91  PRO91       0.1402
     79  C       -100.6230   83.2440   -5.3520 C.2    91  PRO91       0.2269
     80  O        -99.8910   83.8210   -4.5460 O.2    91  PRO91      -0.2865
     81  CB       -99.7770   80.9510   -5.9610 C.3    91  PRO91       0.0296
     82  CG       -98.4070   80.6040   -6.5190 C.3    91  PRO91       0.0237
     83  CD       -97.6700   81.9080   -6.5160 C.3    91  PRO91       0.0939
     84  N       -101.2530   82.1540   -0.9320 N.3    94  VAL94      -0.1245
     85  CA      -100.1160   81.2450   -1.0330 C.3    94  VAL94       0.1561
     86  C        -99.4830   81.0520    0.3400 C.2    94  VAL94       0.2260
     87  O        -99.5470   81.9280    1.2090 O.2    94  VAL94      -0.2867
     88  CB       -99.0660   81.7640   -2.0530 C.3    94  VAL94       0.0252
     89  CG1      -98.3110   82.9700   -1.4840 C.3    94  VAL94       0.0019
     90  CG2      -98.0930   80.6540   -2.4540 C.3    94  VAL94       0.0019
     91  N        -89.2270   74.0810    1.8990 N.3   139  GLU139     -0.1231
     92  CA       -89.0540   75.5310    1.7730 C.3   139  GLU139      0.1699
     93  C        -89.1760   76.0080    0.3300 C.2   139  GLU139      0.2592
     94  O        -89.5230   77.1710    0.0900 O.2   139  GLU139     -0.2718
     95  CB       -87.6860   75.9590    2.3000 C.3   139  GLU139      0.0402
     96  CG       -87.3990   75.5800    3.7530 C.3   139  GLU139      0.1161
     97  CD       -86.0730   76.1520    4.1940 C.2   139  GLU139      0.3649
     98  OE1      -85.1260   75.3740    4.4230 O.co2 139  GLU139     -0.2457
     99  OE2      -85.9830   77.3950    4.2860 O.co2 139  GLU139     -0.2457
    100  N        -88.8500   75.1510   -0.6360 N.am  140  ASN140     -0.1974
    101  CA       -88.8540   75.5170   -2.0450 C.3   140  ASN140      0.1688
    102  C        -90.1040   75.0290   -2.7620 C.2   140  ASN140      0.2292
    103  O        -90.0920   74.8330   -3.9830 O.2   140  ASN140     -0.2864
    104  CB       -87.5770   75.0060   -2.7080 C.3   140  ASN140      0.1181
    105  CG       -86.3630   75.8190   -2.2770 C.2   140  ASN140      0.2629
    106  OD1      -86.5180   76.9620   -1.8520 O.2   140  ASN140     -0.2716
    107  ND2      -85.1670   75.2420   -2.3730 N.am  140  ASN140     -0.0877
    108  N        -94.2980   76.0070   -2.9970 N.3   142  LEU142     -0.1245
    109  CA       -95.3980   76.9010   -2.6690 C.3   142  LEU142      0.1561
    110  C        -96.7210   76.1800   -2.8740 C.2   142  LEU142      0.2260
    111  O        -96.8640   75.3760   -3.8020 O.2   142  LEU142     -0.2867
    112  CB       -95.3690   78.1580   -3.5420 C.3   142  LEU142      0.0270
    113  CG       -94.1130   79.0210   -3.4530 C.3   142  LEU142      0.0019
    114  CD1      -94.2810   80.2590   -4.3400 C.3   142  LEU142      0.0001
    115  CD2      -93.8670   79.4170   -2.0100 C.3   142  LEU142      0.0001
    116  N        -90.0860   76.2210   -6.6010 N.3   153  ILE153     -0.1231
    117  CA       -89.3760   77.4930   -6.7250 C.3   153  ILE153      0.1692
    118  C        -87.8840   77.2920   -6.4930 C.2   153  ILE153      0.2592
    119  O        -87.4350   76.2490   -6.0150 O.2   153  ILE153     -0.2718
    120  CB       -89.9020   78.5750   -5.7550 C.3   153  ILE153      0.0266
    121  CG1      -89.7790   78.0980   -4.3050 C.3   153  ILE153      0.0019
    122  CG2      -91.3360   78.9500   -6.0970 C.3   153  ILE153      0.0020
    123  CD1      -90.0750   79.1770   -3.2740 C.3   153  ILE153      0.0001
    124  N        -87.1230   78.3290   -6.8610 N.am  154  ASP154     -0.1974
    125  CA       -85.7030   78.5190   -6.5680 C.3   154  ASP154      0.1709
    126  C        -84.8050   77.5240   -7.2900 C.2   154  ASP154      0.2293
    127  O        -84.3560   76.5290   -6.7060 O.2   154  ASP154     -0.2864
    128  CB       -85.4260   78.4610   -5.0640 C.3   154  ASP154      0.1436
    129  CG       -84.0930   79.1100   -4.7070 C.2   154  ASP154      0.3671
    130  OD1      -83.8520   79.3680   -3.5180 O.co2 154  ASP154     -0.2456
    131  OD2      -83.2930   79.3810   -5.6310 O.co2 154  ASP154     -0.2456
@<TRIPOS>BOND
     1    65    63   ar
     2    63    62    1
     3    63    64   ar
     4    62    61    1
     5    44    43    2
     6    43    42    1
     7    49    50    1
     8    56    54    1
     9    50    51    1
    10    50    53    1
    11    61    58    1
    12    57    51   am
    13    57    58    1
    14    51    52    2
    15    58    59    1
    16    42    41    1
    17    42    45    1
    18    54    53    1
    19    54    55    1
    20    47    45    1
    21    59    66   am
    22    59    60    2
    23    45    46    1
    24    30    29    2
    25    35    34    2
    26    66    67    1
    27    48    46    1
    28    27    28    1
    29    29    28    1
    30    32    33    1
    31    34    33    1
    32    69    68    2
    33    67    68    1
    34    67    70    1
    35    36    33    1
    36    36    37    1
    37    28    31    1
    38    68    77   am
    39   126   127    2
    40   126   125    1
    41    38    37    1
    42    38    39    1
    43    70    71    1
    44   124   125    1
    45   124   118   am
    46    77    83    1
    47    77    78    1
    48    40    39    1
    49   117   116    1
    50   117   118    1
    51   117   120    1
    52   125   128    1
    53    82    83    1
    54    82    81    1
    55   118   119    2
    56    78    81    1
    57    78    79    1
    58   122   120    1
    59    76    74    1
    60   120   121    1
    61    71    72    1
    62   131   129   ar
    63    73    74    2
    64    73    72    1
    65    79    80    2
    66    74    75    1
    67   128   129    1
    68    12    11    2
    69   129   130   ar
    70   114   113    1
    71   121   123    1
    72    25    24    1
    73   103   102    2
    74    26    24    1
    75   111   110    2
    76    11    10    1
    77   112   113    1
    78   112   109    1
    79   113   115    1
    80    21    24    1
    81    21    22    1
    82    21    20    1
    83    13    10    1
    84    13    14    1
    85    10     9    1
    86   108   109    1
    87   110   109    1
    88    22    23    2
    89   102   101    1
    90   104   105    1
    91   104   101    1
    92    90    88    1
    93     7     6    1
    94   107   105   am
    95    15    14   ar
    96    15    17   ar
    97   105   106    2
    98    14    16   ar
    99    88    89    1
   100    88    85    1
   101   101   100    1
   102    17    19   ar
   103     6     5    1
   104     6     8    1
   105    85    84    1
   106    85    86    1
   107    16    18   ar
   108   100    93   am
   109     5     2    1
   110    19    18   ar
   111    94    93    2
   112    93    92    1
   113    86    87    2
   114     1     2    1
   115     2     3    1
   116     3     4    2
   117    92    91    1
   118    92    95    1
   119    95    96    1
   120    96    97    1
   121    97    99   ar
   122    97    98   ar
