@<TRIPOS>MOLECULE
tmp/5n51A01.pdb
 100 91 0 0 0
SMALL
GASTEIGER

@<TRIPOS>ATOM
      1  N        -65.6220  123.5120    0.8010 N.3    12  LEU12      -0.1231
      2  CA       -67.0000  123.2620    1.2040 C.3    12  LEU12       0.1693
      3  C        -67.1500  121.9370    1.9360 C.2    12  LEU12       0.2592
      4  O        -67.9920  121.8210    2.8340 O.2    12  LEU12      -0.2718
      5  CB       -67.9320  123.2830   -0.0130 C.3    12  LEU12       0.0284
      6  CG       -67.9580  124.5820   -0.8200 C.3    12  LEU12       0.0019
      7  CD1      -68.8910  124.4850   -2.0310 C.3    12  LEU12       0.0001
      8  CD2      -68.3730  125.7300    0.0900 C.3    12  LEU12       0.0001
      9  N        -66.3470  120.9440    1.5790 N.am   13  GLY13      -0.1957
     10  CA       -66.4100  119.6510    2.2350 C.3    13  GLY13       0.1869
     11  C        -65.4740  118.6740    1.5580 C.2    13  GLY13       0.2309
     12  O        -64.7520  119.0140    0.6130 O.2    13  GLY13      -0.2863
     13  N        -64.0890  119.4790   -2.0760 N.3    16  VAL16      -0.1245
     14  CA       -64.9060  120.3630   -2.9000 C.3    16  VAL16       0.1561
     15  C        -64.7150  121.7930   -2.4140 C.2    16  VAL16       0.2260
     16  O        -64.8860  122.0720   -1.2220 O.2    16  VAL16      -0.2867
     17  CB       -66.3970  119.9710   -2.8510 C.3    16  VAL16       0.0252
     18  CG1      -67.2290  120.9160   -3.7140 C.3    16  VAL16       0.0019
     19  CG2      -66.5870  118.5150   -3.2830 C.3    16  VAL16       0.0019
     20  N        -68.6870  125.2510   -7.9380 N.3    29  ALA29      -0.1245
     21  CA       -68.0370  124.3610   -6.9920 C.3    29  ALA29       0.1562
     22  C        -66.9730  123.5700   -7.7360 C.2    29  ALA29       0.2260
     23  O        -67.2110  123.0930   -8.8460 O.2    29  ALA29      -0.2867
     24  CB       -69.0400  123.4000   -6.3260 C.3    29  ALA29       0.0290
     25  N        -64.5870  120.3910   -7.6210 N.3    31  LYS31      -0.1245
     26  CA       -64.4900  119.0900   -6.9720 C.3    31  LYS31       0.1561
     27  C        -63.2750  118.3380   -7.4990 C.2    31  LYS31       0.2260
     28  O        -63.1530  118.1220   -8.7070 O.2    31  LYS31      -0.2867
     29  CB       -65.7680  118.2800   -7.1940 C.3    31  LYS31       0.0271
     30  CG       -65.6630  116.8350   -6.7340 C.3    31  LYS31       0.0035
     31  CD       -67.0420  116.1710   -6.6880 C.3    31  LYS31       0.0206
     32  CE       -66.9600  114.7340   -6.1600 C.3    31  LYS31       0.1093
     33  NZ       -68.3170  114.0550   -6.1700 N.3    31  LYS31      -0.1314
     34  N        -77.5320  118.7250  -10.5730 N.3    68  ILE68      -0.1245
     35  CA       -76.3590  119.5850  -10.6260 C.3    68  ILE68       0.1561
     36  C        -75.7410  119.5200  -12.0200 C.2    68  ILE68       0.2260
     37  O        -75.6970  118.4630  -12.6620 O.2    68  ILE68      -0.2867
     38  CB       -75.3640  119.1660   -9.5330 C.3    68  ILE68       0.0252
     39  CG1      -74.5710  120.3830   -9.0550 C.3    68  ILE68       0.0019
     40  CG2      -74.5010  117.9560   -9.9970 C.3    68  ILE68       0.0019
     41  CD1      -75.4500  121.3810   -8.3150 C.3    68  ILE68       0.0001
     42  N        -68.6350  122.4470  -11.1850 N.3    84  LEU84      -0.1231
     43  CA       -70.0730  122.3190  -11.0480 C.3    84  LEU84       0.1693
     44  C        -70.6900  123.6850  -10.7890 C.2    84  LEU84       0.2592
     45  O        -70.0920  124.5430  -10.1430 O.2    84  LEU84      -0.2718
     46  CB       -70.4320  121.3310   -9.9010 C.3    84  LEU84       0.0284
     47  CG       -69.6850  120.0100  -10.1420 C.3    84  LEU84       0.0019
     48  CD1      -69.0870  119.4320   -8.8810 C.3    84  LEU84       0.0001
     49  CD2      -70.5800  118.9760  -10.8510 C.3    84  LEU84       0.0001
     50  N        -71.8930  123.8830  -11.3160 N.am   85  GLU85      -0.1966
     51  CA       -72.6490  125.0890  -11.0050 C.3    85  GLU85       0.1733
     52  C        -73.0790  125.0670   -9.5430 C.2    85  GLU85       0.2616
     53  O        -73.5910  124.0560   -9.0560 O.2    85  GLU85      -0.2715
     54  CB       -73.8700  125.1860  -11.9160 C.3    85  GLU85       0.0429
     55  CG       -74.3360  126.6090  -12.1820 C.3    85  GLU85       0.1163
     56  CD       -75.4450  126.6630  -13.2100 C.2    85  GLU85       0.3649
     57  OE1      -76.2680  125.7160  -13.2490 O.co2  85  GLU85      -0.2457
     58  OE2      -75.4870  127.6420  -13.9820 O.co2  85  GLU85      -0.2457
     59  N        -72.8730  126.1760   -8.8370 N.am   86  ARG86      -0.1977
     60  CA       -73.1310  126.2180   -7.3970 C.3    86  ARG86       0.1597
     61  C        -74.2760  127.1660   -7.0860 C.2    86  ARG86       0.2287
     62  O        -74.1720  128.3660   -7.3820 O.2    86  ARG86      -0.2864
     63  CB       -71.8840  126.6390   -6.6250 C.3    86  ARG86       0.0334
     64  CG       -72.1840  126.9870   -5.1620 C.3    86  ARG86       0.0492
     65  CD       -70.9070  127.2150   -4.3620 C.3    86  ARG86       0.2205
     66  NE       -70.0700  128.2860   -4.9090 N.pl3  86  ARG86      -0.0865
     67  CZ       -70.2250  129.5750   -4.6210 C.cat  86  ARG86       0.5346
     68  NH1      -71.1960  129.9640   -3.8030 N.pl3  86  ARG86       0.1354
     69  NH2      -69.4090  130.4770   -5.1500 N.pl3  86  ARG86       0.1354
     70  N        -77.4060  128.4600   -0.5150 N.3    90  VAL90      -0.1245
     71  CA       -77.7130  127.0380   -0.5830 C.3    90  VAL90       0.1561
     72  C        -77.5840  126.4380    0.8120 C.2    90  VAL90       0.2260
     73  O        -76.8020  126.9160    1.6400 O.2    90  VAL90      -0.2867
     74  CB       -76.7710  126.3210   -1.5830 C.3    90  VAL90       0.0252
     75  CG1      -75.3670  126.1430   -0.9810 C.3    90  VAL90       0.0019
     76  CG2      -77.3320  125.0040   -1.9970 C.3    90  VAL90       0.0019
     77  N        -79.2250  119.5130   -2.6390 N.3   138  LEU138     -0.1245
     78  CA       -79.0610  120.9250   -2.3080 C.3   138  LEU138      0.1561
     79  C        -80.3730  121.6610   -2.5110 C.2   138  LEU138      0.2260
     80  O        -81.1160  121.3900   -3.4650 O.2   138  LEU138     -0.2867
     81  CB       -77.9770  121.5840   -3.1600 C.3   138  LEU138      0.0270
     82  CG       -76.5820  120.9670   -3.1030 C.3   138  LEU138      0.0019
     83  CD1      -75.6100  121.7700   -3.9600 C.3   138  LEU138      0.0001
     84  CD2      -76.0940  120.8660   -1.6500 C.3   138  LEU138      0.0001
     85  N        -77.0190  115.9800   -6.2650 N.3   149  ILE149     -0.1231
     86  CA       -75.5770  116.0880   -6.4280 C.3   149  ILE149      0.1692
     87  C        -74.9390  114.7270   -6.1850 C.2   149  ILE149      0.2592
     88  O        -75.5990  113.7630   -5.8080 O.2   149  ILE149     -0.2718
     89  CB       -74.9560  117.1310   -5.4790 C.3   149  ILE149      0.0266
     90  CG1      -75.1370  116.6690   -4.0320 C.3   149  ILE149      0.0019
     91  CG2      -75.5780  118.5000   -5.6970 C.3   149  ILE149      0.0020
     92  CD1      -74.3290  117.4520   -3.0330 C.3   149  ILE149      0.0001
     93  N        -73.6190  114.6880   -6.3830 N.am  150  ASP150     -0.1974
     94  CA       -72.7330  113.5650   -6.1010 C.3   150  ASP150      0.1709
     95  C        -73.1440  112.2810   -6.8130 C.2   150  ASP150      0.2293
     96  O        -73.7640  111.3860   -6.2190 O.2   150  ASP150     -0.2864
     97  CB       -72.6250  113.3260   -4.5910 C.3   150  ASP150      0.1436
     98  CG       -71.4750  112.3990   -4.2410 C.2   150  ASP150      0.3671
     99  OD1      -71.3060  112.0620   -3.0500 O.co2 150  ASP150     -0.2456
    100  OD2      -70.7500  111.9900   -5.1700 O.co2 150  ASP150     -0.2456
@<TRIPOS>BOND
     1    58    56   ar
     2    57    56   ar
     3    56    55    1
     4    37    36    2
     5    55    54    1
     6    36    35    1
     7    54    51    1
     8    50    51    1
     9    50    44   am
    10    42    43    1
    11    43    44    1
    12    43    46    1
    13    51    52    1
    14    49    47    1
    15    44    45    2
    16    35    34    1
    17    35    38    1
    18    47    46    1
    19    47    48    1
    20    40    38    1
    21    52    53    2
    22    52    59   am
    23    38    39    1
    24    39    41    1
    25    23    22    2
    26    59    60    1
    27    28    27    2
    28    20    21    1
    29    22    21    1
    30    25    26    1
    31    27    26    1
    32    60    61    1
    33    60    63    1
    34    62    61    2
    35    29    26    1
    36    29    30    1
    37    21    24    1
    38    95    96    2
    39    95    94    1
    40    30    31    1
    41    31    32    1
    42    63    64    1
    43    86    85    1
    44    86    87    1
    45    86    89    1
    46    93    87   am
    47    93    94    1
    48    87    88    2
    49    33    32    1
    50    94    97    1
    51    91    89    1
    52    89    90    1
    53   100    98   ar
    54    64    65    1
    55    69    67    1
    56    66    67    2
    57    66    65    1
    58    67    68    1
    59    97    98    1
    60    98    99   ar
    61    90    92    1
    62    83    82    1
    63    18    17    1
    64    80    79    2
    65    19    17    1
    66    81    82    1
    67    81    78    1
    68    82    84    1
    69    14    17    1
    70    14    15    1
    71    14    13    1
    72    77    78    1
    73    79    78    1
    74    15    16    2
    75     7     6    1
    76    76    74    1
    77    74    75    1
    78    74    71    1
    79     6     5    1
    80     6     8    1
    81    71    70    1
    82    71    72    1
    83     5     2    1
    84    12    11    2
    85     1     2    1
    86    72    73    2
    87     2     3    1
    88    11    10    1
    89     9     3   am
    90     9    10    1
    91     3     4    2
