@<TRIPOS>MOLECULE
tmp/5n51A00.pdb
 176 167 0 0 0
SMALL
GASTEIGER

@<TRIPOS>ATOM
      1  N        -77.7180  122.1060    2.1910 N.3    92  ASP92      -0.1239
      2  CA       -78.0890  120.7590    1.7950 C.3    92  ASP92       0.1674
      3  C        -79.2230  120.2510    2.6890 C.2    92  ASP92       0.2266
      4  O        -79.4690  120.7580    3.7960 O.2    92  ASP92      -0.2867
      5  CB       -76.8690  119.8090    1.7850 C.3    92  ASP92       0.1410
      6  CG       -76.4030  119.3600    3.1830 C.2    92  ASP92       0.3668
      7  OD1      -75.1890  119.1000    3.3230 O.co2  92  ASP92      -0.2456
      8  OD2      -77.2200  119.2000    4.1170 O.co2  92  ASP92      -0.2456
      9  N        -79.7650  117.5880    4.3720 N.3    94  PHE94      -0.1227
     10  CA       -79.4580  117.0220    5.6860 C.3    94  PHE94       0.1736
     11  C        -79.3920  118.1050    6.7640 C.2    94  PHE94       0.2595
     12  O        -80.0140  117.9800    7.8240 O.2    94  PHE94      -0.2718
     13  CB       -78.1500  116.2310    5.6380 C.3    94  PHE94       0.0547
     14  CG       -77.7620  115.6480    6.9750 C.ar   94  PHE94      -0.0202
     15  CD1      -78.1380  114.3620    7.3170 C.ar   94  PHE94      -0.0042
     16  CD2      -77.0470  116.4100    7.9010 C.ar   94  PHE94      -0.0042
     17  CE1      -77.7960  113.8360    8.5850 C.ar   94  PHE94      -0.0003
     18  CE2      -76.7070  115.8950    9.1430 C.ar   94  PHE94      -0.0003
     19  CZ       -77.0820  114.6060    9.4830 C.ar   94  PHE94      -0.0000
     20  N        -78.6060  119.1630    6.5250 N.am   95  ASP95      -0.1974
     21  CA       -78.5030  120.2420    7.5080 C.3    95  ASP95       0.1709
     22  C        -79.8410  120.9370    7.6980 C.2    95  ASP95       0.2293
     23  O        -80.1640  121.3940    8.8000 O.2    95  ASP95      -0.2864
     24  CB       -77.4600  121.2720    7.0710 C.3    95  ASP95       0.1436
     25  CG       -76.0500  120.7270    7.0690 C.2    95  ASP95       0.3671
     26  OD1      -75.7500  119.7470    7.7950 O.co2  95  ASP95      -0.2456
     27  OD2      -75.2360  121.3040    6.3300 O.co2  95  ASP95      -0.2456
     28  N        -82.9190  119.6030    7.4830 N.3    97  ILE97      -0.1231
     29  CA       -83.7770  118.7970    8.3520 C.3    97  ILE97       0.1692
     30  C        -83.2430  118.8030    9.7800 C.2    97  ILE97       0.2592
     31  O        -84.0150  118.8360   10.7460 O.2    97  ILE97      -0.2718
     32  CB       -83.9200  117.3610    7.8000 C.3    97  ILE97       0.0266
     33  CG1      -84.8480  117.3550    6.5770 C.3    97  ILE97       0.0019
     34  CG2      -84.4610  116.4150    8.8840 C.3    97  ILE97       0.0020
     35  CD1      -84.6360  116.1690    5.6280 C.3    97  ILE97       0.0001
     36  N        -81.9170  118.7650    9.9380 N.am   98  THR98      -0.1953
     37  CA       -81.3340  118.8530   11.2770 C.3    98  THR98       0.1897
     38  C        -81.7830  120.1220   11.9870 C.2    98  THR98       0.2313
     39  O        -82.2080  120.0850   13.1410 O.2    98  THR98      -0.2863
     40  CB       -79.8090  118.8030   11.2010 C.3    98  THR98       0.1794
     41  OG1      -79.4170  117.5260   10.7070 O.3    98  THR98      -0.2208
     42  CG2      -79.2010  118.9980   12.5860 C.3    98  THR98       0.0378
     43  N        -77.3040  106.8210   -4.9320 N.3   131  ASP131     -0.1239
     44  CA       -77.0110  107.3420   -3.5960 C.3   131  ASP131      0.1674
     45  C        -77.9540  108.4940   -3.2510 C.2   131  ASP131      0.2266
     46  O        -77.5390  109.5110   -2.6810 O.2   131  ASP131     -0.2867
     47  CB       -75.5410  107.7640   -3.4730 C.3   131  ASP131      0.1410
     48  CG       -75.0510  107.8360   -2.0040 C.2   131  ASP131      0.3668
     49  OD1      -73.9920  108.4610   -1.7740 O.co2 131  ASP131     -0.2456
     50  OD2      -75.7120  107.2730   -1.0930 O.co2 131  ASP131     -0.2456
     51  N        -80.0860  110.5710   -1.0830 N.3   133  LYS133     -0.1231
     52  CA       -80.2180  110.7930    0.3560 C.3   133  LYS133      0.1693
     53  C        -80.2330  112.2930    0.5920 C.2   133  LYS133      0.2592
     54  O        -79.8710  113.0660   -0.3000 O.2   133  LYS133     -0.2718
     55  CB       -79.0840  110.1190    1.1520 C.3   133  LYS133      0.0285
     56  CG       -77.6680  110.5640    0.7900 C.3   133  LYS133      0.0035
     57  CD       -76.6440  109.8550    1.6820 C.3   133  LYS133      0.0206
     58  CE       -75.2140  110.2330    1.3140 C.3   133  LYS133      0.1093
     59  NZ       -74.2300  109.6980    2.2980 N.3   133  LYS133     -0.1314
     60  N        -80.6510  112.7040    1.8030 N.am  134  ASP134     -0.1960
     61  CA       -80.7600  114.1420    2.0620 C.3   134  ASP134      0.1840
     62  C        -79.4110  114.8320    1.9330 C.2   134  ASP134      0.2621
     63  O        -79.3460  115.9940    1.5110 O.2   134  ASP134     -0.2715
     64  CB       -81.3920  114.4290    3.4430 C.3   134  ASP134      0.1450
     65  CG       -80.6830  113.7190    4.6310 C.2   134  ASP134      0.3671
     66  OD1      -79.6480  113.0320    4.4660 O.co2 134  ASP134     -0.2456
     67  OD2      -81.2070  113.8470    5.7570 O.co2 134  ASP134     -0.2456
     68  N        -78.3260  114.1270    2.2680 N.am  135  GLU135     -0.1977
     69  CA       -76.9810  114.6910    2.1310 C.3   135  GLU135      0.1602
     70  C        -76.6480  115.0620    0.6900 C.2   135  GLU135      0.2287
     71  O        -75.8530  115.9830    0.4510 O.2   135  GLU135     -0.2864
     72  CB       -75.9450  113.6810    2.6180 C.3   135  GLU135      0.0415
     73  CG       -76.0120  113.3090    4.0900 C.3   135  GLU135      0.1163
     74  CD       -74.8630  112.3930    4.4800 C.2   135  GLU135      0.3649
     75  OE1      -75.1080  111.2030    4.7550 O.co2 135  GLU135     -0.2457
     76  OE2      -73.7100  112.8690    4.4780 O.co2 135  GLU135     -0.2457
     77  N        -73.6190  114.6880   -6.3830 N.3   150  ASP150     -0.1239
     78  CA       -72.7330  113.5650   -6.1010 C.3   150  ASP150      0.1674
     79  C        -73.1440  112.2810   -6.8130 C.2   150  ASP150      0.2266
     80  O        -73.7640  111.3860   -6.2190 O.2   150  ASP150     -0.2867
     81  CB       -72.6250  113.3260   -4.5910 C.3   150  ASP150      0.1410
     82  CG       -71.4750  112.3990   -4.2410 C.2   150  ASP150      0.3668
     83  OD1      -71.3060  112.0620   -3.0500 O.co2 150  ASP150     -0.2456
     84  OD2      -70.7500  111.9900   -5.1700 O.co2 150  ASP150     -0.2456
     85  N        -71.2520  107.4480   -6.9300 N.3   153  SER153     -0.1217
     86  CA       -71.5960  106.0400   -6.7720 C.3   153  SER153      0.1889
     87  C        -72.5350  105.5570   -7.8680 C.2   153  SER153      0.2288
     88  O        -73.0310  104.4330   -7.7920 O.2   153  SER153     -0.2866
     89  CB       -72.2400  105.7810   -5.4010 C.3   153  SER153      0.2089
     90  OG       -71.6180  106.5310   -4.3600 O.3   153  SER153     -0.2183
     91  N        -71.8980  100.9070   -3.9250 N.3   166  ASP166     -0.1225
     92  CA       -71.0010  101.7310   -3.1230 C.3   166  ASP166      0.1805
     93  C        -71.6990  102.9740   -2.5710 C.2   166  ASP166      0.2598
     94  O        -71.0230  103.9400   -2.2020 O.2   166  ASP166     -0.2718
     95  CB       -69.7690  102.1260   -3.9430 C.3   166  ASP166      0.1424
     96  CG       -68.5370  102.4000   -3.0870 C.2   166  ASP166      0.3668
     97  OD1      -68.6010  102.1730   -1.8610 O.co2 166  ASP166     -0.2456
     98  OD2      -67.5350  102.8780   -3.6470 O.co2 166  ASP166     -0.2456
     99  N        -73.0340  102.9700   -2.4910 N.am  167  GLY167     -0.1942
    100  CA       -73.7800  104.0790   -1.9170 C.3   167  GLY167      0.2014
    101  C        -73.8700  104.0100   -0.4010 C.2   167  GLY167      0.2640
    102  O        -73.0110  103.4330    0.2690 O.2   167  GLY167     -0.2714
    103  N        -74.9300  104.6030    0.1500 N.am  168  THR168     -0.1936
    104  CA       -75.1270  104.6830    1.5940 C.3   168  THR168      0.2028
    105  C        -75.9630  103.4970    2.0630 C.2   168  THR168      0.2642
    106  O        -77.0930  103.3030    1.6050 O.2   168  THR168     -0.2714
    107  CB       -75.7940  106.0040    1.9600 C.3   168  THR168      0.1808
    108  OG1      -74.9850  107.0820    1.4700 O.3   168  THR168     -0.2208
    109  CG2      -75.9440  106.1410    3.4880 C.3   168  THR168      0.0379
    110  N        -75.4060  102.7070    2.9830 N.am  169  ARG169     -0.1963
    111  CA       -76.0260  101.4350    3.3520 C.3   169  ARG169      0.1729
    112  C        -77.4160  101.6290    3.9510 C.2   169  ARG169      0.2616
    113  O        -78.3330  100.8450    3.6620 O.2   169  ARG169     -0.2715
    114  CB       -75.1220  100.6800    4.3310 C.3   169  ARG169      0.0348
    115  CG       -75.5910   99.2610    4.6320 C.3   169  ARG169      0.0492
    116  CD       -74.5330   98.4530    5.3720 C.3   169  ARG169      0.2205
    117  NE       -74.9520   97.0700    5.5670 N.pl3 169  ARG169     -0.0865
    118  CZ       -74.6470   96.0750    4.7420 C.cat 169  ARG169      0.5346
    119  NH1      -73.9150   96.3040    3.6640 N.pl3 169  ARG169      0.1354
    120  NH2      -75.0760   94.8520    4.9950 N.pl3 169  ARG169      0.1354
    121  N        -77.5970  102.6560    4.7910 N.am  170  VAL170     -0.1963
    122  CA       -78.8800  102.8580    5.4660 C.3   170  VAL170      0.1727
    123  C        -79.9810  103.3180    4.5190 C.2   170  VAL170      0.2616
    124  O        -81.1510  103.3610    4.9310 O.2   170  VAL170     -0.2715
    125  CB       -78.7670  103.8590    6.6420 C.3   170  VAL170      0.0290
    126  CG1      -77.9880  103.2290    7.8380 C.3   170  VAL170      0.0023
    127  CG2      -78.1310  105.1660    6.1990 C.3   170  VAL170      0.0023
    128  N        -79.6420  103.6800    3.2770 N.am  171  TYR171     -0.1974
    129  CA       -80.6260  103.9100    2.2260 C.3   171  TYR171      0.1639
    130  C        -80.7030  102.7460    1.2430 C.2   171  TYR171      0.2290
    131  O        -81.4450  102.8290    0.2620 O.2   171  TYR171     -0.2864
    132  CB       -80.3110  105.2110    1.4520 C.3   171  TYR171      0.0560
    133  CG       -80.6120  106.5280    2.1730 C.ar  171  TYR171     -0.0198
    134  CD1      -79.7890  107.0020    3.1970 C.ar  171  TYR171     -0.0009
    135  CD2      -81.7040  107.3090    1.7960 C.ar  171  TYR171     -0.0009
    136  CE1      -80.0530  108.2110    3.8440 C.ar  171  TYR171      0.0417
    137  CE2      -81.9870  108.5230    2.4330 C.ar  171  TYR171      0.0417
    138  CZ       -81.1500  108.9630    3.4590 C.ar  171  TYR171      0.1957
    139  OH       -81.4300  110.1600    4.0700 O.3   171  TYR171     -0.2866
    140  N        -87.5190  110.3170    6.3010 N.3   198  ASP198     -0.1239
    141  CA       -86.5580  111.2990    6.8060 C.3   198  ASP198      0.1674
    142  C        -87.1600  112.6970    6.8620 C.2   198  ASP198      0.2266
    143  O        -87.0740  113.3900    7.8850 O.2   198  ASP198     -0.2867
    144  CB       -85.3330  111.2730    5.8850 C.3   198  ASP198      0.1410
    145  CG       -84.2020  112.1660    6.3490 C.2   198  ASP198      0.3668
    146  OD1      -83.9040  112.2410    7.5690 O.co2 198  ASP198     -0.2456
    147  OD2      -83.5880  112.7770    5.4490 O.co2 198  ASP198     -0.2456
    148  N        -88.0450  113.6450   10.5170 N.3   202  GLY202     -0.1210
    149  CA       -86.8830  114.3290   11.0230 C.3   202  GLY202      0.1956
    150  C        -85.6350  113.4860   11.0910 C.2   202  GLY202      0.2612
    151  O        -84.5700  114.0190   11.4240 O.2   202  GLY202     -0.2717
    152  N        -85.7290  112.1890   10.8000 N.am  203  ASP203     -0.1959
    153  CA       -84.5440  111.3470   10.6440 C.3   203  ASP203      0.1840
    154  C        -84.9680  110.0710    9.9280 C.2   203  ASP203      0.2621
    155  O        -86.1610  109.7680    9.8340 O.2   203  ASP203     -0.2715
    156  CB       -83.8800  111.0270   11.9930 C.3   203  ASP203      0.1450
    157  CG       -82.4210  110.5910   11.8450 C.2   203  ASP203      0.3671
    158  OD1      -81.8590  110.6910   10.7260 O.co2 203  ASP203     -0.2456
    159  OD2      -81.8280  110.1560   12.8550 O.co2 203  ASP203     -0.2456
    160  N        -83.9860  109.3440    9.4010 N.am  204  ILE204     -0.1977
    161  CA       -84.2430  108.1170    8.6370 C.3   204  ILE204      0.1596
    162  C        -84.7970  107.0330    9.5660 C.2   204  ILE204      0.2287
    163  O        -84.5460  107.0730   10.7800 O.2   204  ILE204     -0.2864
    164  CB       -82.9670  107.6220    7.9410 C.3   204  ILE204      0.0276
    165  CG1      -81.8780  107.3300    8.9780 C.3   204  ILE204      0.0022
    166  CG2      -82.4690  108.6330    6.8990 C.3   204  ILE204      0.0022
    167  CD1      -80.6100  106.8100    8.3610 C.3   204  ILE204      0.0001
    168  N        -81.2890  102.2550   11.0850 N.3   207  GLU207     -0.1245
    169  CA       -79.8470  102.3860   11.2490 C.3   207  GLU207      0.1567
    170  C        -79.1020  101.0660   11.1520 C.2   207  GLU207      0.2260
    171  O        -77.9000  101.0820   10.8670 O.2   207  GLU207     -0.2867
    172  CB       -79.5080  103.0260   12.6070 C.3   207  GLU207      0.0388
    173  CG       -79.9310  104.4770   12.7470 C.3   207  GLU207      0.1160
    174  CD       -79.0050  105.4430   12.0180 C.2   207  GLU207      0.3649
    175  OE1      -79.3710  106.6320   11.9120 O.co2 207  GLU207     -0.2457
    176  OE2      -77.9210  105.0220   11.5520 O.co2 207  GLU207     -0.2457
@<TRIPOS>BOND
     1    87    88    2
     2    87    86    1
     3    85    86    1
     4    79    80    2
     5    79    78    1
     6    86    89    1
     7    77    78    1
     8    78    81    1
     9    89    90    1
    10    84    82   ar
    11    43    44    1
    12    81    82    1
    13    82    83   ar
    14    95    92    1
    15    95    96    1
    16    91    92    1
    17    98    96   ar
    18    44    47    1
    19    44    45    1
    20    47    48    1
    21    45    46    2
    22    92    93    1
    23    96    97   ar
    24    93    99   am
    25    93    94    2
    26    99   100    1
    27    48    49   ar
    28    48    50   ar
    29   100   101    1
    30    51    52    1
    31   101   103   am
    32   101   102    2
    33    54    53    2
    34   103   104    1
    35   131   130    2
    36    52    53    1
    37    52    55    1
    38    71    70    2
    39    53    60   am
    40    70    69    1
    41    56    55    1
    42    56    57    1
    43   130   129    1
    44    58    57    1
    45    58    59    1
    46   132   133    1
    47   132   129    1
    48   108   107    1
    49    63    62    2
    50   104   107    1
    51   104   105    1
    52   106   105    2
    53     5     2    1
    54     5     6    1
    55     2     1    1
    56     2     3    1
    57   135   133   ar
    58   135   137   ar
    59    60    61    1
    60    62    61    1
    61    62    68   am
    62   107   109    1
    63    61    64    1
    64   105   110   am
    65    69    68    1
    66    69    72    1
    67   133   134   ar
    68   129   128    1
    69   137   138   ar
    70    72    73    1
    71     3     4    2
    72   110   111    1
    73     6     7   ar
    74     6     8   ar
    75   134   136   ar
    76   128   123   am
    77   111   112    1
    78   111   114    1
    79    64    65    1
    80   138   136   ar
    81   138   139    1
    82   113   112    2
    83   119   118    1
    84   112   121   am
    85    73    74    1
    86   114   115    1
    87     9    10    1
    88    66    65   ar
    89    76    74   ar
    90    74    75   ar
    91   123   124    2
    92   123   122    1
    93    65    67   ar
    94   115   116    1
    95   118   120    1
    96   118   117    2
    97   121   122    1
    98   116   117    1
    99   147   145   ar
   100   122   125    1
   101    35    33    1
   102    13    10    1
   103    13    14    1
   104    10    11    1
   105   144   145    1
   106   144   141    1
   107   127   125    1
   108   140   141    1
   109    27    25   ar
   110   145   146   ar
   111    20    11   am
   112    20    21    1
   113    33    32    1
   114   125   126    1
   115    11    12    2
   116   141   142    1
   117   142   143    2
   118   166   164    1
   119    14    15   ar
   120    14    16   ar
   121    25    24    1
   122    25    26   ar
   123    24    21    1
   124    15    17   ar
   125    28    29    1
   126    21    22    1
   127    22    23    2
   128    32    29    1
   129    32    34    1
   130    16    18   ar
   131   164   161    1
   132   164   165    1
   133    29    30    1
   134   167   165    1
   135    17    19   ar
   136   161   160    1
   137   161   162    1
   138    18    19   ar
   139   160   154   am
   140   162   163    2
   141    30    36   am
   142    30    31    2
   143   155   154    2
   144   154   153    1
   145    36    37    1
   146   148   149    1
   147   153   152    1
   148   153   156    1
   149    41    40    1
   150   158   157   ar
   151   152   150   am
   152   171   170    2
   153   149   150    1
   154   168   169    1
   155   150   151    2
   156   170   169    1
   157    40    37    1
   158    40    42    1
   159   169   172    1
   160    37    38    1
   161   176   174   ar
   162   157   156    1
   163   157   159   ar
   164   175   174   ar
   165    38    39    2
   166   174   173    1
   167   172   173    1
