@<TRIPOS>MOLECULE
tmp/5n52A01.pdb
 135 126 0 0 0
SMALL
GASTEIGER

@<TRIPOS>ATOM
      1  N        -65.5830 -122.8600   -0.3920 N.3    12  LEU12      -0.1231
      2  CA       -66.9740 -122.6110   -0.7400 C.3    12  LEU12       0.1693
      3  C        -67.1970 -121.2260   -1.3320 C.2    12  LEU12       0.2592
      4  O        -68.0530 -121.0680   -2.2060 O.2    12  LEU12      -0.2718
      5  CB       -67.8700 -122.7790    0.4930 C.3    12  LEU12       0.0284
      6  CG       -67.7660 -124.1070    1.2440 C.3    12  LEU12       0.0019
      7  CD1      -68.5060 -124.0460    2.5700 C.3    12  LEU12       0.0001
      8  CD2      -68.3190 -125.2220    0.3930 C.3    12  LEU12       0.0001
      9  N        -66.4340 -120.2300   -0.8930 N.am   13  GLY13      -0.1957
     10  CA       -66.5330 -118.8850   -1.4280 C.3    13  GLY13       0.1869
     11  C        -65.4160 -117.9960   -0.9180 C.2    13  GLY13       0.2309
     12  O        -64.5900 -118.4410   -0.1210 O.2    13  GLY13      -0.2863
     13  N        -64.0400 -118.9890    2.6210 N.3    15  VAL15      -0.1245
     14  CA       -64.8030 -119.8760    3.4920 C.3    15  VAL15       0.1561
     15  C        -64.6060 -121.3020    2.9980 C.2    15  VAL15       0.2260
     16  O        -64.8230 -121.5820    1.8120 O.2    15  VAL15      -0.2867
     17  CB       -66.3000 -119.5090    3.5090 C.3    15  VAL15       0.0252
     18  CG1      -67.0710 -120.4540    4.4520 C.3    15  VAL15       0.0019
     19  CG2      -66.4970 -118.0410    3.9010 C.3    15  VAL15       0.0019
     20  N        -68.4840 -124.7400    8.5200 N.3    28  ALA28      -0.1245
     21  CA       -67.8470 -123.8330    7.5800 C.3    28  ALA28       0.1562
     22  C        -66.7540 -123.0770    8.3190 C.2    28  ALA28       0.2260
     23  O        -66.9470 -122.6320    9.4530 O.2    28  ALA28      -0.2867
     24  CB       -68.8500 -122.8520    6.9600 C.3    28  ALA28       0.0290
     25  N        -64.3740 -119.9590    8.1530 N.3    30  LYS30      -0.1245
     26  CA       -64.2820 -118.6570    7.5090 C.3    30  LYS30       0.1561
     27  C        -63.0470 -117.9280    8.0110 C.2    30  LYS30       0.2260
     28  O        -62.8880 -117.7280    9.2170 O.2    30  LYS30      -0.2867
     29  CB       -65.5360 -117.8290    7.7860 C.3    30  LYS30       0.0271
     30  CG       -65.4730 -116.4140    7.2490 C.3    30  LYS30       0.0035
     31  CD       -66.8800 -115.7870    7.2470 C.3    30  LYS30       0.0206
     32  CE       -66.9050 -114.3690    6.6930 C.3    30  LYS30       0.1093
     33  NZ       -68.3140 -113.8450    6.6700 N.3    30  LYS30      -0.1314
     34  N        -67.9100 -108.5710   13.4940 N.3    52  GLU52      -0.1245
     35  CA       -68.6420 -109.7410   13.0340 C.3    52  GLU52       0.1567
     36  C        -68.7060 -110.8200   14.1130 C.2    52  GLU52       0.2260
     37  O        -69.7500 -111.4650   14.2950 O.2    52  GLU52      -0.2867
     38  CB       -67.9950 -110.2740   11.7500 C.3    52  GLU52       0.0388
     39  CG       -68.7250 -111.4220   11.1160 C.3    52  GLU52       0.1160
     40  CD       -68.0770 -111.9140    9.8390 C.2    52  GLU52       0.3649
     41  OE1      -67.0920 -111.3010    9.3710 O.co2  52  GLU52      -0.2457
     42  OE2      -68.5680 -112.9240    9.3020 O.co2  52  GLU52      -0.2457
     43  N        -72.1110 -112.0860   15.8240 N.3    56  LEU56      -0.1245
     44  CA       -72.4600 -113.4950   15.7160 C.3    56  LEU56       0.1561
     45  C        -72.6830 -114.1100   17.0870 C.2    56  LEU56       0.2260
     46  O        -73.5910 -114.9280   17.2550 O.2    56  LEU56      -0.2867
     47  CB       -71.3870 -114.2590   14.9450 C.3    56  LEU56       0.0270
     48  CG       -71.3720 -114.1670   13.4140 C.3    56  LEU56       0.0019
     49  CD1      -70.0070 -114.6700   12.8760 C.3    56  LEU56       0.0001
     50  CD2      -72.5080 -114.9630   12.7960 C.3    56  LEU56       0.0001
     51  N        -77.1880 -118.2520   11.0490 N.3    67  ILE67      -0.1245
     52  CA       -76.0040 -119.0950   11.1480 C.3    67  ILE67       0.1561
     53  C        -75.4100 -118.9900   12.5510 C.2    67  ILE67       0.2260
     54  O        -75.3420 -117.9070   13.1450 O.2    67  ILE67      -0.2867
     55  CB       -74.9860 -118.6760   10.0740 C.3    67  ILE67       0.0252
     56  CG1      -74.1480 -119.8790    9.6160 C.3    67  ILE67       0.0019
     57  CG2      -74.1360 -117.4330   10.5490 C.3    67  ILE67       0.0019
     58  CD1      -74.9410 -120.8620    8.8200 C.3    67  ILE67       0.0001
     59  N        -68.3280 -121.8630   11.7290 N.3    83  LEU83      -0.1231
     60  CA       -69.7640 -121.7050   11.5760 C.3    83  LEU83       0.1693
     61  C        -70.3940 -123.0570   11.2930 C.2    83  LEU83       0.2592
     62  O        -69.7570 -123.9480   10.7240 O.2    83  LEU83      -0.2718
     63  CB       -70.0970 -120.7450   10.4240 C.3    83  LEU83       0.0284
     64  CG       -69.4510 -119.3650   10.4880 C.3    83  LEU83       0.0019
     65  CD1      -69.3960 -118.7650    9.0970 C.3    83  LEU83       0.0001
     66  CD2      -70.2390 -118.4530   11.4260 C.3    83  LEU83       0.0001
     67  N        -71.6610 -123.1970   11.6600 N.am   84  GLU84      -0.1966
     68  CA       -72.3900 -124.3880   11.2550 C.3    84  GLU84       0.1733
     69  C        -72.5670 -124.4060    9.7420 C.2    84  GLU84       0.2616
     70  O        -72.6460 -123.3620    9.0880 O.2    84  GLU84      -0.2715
     71  CB       -73.7450 -124.4540   11.9560 C.3    84  GLU84       0.0429
     72  CG       -74.7810 -123.4820   11.4560 C.3    84  GLU84       0.1163
     73  CD       -76.0090 -123.4500   12.3550 C.2    84  GLU84       0.3649
     74  OE1      -76.7230 -122.4190   12.3590 O.co2  84  GLU84      -0.2457
     75  OE2      -76.2450 -124.4580   13.0650 O.co2  84  GLU84      -0.2457
     76  N        -72.5980 -125.6040    9.1740 N.am   85  ARG85      -0.1964
     77  CA       -72.8380 -125.7570    7.7380 C.3    85  ARG85       0.1714
     78  C        -73.9960 -126.7120    7.5020 C.2    85  ARG85       0.2458
     79  O        -73.8480 -127.9310    7.7280 O.2    85  ARG85      -0.2730
     80  CB       -71.5880 -126.2320    7.0020 C.3    85  ARG85       0.0347
     81  CG       -71.8580 -126.6240    5.5550 C.3    85  ARG85       0.0492
     82  CD       -70.5670 -126.9520    4.8250 C.3    85  ARG85       0.2205
     83  NE       -69.7800 -127.9930    5.4980 N.pl3  85  ARG85      -0.0865
     84  CZ       -69.8900 -129.3000    5.2600 C.cat  85  ARG85       0.5346
     85  NH1      -70.7680 -129.7560    4.3740 N.pl3  85  ARG85       0.1354
     86  NH2      -69.1210 -130.1570    5.9170 N.pl3  85  ARG85       0.1354
     87  N        -75.1480 -126.2180    7.0590 N.am   86  PRO86      -0.2727
     88  CA       -76.2210 -127.1260    6.6520 C.3    86  PRO86       0.1402
     89  C        -75.7790 -127.9830    5.4820 C.2    86  PRO86       0.2269
     90  O        -74.9590 -127.5790    4.6530 O.2    86  PRO86      -0.2865
     91  CB       -77.3660 -126.1800    6.2500 C.3    86  PRO86       0.0296
     92  CG       -77.0080 -124.8280    6.8450 C.3    86  PRO86       0.0237
     93  CD       -75.5080 -124.7960    6.8770 C.3    86  PRO86       0.0939
     94  N        -77.2260 -128.0410    1.1130 N.3    89  VAL89      -0.1245
     95  CA       -77.4960 -126.6120    1.1850 C.3    89  VAL89       0.1561
     96  C        -77.3780 -126.0000   -0.2070 C.2    89  VAL89       0.2260
     97  O        -76.6730 -126.5210   -1.0760 O.2    89  VAL89      -0.2867
     98  CB       -76.5270 -125.9260    2.1730 C.3    89  VAL89       0.0252
     99  CG1      -75.1410 -125.7900    1.5420 C.3    89  VAL89       0.0019
    100  CG2      -77.0500 -124.5950    2.6100 C.3    89  VAL89       0.0019
    101  N        -79.0130 -119.0350    3.2070 N.3   137  LEU137     -0.1245
    102  CA       -78.8260 -120.4400    2.8700 C.3   137  LEU137      0.1561
    103  C        -80.1370 -121.1840    3.0560 C.2   137  LEU137      0.2260
    104  O        -80.9050 -120.8920    3.9780 O.2   137  LEU137     -0.2867
    105  CB       -77.7370 -121.0990    3.7200 C.3   137  LEU137      0.0270
    106  CG       -76.3310 -120.5210    3.6040 C.3   137  LEU137      0.0019
    107  CD1      -75.4240 -121.2670    4.5710 C.3   137  LEU137      0.0001
    108  CD2      -75.7670 -120.5640    2.1490 C.3   137  LEU137      0.0001
    109  N        -76.7830 -115.4630    6.7450 N.3   148  ILE148     -0.1231
    110  CA       -75.3410 -115.5670    6.9300 C.3   148  ILE148      0.1692
    111  C        -74.6640 -114.2260    6.6790 C.2   148  ILE148      0.2592
    112  O        -75.2710 -113.2600    6.2140 O.2   148  ILE148     -0.2718
    113  CB       -74.7040 -116.6380    6.0210 C.3   148  ILE148      0.0266
    114  CG1      -74.8700 -116.2410    4.5460 C.3   148  ILE148      0.0019
    115  CG2      -75.3000 -118.0170    6.3310 C.3   148  ILE148      0.0020
    116  CD1      -74.0230 -117.0620    3.5760 C.3   148  ILE148      0.0001
    117  N        -73.3660 -114.2120    6.9800 N.am  149  ASP149     -0.1960
    118  CA       -72.4230 -113.1410    6.6790 C.3   149  ASP149      0.1840
    119  C        -72.8120 -111.8430    7.3700 C.2   149  ASP149      0.2622
    120  O        -73.4250 -110.9450    6.7710 O.2   149  ASP149     -0.2715
    121  CB       -72.2780 -112.9340    5.1620 C.3   149  ASP149      0.1450
    122  CG       -71.1290 -111.9980    4.8100 C.2   149  ASP149      0.3671
    123  OD1      -70.9000 -111.7510    3.6150 O.co2 149  ASP149     -0.2456
    124  OD2      -70.4580 -111.4880    5.7320 O.co2 149  ASP149     -0.2456
    125  N        -72.4110 -111.7300    8.6320 N.am  150  PHE150     -0.1974
    126  CA       -72.6020 -110.5200    9.4120 C.3   150  PHE150      0.1639
    127  C        -71.4400 -109.5370    9.2540 C.2   150  PHE150      0.2290
    128  O        -71.3220 -108.6000   10.0490 O.2   150  PHE150     -0.2864
    129  CB       -72.8310 -110.8910   10.8840 C.3   150  PHE150      0.0560
    130  CG       -74.1950 -111.4650   11.1460 C.ar  150  PHE150     -0.0200
    131  CD1      -75.1870 -110.6900   11.7390 C.ar  150  PHE150     -0.0042
    132  CD2      -74.5110 -112.7610   10.7480 C.ar  150  PHE150     -0.0042
    133  CE1      -76.4650 -111.2100   11.9630 C.ar  150  PHE150     -0.0003
    134  CE2      -75.7780 -113.2860   10.9700 C.ar  150  PHE150     -0.0003
    135  CZ       -76.7610 -112.5040   11.5720 C.ar  150  PHE150     -0.0000
@<TRIPOS>BOND
     1     4     3    2
     2    10    11    1
     3    10     9    1
     4     3     9   am
     5     3     2    1
     6    97    96    2
     7    11    12    2
     8     2     1    1
     9     2     5    1
    10    96    95    1
    11     8     6    1
    12     5     6    1
    13    94    95    1
    14    95    98    1
    15     6     7    1
    16    99    98    1
    17    16    15    2
    18   108   106    1
    19    98   100    1
    20    13    14    1
    21   102   103    1
    22   102   101    1
    23   102   105    1
    24    15    14    1
    25   103   104    2
    26    14    17    1
    27    17    19    1
    28    17    18    1
    29   116   114    1
    30   106   105    1
    31   106   107    1
    32   123   122   ar
    33    85    84    1
    34   114   113    1
    35    90    89    2
    36   122   121    1
    37   122   124   ar
    38    82    83    1
    39    82    81    1
    40   121   118    1
    41    84    83    2
    42    84    86    1
    43    89    88    1
    44    81    80    1
    45   113   115    1
    46   113   110    1
    47   112   111    2
    48    91    88    1
    49    91    92    1
    50    88    87    1
    51    33    32    1
    52   111   110    1
    53   111   117   am
    54   118   117    1
    55   118   119    1
    56    32    31    1
    57   109   110    1
    58   120   119    2
    59    92    93    1
    60    93    87    1
    61    24    21    1
    62    80    77    1
    63    87    78   am
    64    31    30    1
    65    30    29    1
    66   119   125   am
    67    78    79    2
    68    78    77    1
    69    26    29    1
    70    26    27    1
    71    26    25    1
    72    21    22    1
    73    21    20    1
    74    77    76    1
    75    27    28    2
    76    22    23    2
    77   125   126    1
    78    58    56    1
    79    70    69    2
    80    65    64    1
    81    76    69   am
    82   127   126    1
    83   127   128    2
    84    42    40   ar
    85    41    40   ar
    86   126   129    1
    87    56    55    1
    88    69    68    1
    89    40    39    1
    90    55    57    1
    91    55    52    1
    92    63    64    1
    93    63    60    1
    94    64    66    1
    95    62    61    2
    96   132   134   ar
    97   132   130   ar
    98   129   130    1
    99   134   135   ar
   100    51    52    1
   101    39    38    1
   102   130   131   ar
   103    52    53    1
   104    68    67    1
   105    68    71    1
   106    61    60    1
   107    61    67   am
   108    72    71    1
   109    72    73    1
   110   135   133   ar
   111    60    59    1
   112   131   133   ar
   113    38    35    1
   114    73    74   ar
   115    73    75   ar
   116    53    54    2
   117    50    48    1
   118    49    48    1
   119    35    34    1
   120    35    36    1
   121    48    47    1
   122    36    37    2
   123    47    44    1
   124    44    43    1
   125    44    45    1
   126    45    46    2
