@<TRIPOS>MOLECULE
tmp/5n53A00.pdb
 98 94 0 0 0
SMALL
GASTEIGER

@<TRIPOS>ATOM
      1  N        -25.2740    7.1230    3.0540 N.3    52  LEU52      -0.1231
      2  CA       -25.3410    8.3400    3.9330 C.3    52  LEU52       0.1693
      3  C        -26.0210    9.3610    3.0720 C.2    52  LEU52       0.2592
      4  O        -25.4400    9.8820    2.1150 O.2    52  LEU52      -0.2718
      5  CB       -23.9320    8.7330    4.2730 C.3    52  LEU52       0.0284
      6  CG       -23.0360    7.6940    4.9170 C.3    52  LEU52       0.0019
      7  CD1      -21.6910    8.2280    5.3440 C.3    52  LEU52       0.0001
      8  CD2      -23.7000    7.0540    6.1010 C.3    52  LEU52       0.0001
      9  N        -27.2800    9.6800    3.4560 N.am   53  GLY53      -0.1957
     10  CA       -28.1310   10.4950    2.6430 C.3    53  GLY53       0.1869
     11  C        -29.1890    9.6660    1.9350 C.2    53  GLY53       0.2309
     12  O        -28.8250    8.9270    0.9960 O.2    53  GLY53      -0.2863
     13  N        -28.1310    6.4150    6.9860 N.3    75  TYR75      -0.1227
     14  CA       -28.2560    7.5390    7.9620 C.3    75  TYR75       0.1736
     15  C        -28.7360    8.7440    7.1860 C.2    75  TYR75       0.2595
     16  O        -28.2730    9.0380    6.0990 O.2    75  TYR75      -0.2718
     17  CB       -26.8980    7.8270    8.5690 C.3    75  TYR75       0.0548
     18  CG       -26.9020    9.0890    9.4270 C.ar   75  TYR75      -0.0200
     19  CD1      -27.3740    9.0550   10.7070 C.ar   75  TYR75      -0.0009
     20  CD2      -26.5060   10.3150    8.8860 C.ar   75  TYR75      -0.0009
     21  CE1      -27.3870   10.2240   11.5250 C.ar   75  TYR75       0.0417
     22  CE2      -26.5520   11.4890    9.6500 C.ar   75  TYR75       0.0417
     23  CZ       -26.9780   11.4470   10.9710 C.ar   75  TYR75       0.1957
     24  OH       -27.0270   12.6280   11.7410 O.3    75  TYR75      -0.2866
     25  N        -29.6690    9.4690    7.7920 N.am   76  ASP76      -0.1960
     26  CA       -30.0590   10.7470    7.2900 C.3    76  ASP76       0.1825
     27  C        -30.7120   11.4780    8.4610 C.2    76  ASP76       0.2464
     28  O        -31.5570   10.9050    9.1060 O.2    76  ASP76      -0.2730
     29  CB       -31.1170   10.6140    6.2490 C.3    76  ASP76       0.1450
     30  CG       -31.2870   11.8750    5.4760 C.2    76  ASP76       0.3671
     31  OD1      -31.8400   12.8470    6.0410 O.co2  76  ASP76      -0.2456
     32  OD2      -30.8690   11.9620    4.3210 O.co2  76  ASP76      -0.2456
     33  N        -30.3020   12.7220    8.7460 N.am   77  PRO77      -0.2715
     34  CA       -30.8490   13.3990    9.9130 C.3    77  PRO77       0.1536
     35  C        -32.2370   13.9800    9.6800 C.2    77  PRO77       0.2598
     36  O        -32.8730   14.4640   10.6300 O.2    77  PRO77      -0.2715
     37  CB       -29.7970   14.4750   10.1770 C.3    77  PRO77       0.0310
     38  CG       -29.2880   14.8450    8.8290 C.3    77  PRO77       0.0237
     39  CD       -29.2090   13.5090    8.1280 C.3    77  PRO77       0.0939
     40  N        -32.7030   14.0110    8.4420 N.am   78  ILE78      -0.1978
     41  CA       -33.9370   14.6670    8.0670 C.3    78  ILE78       0.1596
     42  C        -35.0540   13.6780    7.6600 C.2    78  ILE78       0.2287
     43  O        -36.1950   13.8760    8.0160 O.2    78  ILE78      -0.2864
     44  CB       -33.6030   15.8240    7.0460 C.3    78  ILE78       0.0276
     45  CG1      -34.5790   16.9990    7.1290 C.3    78  ILE78       0.0022
     46  CG2      -33.4340   15.3790    5.5760 C.3    78  ILE78       0.0022
     47  CD1      -33.8870   18.3350    7.3010 C.3    78  ILE78       0.0001
     48  N        -25.2070    7.2740   13.0690 N.3    94  LEU94      -0.1245
     49  CA       -23.9090    7.2210   12.3640 C.3    94  LEU94       0.1561
     50  C        -22.8800    6.3340   13.0180 C.2    94  LEU94       0.2260
     51  O        -22.2860    5.5190   12.3250 O.2    94  LEU94      -0.2867
     52  CB       -23.2800    8.5610   12.0970 C.3    94  LEU94       0.0270
     53  CG       -23.3850    9.2560   10.7610 C.3    94  LEU94       0.0019
     54  CD1      -22.3880   10.4160   10.7820 C.3    94  LEU94       0.0001
     55  CD2      -23.1870    8.3670    9.5260 C.3    94  LEU94       0.0001
     56  N        -25.3420   13.1630   -0.0630 N.3   108  THR108     -0.1204
     57  CA       -25.7250   14.3560    0.7050 C.3   108  THR108      0.1979
     58  C        -25.3340   15.5730   -0.0470 C.2   108  THR108      0.2459
     59  O        -24.4770   15.5390   -0.9650 O.2   108  THR108     -0.2732
     60  CB       -24.9870   14.4330    2.0920 C.3   108  THR108      0.1783
     61  OG1      -23.5650   14.6100    1.8900 O.3   108  THR108     -0.2211
     62  CG2      -25.2150   13.2340    2.8840 C.3   108  THR108      0.0376
     63  N        -25.8980   16.7300    0.4000 N.am  109  PRO109     -0.2728
     64  CA       -25.3330   17.9530   -0.0690 C.3   109  PRO109      0.1401
     65  C        -23.9230   18.1940    0.5420 C.2   109  PRO109      0.2269
     66  O        -23.5220   17.4610    1.4430 O.2   109  PRO109     -0.2865
     67  CB       -26.3410   19.0290    0.4070 C.3   109  PRO109      0.0296
     68  CG       -27.4480   18.3160    1.0600 C.3   109  PRO109      0.0237
     69  CD       -27.0900   16.8780    1.2220 C.3   109  PRO109      0.0939
     70  N        -22.3230   20.5290    3.0210 N.3   111  LEU111     -0.1245
     71  CA       -22.6710   21.4510    4.1540 C.3   111  LEU111      0.1561
     72  C        -21.5330   21.3790    5.1290 C.2   111  LEU111      0.2260
     73  O        -20.6890   20.5230    5.0280 O.2   111  LEU111     -0.2867
     74  CB       -23.9090   20.9760    4.8620 C.3   111  LEU111      0.0270
     75  CG       -25.0930   20.6730    3.9540 C.3   111  LEU111      0.0019
     76  CD1      -26.1640   20.0390    4.8200 C.3   111  LEU111      0.0001
     77  CD2      -25.5860   21.9540    3.3130 C.3   111  LEU111      0.0001
     78  N        -21.6580   20.2610    8.0470 N.3   113  SER113     -0.1202
     79  CA       -21.8690   18.9880    8.6970 C.3   113  SER113      0.2020
     80  C        -21.6000   17.7380    7.8650 C.2   113  SER113      0.2619
     81  O        -21.5300   16.6340    8.4100 O.2   113  SER113     -0.2717
     82  CB       -23.2910   18.9220    9.2420 C.3   113  SER113      0.2103
     83  OG       -24.2330   18.9160    8.1890 O.3   113  SER113     -0.2182
     84  N        -21.4260   17.9160    6.5620 N.am  114  THR114     -0.1952
     85  CA       -21.0790   16.7960    5.6880 C.3   114  THR114      0.1897
     86  C        -19.7170   16.9220    5.0480 C.2   114  THR114      0.2313
     87  O        -19.2750   16.0140    4.3580 O.2   114  THR114     -0.2863
     88  CB       -22.1340   16.6430    4.5540 C.3   114  THR114      0.1794
     89  OG1      -22.1150   17.7850    3.7210 O.3   114  THR114     -0.2208
     90  CG2      -23.4620   16.3720    5.0530 C.3   114  THR114      0.0378
     91  N        -17.2930   14.1360    6.2010 N.3   117  LEU117     -0.1245
     92  CA       -18.1020   13.1190    6.8160 C.3   117  LEU117      0.1561
     93  C        -17.3210   11.8110    6.9650 C.2   117  LEU117      0.2260
     94  O        -17.4140   11.1510    7.9930 O.2   117  LEU117     -0.2867
     95  CB       -19.3670   12.9060    5.9990 C.3   117  LEU117      0.0270
     96  CG       -20.5640   12.1010    6.5220 C.3   117  LEU117      0.0019
     97  CD1      -21.1800   12.7450    7.7500 C.3   117  LEU117      0.0001
     98  CD2      -21.6710   11.9510    5.4930 C.3   117  LEU117      0.0001
@<TRIPOS>BOND
     1    59    58    2
     2    64    63    1
     3    64    67    1
     4    64    65    1
     5    56    57    1
     6    58    63   am
     7    58    57    1
     8    63    69    1
     9    67    68    1
    10    65    66    2
    11    57    60    1
    12    12    11    2
    13    68    69    1
    14    61    60    1
    15    11    10    1
    16    60    62    1
    17     4     3    2
    18    10     9    1
    19    70    71    1
    20     1     2    1
    21     3     9   am
    22     3     2    1
    23    77    75    1
    24    89    88    1
    25     2     5    1
    26    75    76    1
    27    75    74    1
    28    71    74    1
    29    71    72    1
    30     5     6    1
    31    32    30   ar
    32    87    86    2
    33    88    90    1
    34    88    85    1
    35     6     7    1
    36     6     8    1
    37    73    72    2
    38    86    85    1
    39    30    31   ar
    40    30    29    1
    41    98    96    1
    42    46    44    1
    43    85    84    1
    44    95    96    1
    45    95    92    1
    46    16    15    2
    47    91    92    1
    48    29    26    1
    49    96    97    1
    50    84    80   am
    51    92    93    1
    52    93    94    2
    53    13    14    1
    54    44    45    1
    55    44    41    1
    56    45    47    1
    57    15    25   am
    58    15    14    1
    59    26    25    1
    60    26    27    1
    61    42    43    2
    62    42    41    1
    63    80    81    2
    64    80    79    1
    65    14    17    1
    66    78    79    1
    67    41    40    1
    68    39    33    1
    69    39    38    1
    70    83    82    1
    71    40    35   am
    72    27    33   am
    73    27    28    2
    74    17    18    1
    75    79    82    1
    76    33    34    1
    77    38    37    1
    78    20    18   ar
    79    20    22   ar
    80    18    19   ar
    81    55    53    1
    82    22    23   ar
    83    35    34    1
    84    35    36    2
    85    34    37    1
    86    19    21   ar
    87    53    54    1
    88    53    52    1
    89    23    21   ar
    90    23    24    1
    91    52    49    1
    92    51    50    2
    93    49    50    1
    94    49    48    1
