@<TRIPOS>MOLECULE
tmp/5n55B00.pdb
 157 154 0 0 0
SMALL
GASTEIGER

@<TRIPOS>ATOM
      1  N        -39.1870   -9.9770   20.0600 N.3    31  PHE31      -0.1241
      2  CA       -40.1140  -10.4890   21.0470 C.3    31  PHE31       0.1605
      3  C        -39.3480  -11.4220   21.9680 C.2    31  PHE31       0.2264
      4  O        -38.5880  -12.2650   21.4910 O.2    31  PHE31      -0.2867
      5  CB       -41.2750  -11.2200   20.3570 C.3    31  PHE31       0.0534
      6  CG       -42.2930  -11.7140   21.3010 C.ar   31  PHE31      -0.0203
      7  CD1      -43.1450  -10.8260   21.9180 C.ar   31  PHE31      -0.0042
      8  CD2      -42.3970  -13.0540   21.5850 C.ar   31  PHE31      -0.0042
      9  CE1      -44.0820  -11.2670   22.8110 C.ar   31  PHE31      -0.0003
     10  CE2      -43.3450  -13.5160   22.4650 C.ar   31  PHE31      -0.0003
     11  CZ       -44.1860  -12.6220   23.0900 C.ar   31  PHE31      -0.0000
     12  N        -37.8470  -13.2430   15.5970 N.3    36  TYR36      -0.1228
     13  CA       -38.6120  -14.4090   15.1630 C.3    36  TYR36       0.1721
     14  C        -39.3280  -14.1070   13.8480 C.2    36  TYR36       0.2437
     15  O        -39.9370  -13.0160   13.7050 O.2    36  TYR36      -0.2733
     16  CB       -39.6520  -14.8090   16.2270 C.3    36  TYR36       0.0547
     17  CG       -39.1440  -15.4800   17.5000 C.ar   36  TYR36      -0.0200
     18  CD1      -39.5060  -14.9880   18.7470 C.ar   36  TYR36      -0.0009
     19  CD2      -38.3620  -16.6390   17.4580 C.ar   36  TYR36      -0.0009
     20  CE1      -39.0900  -15.5950   19.9360 C.ar   36  TYR36       0.0417
     21  CE2      -37.9440  -17.2770   18.6500 C.ar   36  TYR36       0.0417
     22  CZ       -38.3110  -16.7470   19.8790 C.ar   36  TYR36       0.1957
     23  OH       -37.9040  -17.3410   21.0500 O.3    36  TYR36      -0.2866
     24  N        -39.2920  -15.0090   12.8700 N.am   37  PRO37      -0.2729
     25  CA       -40.2070  -14.8910   11.7330 C.3    37  PRO37       0.1401
     26  C        -41.6110  -15.2960   12.1490 C.2    37  PRO37       0.2269
     27  O        -41.8150  -15.9520   13.1710 O.2    37  PRO37      -0.2865
     28  CB       -39.6480  -15.8760   10.7090 C.3    37  PRO37       0.0296
     29  CG       -39.1010  -16.9560   11.5560 C.3    37  PRO37       0.0237
     30  CD       -38.5390  -16.2740   12.8080 C.3    37  PRO37       0.0939
     31  N        -47.8610   -8.7460   12.7380 N.3    56  TRP56      -0.1241
     32  CA       -47.1840   -8.5960   14.0190 C.3    56  TRP56       0.1605
     33  C        -46.8150   -7.1430   14.2830 C.2    56  TRP56       0.2264
     34  O        -45.6310   -6.7560   14.2870 O.2    56  TRP56      -0.2867
     35  CB       -45.9370   -9.4500   14.0510 C.3    56  TRP56       0.0550
     36  CG       -45.4980   -9.8040   15.4440 C.ar   56  TRP56       0.0003
     37  CD1      -45.8690   -9.2010   16.6160 C.ar   56  TRP56       0.0946
     38  CD2      -44.6340  -10.8820   15.7950 C.ar   56  TRP56       0.0152
     39  NE1      -45.2750   -9.8480   17.6860 N.ar   56  TRP56      -0.2442
     40  CE2      -44.5090  -10.8820   17.2070 C.ar   56  TRP56       0.0810
     41  CE3      -43.9460  -11.8460   15.0520 C.ar   56  TRP56       0.0012
     42  CZ2      -43.6930  -11.8000   17.8920 C.ar   56  TRP56       0.0191
     43  CZ3      -43.1220  -12.7720   15.7380 C.ar   56  TRP56       0.0001
     44  CH2      -43.0250  -12.7440   17.1460 C.ar   56  TRP56       0.0015
     45  N        -53.4450  -13.3110   20.7900 N.3    85  HIS85      -0.1226
     46  CA       -52.1420  -12.7440   21.1180 C.3    85  HIS85       0.1752
     47  C        -51.7930  -11.5850   20.1980 C.2    85  HIS85       0.2596
     48  O        -52.2610  -11.4900   19.0640 O.2    85  HIS85      -0.2718
     49  CB       -51.0560  -13.8250   21.0310 C.3    85  HIS85       0.0759
     50  CG       -51.1050  -14.8240   22.1360 C.ar   85  HIS85       0.0818
     51  ND1      -50.5310  -16.0800   22.0330 N.ar   85  HIS85      -0.2268
     52  CD2      -51.6180  -14.7520   23.3860 C.ar   85  HIS85       0.1154
     53  CE1      -50.7070  -16.7400   23.1630 C.ar   85  HIS85       0.1986
     54  NE2      -51.3490  -15.9550   24.0070 N.ar   85  HIS85      -0.2212
     55  N        -50.9280  -10.7000   20.7060 N.am   86  ASP86      -0.1960
     56  CA       -50.6350   -9.4440   20.0330 C.3    86  ASP86       0.1840
     57  C        -49.9520   -9.6470   18.6840 C.2    86  ASP86       0.2622
     58  O        -50.0470   -8.7840   17.8190 O.2    86  ASP86      -0.2715
     59  CB       -49.7770   -8.5820   20.9770 C.3    86  ASP86       0.1450
     60  CG       -49.3780   -7.2690   20.3690 C.2    86  ASP86       0.3671
     61  OD1      -50.2680   -6.4140   20.1690 O.co2  86  ASP86      -0.2456
     62  OD2      -48.1750   -7.0890   20.0800 O.co2  86  ASP86      -0.2456
     63  N        -49.2520  -10.7520   18.4670 N.am   87  ASP87      -0.1971
     64  CA       -48.7280  -10.9800   17.1190 C.3    87  ASP87       0.1709
     65  C        -49.8440  -11.1900   16.0840 C.2    87  ASP87       0.2293
     66  O        -49.6470  -10.8850   14.9010 O.2    87  ASP87      -0.2864
     67  CB       -47.7470  -12.1670   17.1050 C.3    87  ASP87       0.1436
     68  CG       -48.3890  -13.5160   17.5270 C.2    87  ASP87       0.3671
     69  OD1      -49.2750  -13.5370   18.4230 O.co2  87  ASP87      -0.2456
     70  OD2      -47.9530  -14.5780   16.9960 O.co2  87  ASP87      -0.2456
     71  N        -54.9940   -5.8630   24.0300 N.3   117  ASN117     -0.1240
     72  CA       -54.6350   -5.8590   22.6260 C.3   117  ASN117      0.1653
     73  C        -55.7420   -5.2200   21.8170 C.2   117  ASN117      0.2266
     74  O        -56.8640   -5.0010   22.3000 O.2   117  ASN117     -0.2867
     75  CB       -54.3700   -7.2840   22.1460 C.3   117  ASN117      0.1155
     76  CG       -53.2770   -7.9730   22.9530 C.2   117  ASN117      0.2627
     77  OD1      -52.5900   -7.3190   23.7460 O.2   117  ASN117     -0.2716
     78  ND2      -53.1260   -9.2990   22.7830 N.am  117  ASN117     -0.0877
     79  N        -52.2000  -24.1710   21.1730 N.3   148  HIS148     -0.1241
     80  CA       -51.3580  -23.0240   21.5490 C.3   148  HIS148      0.1621
     81  C        -52.1090  -22.0320   22.4330 C.2   148  HIS148      0.2264
     82  O        -51.5490  -21.5110   23.4000 O.2   148  HIS148     -0.2867
     83  CB       -50.8400  -22.3210   20.2840 C.3   148  HIS148      0.0745
     84  CG       -50.1570  -21.0020   20.5340 C.ar  148  HIS148      0.0817
     85  ND1      -48.8300  -20.9170   20.8900 N.ar  148  HIS148     -0.2268
     86  CD2      -50.6070  -19.7220   20.4450 C.ar  148  HIS148      0.1154
     87  CE1      -48.4920  -19.6450   21.0200 C.ar  148  HIS148      0.1986
     88  NE2      -49.5520  -18.9020   20.7580 N.ar  148  HIS148     -0.2212
     89  N        -46.5590  -26.5030   14.3680 N.3   169  LEU169     -0.1245
     90  CA       -45.1140  -26.2960   14.3670 C.3   169  LEU169      0.1561
     91  C        -44.4180  -26.7120   13.0700 C.2   169  LEU169      0.2260
     92  O        -44.7350  -27.7450   12.4690 O.2   169  LEU169     -0.2867
     93  CB       -44.4830  -27.1090   15.5080 C.3   169  LEU169      0.0270
     94  CG       -45.0040  -26.7870   16.9130 C.3   169  LEU169      0.0019
     95  CD1      -44.3560  -27.7200   17.9290 C.3   169  LEU169      0.0001
     96  CD2      -44.7850  -25.2970   17.2740 C.3   169  LEU169      0.0001
     97  N        -38.8610  -27.3780   14.4520 N.3   173  ARG173     -0.1245
     98  CA       -39.1020  -27.1380   15.8700 C.3   173  ARG173      0.1563
     99  C        -38.8600  -28.3740   16.7300 C.2   173  ARG173      0.2260
    100  O        -39.3040  -29.4780   16.4080 O.2   173  ARG173     -0.2867
    101  CB       -40.5310  -26.6730   16.1040 C.3   173  ARG173      0.0307
    102  CG       -40.8840  -25.3080   15.4850 C.3   173  ARG173      0.0489
    103  CD       -40.0730  -24.2080   16.1750 C.3   173  ARG173      0.2205
    104  NE       -40.5170  -24.0490   17.5500 N.pl3 173  ARG173     -0.0865
    105  CZ       -41.5180  -23.2400   17.9260 C.cat 173  ARG173      0.5346
    106  NH1      -42.1630  -22.5000   17.0440 N.pl3 173  ARG173      0.1354
    107  NH2      -41.8810  -23.1590   19.1990 N.pl3 173  ARG173      0.1354
    108  N        -39.3980  -27.6160   20.2950 N.3   175  SER175     -0.1202
    109  CA       -40.1230  -27.2420   21.4950 C.3   175  SER175      0.2020
    110  C        -41.5000  -26.7410   21.1030 C.2   175  SER175      0.2619
    111  O        -41.7370  -26.3380   19.9560 O.2   175  SER175     -0.2717
    112  CB       -39.3620  -26.1800   22.3450 C.3   175  SER175      0.2103
    113  OG       -39.7840  -24.8240   22.1140 O.3   175  SER175     -0.2182
    114  N        -42.4240  -26.8290   22.0540 N.am  176  ALA176     -0.1965
    115  CA       -43.7850  -26.3500   21.8640 C.3   176  ALA176      0.1728
    116  C        -43.8790  -24.8340   21.9520 C.2   176  ALA176      0.2617
    117  O        -44.9600  -24.2680   21.7520 O.2   176  ALA176     -0.2715
    118  CB       -44.7150  -26.9980   22.8990 C.3   176  ALA176      0.0334
    119  N        -42.7770  -24.1640   22.2520 N.am  177  GLY177     -0.1940
    120  CA       -42.7670  -22.7260   22.2500 C.3   177  GLY177      0.2014
    121  C        -43.2140  -22.1130   23.5540 C.2   177  GLY177      0.2638
    122  O        -42.9470  -22.6480   24.6480 O.2   177  GLY177     -0.2714
    123  N        -43.8810  -20.9540   23.4100 N.am  178  ASN178     -0.1972
    124  CA       -44.3650  -20.1360   24.5130 C.3   178  ASN178      0.1688
    125  C        -45.7210  -20.7040   24.9350 C.2   178  ASN178      0.2292
    126  O        -46.7530  -20.4060   24.3160 O.2   178  ASN178     -0.2864
    127  CB       -44.4460  -18.6740   24.0570 C.3   178  ASN178      0.1181
    128  CG       -44.7920  -17.7340   25.1730 C.2   178  ASN178      0.2629
    129  OD1      -45.2290  -18.1590   26.2330 O.2   178  ASN178     -0.2716
    130  ND2      -44.5710  -16.4340   24.9600 N.am  178  ASN178     -0.0877
    131  N        -47.3680  -20.5980   27.9940 N.3   180  ALA180     -0.1231
    132  CA       -48.1070  -19.9970   29.1020 C.3   180  ALA180      0.1694
    133  C        -49.6250  -20.0970   28.9030 C.2   180  ALA180      0.2592
    134  O        -50.3790  -20.4170   29.8320 O.2   180  ALA180     -0.2718
    135  CB       -47.6960  -18.5300   29.2340 C.3   180  ALA180      0.0304
    136  N        -50.0910  -19.7690   27.7120 N.am  181  ASP181     -0.1974
    137  CA       -51.5100  -19.7390   27.4080 C.3   181  ASP181      0.1709
    138  C        -51.9800  -21.0060   26.6970 C.2   181  ASP181      0.2293
    139  O        -53.1180  -21.0590   26.2350 O.2   181  ASP181     -0.2864
    140  CB       -51.8110  -18.4950   26.5750 C.3   181  ASP181      0.1436
    141  CG       -51.5840  -17.2130   27.3620 C.2   181  ASP181      0.3671
    142  OD1      -51.4160  -17.3340   28.5890 O.co2 181  ASP181     -0.2456
    143  OD2      -51.5650  -16.1040   26.7800 O.co2 181  ASP181     -0.2456
    144  N        -44.9060  -20.1850   12.3250 N.3   208  HIS208     -0.1226
    145  CA       -43.5660  -19.6680   12.1280 C.3   208  HIS208      0.1752
    146  C        -42.7970  -20.7270   11.3480 C.2   208  HIS208      0.2596
    147  O        -42.9230  -21.9140   11.6390 O.2   208  HIS208     -0.2718
    148  CB       -42.8570  -19.3880   13.4750 C.3   208  HIS208      0.0759
    149  CG       -43.7150  -18.6770   14.4860 C.ar  208  HIS208      0.0818
    150  ND1      -43.7040  -17.3050   14.6330 N.ar  208  HIS208     -0.2268
    151  CD2      -44.5880  -19.1460   15.4150 C.ar  208  HIS208      0.1154
    152  CE1      -44.5490  -16.9550   15.5870 C.ar  208  HIS208      0.1986
    153  NE2      -45.1050  -18.0510   16.0730 N.ar  208  HIS208     -0.2212
    154  N        -42.0020  -20.3050   10.3730 N.am  209  GLY209     -0.1957
    155  CA       -41.0800  -21.2240    9.7200 C.3   209  GLY209      0.1869
    156  C        -41.6170  -21.7680    8.4100 C.2   209  GLY209      0.2309
    157  O        -42.6300  -21.3180    7.8610 O.2   209  GLY209     -0.2863
@<TRIPOS>BOND
     1   157   156    2
     2   156   155    1
     3   155   154    1
     4   154   146   am
     5    28    29    1
     6    28    25    1
     7   146   147    2
     8   146   145    1
     9    29    30    1
    10    25    26    1
    11    25    24    1
    12   145   144    1
    13   145   148    1
    14    26    27    2
    15    92    91    2
    16    31    32    1
    17    30    24    1
    18    24    14   am
    19    91    90    1
    20   148   149    1
    21    15    14    2
    22    14    13    1
    23    32    35    1
    24    32    33    1
    25    35    36    1
    26    33    34    2
    27    90    89    1
    28    90    93    1
    29    97    98    1
    30   149   150   ar
    31   149   151   ar
    32   150   152   ar
    33    66    65    2
    34    41    43   ar
    35    41    38   ar
    36    13    12    1
    37    13    16    1
    38   151   153   ar
    39    36    38   ar
    40    36    37   ar
    41   102   101    1
    42   102   103    1
    43    93    94    1
    44   152   153   ar
    45    43    44   ar
    46    38    40   ar
    47    98   101    1
    48    98    99    1
    49    65    64    1
    50   103   104    1
    51    16    17    1
    52   100    99    2
    53    37    39   ar
    54    94    96    1
    55    94    95    1
    56    70    68   ar
    57   106   105    1
    58    67    64    1
    59    67    68    1
    60    64    63    1
    61    44    42   ar
    62    40    39   ar
    63    40    42   ar
    64    19    17   ar
    65    19    21   ar
    66    17    18   ar
    67    68    69   ar
    68   104   105    2
    69    58    57    2
    70   105   107    1
    71    63    57   am
    72    21    22   ar
    73    57    56    1
    74    18    20   ar
    75    48    47    2
    76    22    20   ar
    77    22    23    1
    78   111   110    2
    79    56    55    1
    80    56    59    1
    81     1     2    1
    82    62    60   ar
    83    61    60   ar
    84    47    55   am
    85    47    46    1
    86    83    84    1
    87    83    80    1
    88   108   109    1
    89     5     2    1
    90     5     6    1
    91    60    59    1
    92    86    84   ar
    93    86    88   ar
    94    84    85   ar
    95    88    87   ar
    96    45    46    1
    97    85    87   ar
    98    49    46    1
    99    49    50    1
   100     2     3    1
   101   110   109    1
   102   110   114   am
   103    79    80    1
   104     6     8   ar
   105     6     7   ar
   106     4     3    2
   107   109   112    1
   108    80    81    1
   109     8    10   ar
   110   117   116    2
   111    73    74    2
   112    73    72    1
   113   115   116    1
   114   115   114    1
   115   115   118    1
   116     7     9   ar
   117   116   119   am
   118    51    50   ar
   119    51    53   ar
   120   113   112    1
   121    50    52   ar
   122    75    72    1
   123    75    76    1
   124   120   119    1
   125   120   121    1
   126    81    82    2
   127    10    11   ar
   128    72    71    1
   129    78    76   am
   130     9    11   ar
   131    76    77    2
   132    53    54   ar
   133    52    54   ar
   134   123   121   am
   135   123   124    1
   136   121   122    2
   137   127   124    1
   138   127   128    1
   139   126   125    2
   140   124   125    1
   141   130   128   am
   142   128   129    2
   143   139   138    2
   144   140   141    1
   145   140   137    1
   146   138   137    1
   147   143   141   ar
   148   141   142   ar
   149   137   136    1
   150   136   133   am
   151   131   132    1
   152   133   132    1
   153   133   134    2
   154   132   135    1
