@<TRIPOS>MOLECULE
tmp/5n5dA00.pdb
 225 221 0 0 0
SMALL
GASTEIGER

@<TRIPOS>ATOM
      1  N          0.5190    8.2840  -27.9410 N.3    41  LEU41      -0.1231
      2  CA         0.6440    7.5070  -26.7160 C.3    41  LEU41       0.1693
      3  C          1.3840    6.1910  -26.9040 C.2    41  LEU41       0.2592
      4  O          1.6570    5.5080  -25.9110 O.2    41  LEU41      -0.2718
      5  CB        -0.7430    7.2060  -26.1490 C.3    41  LEU41       0.0284
      6  CG        -1.6580    8.4050  -25.9170 C.3    41  LEU41       0.0019
      7  CD1       -2.9860    7.9330  -25.3470 C.3    41  LEU41       0.0001
      8  CD2       -1.0000    9.4190  -24.9910 C.3    41  LEU41       0.0001
      9  N          1.7100    5.8150  -28.1350 N.am   42  ALA42      -0.1966
     10  CA         2.3070    4.5160  -28.3950 C.3    42  ALA42       0.1728
     11  C          3.8010    4.5250  -28.0990 C.2    42  ALA42       0.2616
     12  O          4.4720    5.5560  -28.2010 O.2    42  ALA42      -0.2715
     13  CB         2.0860    4.1120  -29.8500 C.3    42  ALA42       0.0334
     14  N          4.3220    3.3580  -27.7310 N.am   43  VAL43      -0.1977
     15  CA         5.7680    3.1870  -27.6920 C.3    43  VAL43       0.1596
     16  C          6.3270    3.5740  -29.0550 C.2    43  VAL43       0.2287
     17  O          5.6650    3.4170  -30.0920 O.2    43  VAL43      -0.2864
     18  CB         6.1750    1.7510  -27.3150 C.3    43  VAL43       0.0276
     19  CG1        5.7260    1.4190  -25.8930 C.3    43  VAL43       0.0022
     20  CG2        5.6130    0.7470  -28.3130 C.3    43  VAL43       0.0022
     21  N         -0.9430   -7.7370  -21.7570 N.3    65  GLU65      -0.1231
     22  CA        -0.7420   -6.3130  -21.9830 C.3    65  GLU65       0.1699
     23  C         -1.8970   -5.5380  -21.3770 C.2    65  GLU65       0.2592
     24  O         -3.0640   -5.8400  -21.6480 O.2    65  GLU65      -0.2718
     25  CB        -0.6340   -6.0030  -23.4790 C.3    65  GLU65       0.0402
     26  CG        -0.5720   -4.5210  -23.8160 C.3    65  GLU65       0.1161
     27  CD        -0.4080   -4.2860  -25.3030 C.2    65  GLU65       0.3649
     28  OE1       -1.3330   -4.6400  -26.0650 O.co2  65  GLU65      -0.2457
     29  OE2        0.6570   -3.7710  -25.6990 O.co2  65  GLU65      -0.2457
     30  N         -1.5710   -4.5350  -20.5720 N.am   66  ILE66      -0.1966
     31  CA        -2.5580   -3.6650  -19.9480 C.3    66  ILE66       0.1727
     32  C         -2.4290   -2.3110  -20.6330 C.2    66  ILE66       0.2617
     33  O         -1.4770   -1.5670  -20.3780 O.2    66  ILE66      -0.2715
     34  CB        -2.3520   -3.5640  -18.4330 C.3    66  ILE66       0.0290
     35  CG1       -2.3530   -4.9640  -17.8180 C.3    66  ILE66       0.0022
     36  CG2       -3.4420   -2.7020  -17.8110 C.3    66  ILE66       0.0023
     37  CD1       -1.9250   -5.0160  -16.3740 C.3    66  ILE66       0.0001
     38  N         -3.3670   -2.0080  -21.5330 N.am   67  GLY67      -0.1940
     39  CA        -3.3410   -0.7650  -22.2850 C.3    67  GLY67       0.2014
     40  C         -3.0670   -0.9360  -23.7680 C.2    67  GLY67       0.2640
     41  O         -1.9830   -0.5900  -24.2370 O.2    67  GLY67      -0.2714
     42  N         -4.0600   -1.4390  -24.5100 N.am   68  THR68      -0.1936
     43  CA        -3.8920   -1.7100  -25.9390 C.3    68  THR68       0.2028
     44  C         -3.6860   -0.4330  -26.7440 C.2    68  THR68       0.2642
     45  O         -2.8890   -0.4140  -27.6930 O.2    68  THR68      -0.2714
     46  CB        -5.1210   -2.4310  -26.4910 C.3    68  THR68       0.1808
     47  OG1       -5.5540   -3.4440  -25.5810 O.3    68  THR68      -0.2208
     48  CG2       -4.8060   -3.0480  -27.8480 C.3    68  THR68       0.0379
     49  N         -4.4260    0.6260  -26.4050 N.am   69  PHE69      -0.1973
     50  CA        -4.5930    1.7920  -27.2620 C.3    69  PHE69       0.1639
     51  C         -4.8650    1.3320  -28.6910 C.2    69  PHE69       0.2290
     52  O         -5.8470    0.6200  -28.9250 O.2    69  PHE69      -0.2864
     53  CB        -3.3780    2.7290  -27.1720 C.3    69  PHE69       0.0560
     54  CG        -3.5990    4.0830  -27.8090 C.ar   69  PHE69      -0.0200
     55  CD1       -4.7560    4.8080  -27.5550 C.ar   69  PHE69      -0.0042
     56  CD2       -2.6440    4.6330  -28.6540 C.ar   69  PHE69      -0.0042
     57  CE1       -4.9600    6.0510  -28.1400 C.ar   69  PHE69      -0.0003
     58  CE2       -2.8400    5.8720  -29.2400 C.ar   69  PHE69      -0.0003
     59  CZ        -3.9970    6.5820  -28.9840 C.ar   69  PHE69      -0.0000
     60  N         -0.2700   -0.6930  -31.3800 N.3    72  TYR72      -0.1227
     61  CA         1.1060   -0.6120  -31.8590 C.3    72  TYR72       0.1736
     62  C          2.0180   -1.5220  -31.0430 C.2    72  TYR72       0.2596
     63  O          2.6930   -2.4020  -31.5890 O.2    72  TYR72      -0.2718
     64  CB         1.6150    0.8380  -31.8380 C.3    72  TYR72       0.0548
     65  CG         2.9850    0.9140  -32.4490 C.ar   72  TYR72      -0.0200
     66  CD1        3.1450    1.0430  -33.8260 C.ar   72  TYR72      -0.0009
     67  CD2        4.1250    0.7780  -31.6710 C.ar   72  TYR72      -0.0009
     68  CE1        4.3990    1.0640  -34.4060 C.ar   72  TYR72       0.0417
     69  CE2        5.3820    0.8010  -32.2410 C.ar   72  TYR72       0.0417
     70  CZ         5.5150    0.9370  -33.6110 C.ar   72  TYR72       0.1957
     71  OH         6.7680    0.9480  -34.1780 O.3    72  TYR72      -0.2866
     72  N          2.0560   -1.3360  -29.7200 N.am   73  SER73      -0.1952
     73  CA         2.8340   -2.2600  -28.9040 C.3    73  SER73       0.1924
     74  C          2.3120   -3.6870  -29.0450 C.2    73  SER73       0.2314
     75  O          3.1010   -4.6420  -29.0230 O.2    73  SER73      -0.2863
     76  CB         2.8140   -1.8180  -27.4350 C.3    73  SER73       0.2116
     77  OG         1.4860   -1.6860  -26.9590 O.3    73  SER73      -0.2180
     78  N         -5.7850   -5.6020  -22.8250 N.3    90  ILE90      -0.1231
     79  CA        -6.9130   -4.9420  -22.1750 C.3    90  ILE90       0.1692
     80  C         -6.9200   -3.4650  -22.5410 C.2    90  ILE90       0.2592
     81  O         -5.8910   -2.7880  -22.4460 O.2    90  ILE90      -0.2718
     82  CB        -6.8480   -5.0780  -20.6410 C.3    90  ILE90       0.0266
     83  CG1       -6.7360   -6.5440  -20.2270 C.3    90  ILE90       0.0019
     84  CG2       -8.0750   -4.4120  -20.0090 C.3    90  ILE90       0.0020
     85  CD1       -6.4620   -6.7450  -18.7410 C.3    90  ILE90       0.0001
     86  N         -8.1040   -2.9510  -22.8730 N.am   91  GLU91      -0.1966
     87  CA        -8.2770   -1.5430  -23.2210 C.3    91  GLU91       0.1733
     88  C         -9.6350   -1.0480  -22.7430 C.2    91  GLU91       0.2616
     89  O        -10.6560   -1.6920  -22.9950 O.2    91  GLU91      -0.2715
     90  CB        -8.1460   -1.3460  -24.7360 C.3    91  GLU91       0.0429
     91  CG        -8.5240    0.0460  -25.2360 C.3    91  GLU91       0.1163
     92  CD        -7.7360    1.1340  -24.5500 C.2    91  GLU91       0.3649
     93  OE1       -6.4950    0.9990  -24.4540 O.co2  91  GLU91      -0.2457
     94  OE2       -8.3530    2.1200  -24.0930 O.co2  91  GLU91      -0.2457
     95  N         -9.6430    0.1150  -22.0860 N.am   92  TRP92      -0.1960
     96  CA       -10.8670    0.6840  -21.5280 C.3    92  TRP92       0.1771
     97  C        -11.7750    1.3010  -22.5900 C.2    92  TRP92       0.2619
     98  O        -13.0040    1.2240  -22.4620 O.2    92  TRP92      -0.2715
     99  CB       -10.4860    1.7230  -20.4650 C.3    92  TRP92       0.0590
    100  CG       -11.5500    2.7050  -20.0960 C.ar   92  TRP92       0.0006
    101  CD1      -11.5590    4.0420  -20.3740 C.ar   92  TRP92       0.0946
    102  CD2      -12.7510    2.4400  -19.3640 C.ar   92  TRP92       0.0152
    103  NE1      -12.6940    4.6240  -19.8660 N.ar   92  TRP92      -0.2442
    104  CE2      -13.4430    3.6620  -19.2410 C.ar   92  TRP92       0.0810
    105  CE3      -13.3120    1.2890  -18.8050 C.ar   92  TRP92       0.0012
    106  CZ2      -14.6670    3.7640  -18.5830 C.ar   92  TRP92       0.0191
    107  CZ3      -14.5290    1.3930  -18.1530 C.ar   92  TRP92       0.0001
    108  CH2      -15.1910    2.6210  -18.0460 C.ar   92  TRP92       0.0015
    109  N        -11.2110    1.9000  -23.6380 N.am   93  GLU93      -0.1977
    110  CA       -11.9920    2.6080  -24.6470 C.3    93  GLU93       0.1602
    111  C        -12.3000    1.6720  -25.8080 C.2    93  GLU93       0.2287
    112  O        -11.3870    1.2180  -26.5040 O.2    93  GLU93      -0.2864
    113  CB       -11.2360    3.8350  -25.1510 C.3    93  GLU93       0.0415
    114  CG       -11.0230    4.9120  -24.1100 C.3    93  GLU93       0.1163
    115  CD       -12.2900    5.6840  -23.7960 C.2    93  GLU93       0.3649
    116  OE1      -12.2940    6.4350  -22.8000 O.co2  93  GLU93      -0.2457
    117  OE2      -13.2810    5.5410  -24.5450 O.co2  93  GLU93      -0.2457
    118  N        -10.8690    2.6260  -29.3220 N.3    96  PHE96      -0.1241
    119  CA        -9.4510    2.3120  -29.4730 C.3    96  PHE96       0.1605
    120  C         -9.2660    0.8250  -29.7340 C.2    96  PHE96       0.2264
    121  O         -8.5430    0.4220  -30.6530 O.2    96  PHE96      -0.2867
    122  CB        -8.6600    2.7190  -28.2220 C.3    96  PHE96       0.0534
    123  CG        -8.7620    4.1800  -27.8540 C.ar   96  PHE96      -0.0203
    124  CD1       -9.3870    5.1050  -28.6810 C.ar   96  PHE96      -0.0042
    125  CD2       -8.2100    4.6270  -26.6620 C.ar   96  PHE96      -0.0042
    126  CE1       -9.4690    6.4430  -28.3160 C.ar   96  PHE96      -0.0003
    127  CE2       -8.2860    5.9540  -26.2950 C.ar   96  PHE96      -0.0003
    128  CZ        -8.9190    6.8680  -27.1230 C.ar   96  PHE96      -0.0000
    129  N        -12.6460   -2.9520  -21.2730 N.3   118  GLY118     -0.1210
    130  CA       -13.1680   -2.5830  -19.9710 C.3   118  GLY118      0.1956
    131  C        -12.0560   -2.0990  -19.0610 C.2   118  GLY118      0.2612
    132  O        -10.9010   -1.9670  -19.4590 O.2   118  GLY118     -0.2717
    133  N        -12.4430   -1.8330  -17.8140 N.am  119  ARG119     -0.1965
    134  CA       -11.4900   -1.4110  -16.7950 C.3   119  ARG119      0.1729
    135  C        -10.5710   -2.5700  -16.4380 C.2   119  ARG119      0.2616
    136  O        -11.0390   -3.6580  -16.0950 O.2   119  ARG119     -0.2715
    137  CB       -12.2220   -0.9300  -15.5440 C.3   119  ARG119      0.0348
    138  CG       -12.3090    0.5750  -15.3820 C.3   119  ARG119      0.0492
    139  CD       -12.9970    0.9090  -14.0710 C.3   119  ARG119      0.2205
    140  NE       -12.2560    0.3650  -12.9340 N.pl3 119  ARG119     -0.0865
    141  CZ       -12.8070   -0.1330  -11.8310 C.cat 119  ARG119      0.5346
    142  NH1      -14.1270   -0.1810  -11.6880 N.pl3 119  ARG119      0.1354
    143  NH2      -12.0300   -0.5980  -10.8610 N.pl3 119  ARG119      0.1354
    144  N         -9.2590   -2.3320  -16.4950 N.am  120  ALA120     -0.1963
    145  CA        -8.3110   -3.4230  -16.2940 C.3   120  ALA120      0.1728
    146  C         -8.5010   -4.0980  -14.9400 C.2   120  ALA120      0.2616
    147  O         -8.4160   -5.3270  -14.8390 O.2   120  ALA120     -0.2715
    148  CB        -6.8820   -2.9120  -16.4430 C.3   120  ALA120      0.0334
    149  N         -8.7550   -3.3240  -13.8820 N.am  121  LEU121     -0.1977
    150  CA        -8.9110   -3.9460  -12.5710 C.3   121  LEU121      0.1596
    151  C        -10.1740   -4.7940  -12.4810 C.2   121  LEU121      0.2287
    152  O        -10.2610   -5.6620  -11.6030 O.2   121  LEU121     -0.2864
    153  CB        -8.9000   -2.8850  -11.4680 C.3   121  LEU121      0.0297
    154  CG        -7.5470   -2.2280  -11.1770 C.3   121  LEU121      0.0022
    155  CD1       -7.6710   -1.2400  -10.0300 C.3   121  LEU121      0.0001
    156  CD2       -6.4490   -3.2490  -10.8750 C.3   121  LEU121      0.0001
    157  N          3.1960   -6.5440  -19.8630 N.3   139  PHE139     -0.1241
    158  CA         3.4960   -5.1590  -20.2070 C.3   139  PHE139      0.1605
    159  C          2.3940   -4.2770  -19.6360 C.2   139  PHE139      0.2264
    160  O          1.2230   -4.4160  -20.0130 O.2   139  PHE139     -0.2867
    161  CB         3.6100   -4.9800  -21.7240 C.3   139  PHE139      0.0534
    162  CG         3.9470   -3.5700  -22.1580 C.ar  139  PHE139     -0.0203
    163  CD1        4.9230   -2.8290  -21.5040 C.ar  139  PHE139     -0.0042
    164  CD2        3.2910   -2.9940  -23.2320 C.ar  139  PHE139     -0.0042
    165  CE1        5.2290   -1.5390  -21.9200 C.ar  139  PHE139     -0.0003
    166  CE2        3.5970   -1.7120  -23.6520 C.ar  139  PHE139     -0.0003
    167  CZ         4.5700   -0.9850  -22.9890 C.ar  139  PHE139     -0.0000
    168  N          1.0170   -0.6140  -19.3380 N.3   141  ASP141     -0.1225
    169  CA         1.0890    0.6540  -20.0470 C.3   141  ASP141      0.1805
    170  C         -0.3120    1.2470  -20.1420 C.2   141  ASP141      0.2598
    171  O         -0.8200    1.5400  -21.2210 O.2   141  ASP141     -0.2718
    172  CB         1.7070    0.4550  -21.4290 C.3   141  ASP141      0.1424
    173  CG         1.9750    1.7640  -22.1490 C.2   141  ASP141      0.3668
    174  OD1        2.0930    2.8220  -21.4820 O.co2 141  ASP141     -0.2456
    175  OD2        2.0730    1.7370  -23.3960 O.co2 141  ASP141     -0.2456
    176  N         -0.9610    1.4280  -18.9950 N.am  142  ALA142     -0.1966
    177  CA        -2.2870    2.0310  -18.9740 C.3   142  ALA142      0.1728
    178  C         -2.2520    3.2700  -18.0860 C.2   142  ALA142      0.2616
    179  O         -1.3780    4.1280  -18.2510 O.2   142  ALA142     -0.2715
    180  CB        -3.3290    1.0130  -18.5080 C.3   142  ALA142      0.0334
    181  N         -3.1820    3.3790  -17.1460 N.am  143  ASN143     -0.1958
    182  CA        -3.2080    4.5170  -16.2420 C.3   143  ASN143      0.1819
    183  C         -2.2260    4.3020  -15.0970 C.2   143  ASN143      0.2621
    184  O         -2.0370    3.1830  -14.6200 O.2   143  ASN143     -0.2715
    185  CB        -4.6220    4.7250  -15.7090 C.3   143  ASN143      0.1195
    186  CG        -5.1610    3.5060  -15.0050 C.2   143  ASN143      0.2630
    187  OD1       -5.0790    2.3860  -15.5140 O.2   143  ASN143     -0.2716
    188  ND2       -5.7150    3.7170  -13.8150 N.am  143  ASN143     -0.0877
    189  N         -1.6000    5.3840  -14.6510 N.am  144  LYS144     -0.1977
    190  CA        -0.4930    5.2550  -13.7080 C.3   144  LYS144      0.1596
    191  C         -0.9300    5.0670  -12.2540 C.2   144  LYS144      0.2287
    192  O         -0.2340    4.3670  -11.5070 O.2   144  LYS144     -0.2864
    193  CB         0.4240    6.4700  -13.8490 C.3   144  LYS144      0.0298
    194  CG         1.1720    6.4700  -15.1810 C.3   144  LYS144      0.0038
    195  CD         1.6630    7.8390  -15.5850 C.3   144  LYS144      0.0206
    196  CE         2.4760    7.7710  -16.8750 C.3   144  LYS144      0.1093
    197  NZ         1.7220    7.1630  -18.0150 N.3   144  LYS144     -0.1314
    198  N         -2.9940    3.1230  -10.9170 N.3   146  ASP146     -0.1239
    199  CA        -3.2660    1.7280  -10.5920 C.3   146  ASP146      0.1674
    200  C         -2.0650    0.8070  -10.7980 C.2   146  ASP146      0.2266
    201  O         -2.2100   -0.4110  -10.6540 O.2   146  ASP146     -0.2867
    202  CB        -4.4490    1.2240  -11.4190 C.3   146  ASP146      0.1410
    203  CG        -5.7720    1.7950  -10.9540 C.2   146  ASP146      0.3668
    204  OD1       -5.9120    2.1140   -9.7490 O.co2 146  ASP146     -0.2456
    205  OD2       -6.6820    1.9220  -11.7960 O.co2 146  ASP146     -0.2456
    206  N         -1.8180   -3.1950  -10.6350 N.3   150  TYR150     -0.1241
    207  CA        -1.4580   -3.9490  -11.8330 C.3   150  TYR150      0.1605
    208  C         -0.2520   -4.8390  -11.5730 C.2   150  TYR150      0.2264
    209  O         -0.1870   -5.9700  -12.0660 O.2   150  TYR150     -0.2867
    210  CB        -1.1660   -3.0030  -12.9970 C.3   150  TYR150      0.0534
    211  CG        -2.3610   -2.2000  -13.4840 C.ar  150  TYR150     -0.0201
    212  CD1       -3.6540   -2.6890  -13.3530 C.ar  150  TYR150     -0.0009
    213  CD2       -2.1940   -0.9500  -14.0680 C.ar  150  TYR150     -0.0009
    214  CE1       -4.7400   -1.9660  -13.7830 C.ar  150  TYR150      0.0417
    215  CE2       -3.2860   -0.2180  -14.5100 C.ar  150  TYR150      0.0417
    216  CZ        -4.5570   -0.7330  -14.3610 C.ar  150  TYR150      0.1957
    217  OH        -5.6670   -0.0330  -14.7800 O.3   150  TYR150     -0.2866
    218  N          6.6130    4.3060  -18.6330 N.3   168  ASN168     -0.1240
    219  CA         6.3090    5.6910  -18.2550 C.3   168  ASN168      0.1653
    220  C          6.3970    5.9190  -16.7440 C.2   168  ASN168      0.2266
    221  O          5.5060    6.5080  -16.1280 O.2   168  ASN168     -0.2867
    222  CB         4.9370    6.0970  -18.7980 C.3   168  ASN168      0.1155
    223  CG         4.8180    5.8840  -20.3040 C.2   168  ASN168      0.2627
    224  OD1        3.8670    5.2620  -20.7820 O.2   168  ASN168     -0.2716
    225  ND2        5.7950    6.3890  -21.0560 N.am  168  ASN168     -0.0877
@<TRIPOS>BOND
     1    68    66   ar
     2    68    70   ar
     3    71    70    1
     4    66    65   ar
     5    70    69   ar
     6    65    64    1
     7    65    67   ar
     8    69    67   ar
     9    61    64    1
    10    61    60    1
    11    61    62    1
    12    63    62    2
    13    62    72   am
    14   121   120    2
    15    17    16    2
    16    13    10    1
    17   120   119    1
    18    72    73    1
    19   119   118    1
    20   119   122    1
    21    58    59   ar
    22    58    56   ar
    23    16    15    1
    24    74    75    2
    25    74    73    1
    26    59    57   ar
    27    52    51    2
    28    73    76    1
    29    51    50    1
    30   124   126   ar
    31   124   123   ar
    32    56    54   ar
    33    10     9    1
    34    10    11    1
    35   126   128   ar
    36    20    18    1
    37   122   123    1
    38    12    11    2
    39    57    55   ar
    40     9     3   am
    41    11    14   am
    42     1     2    1
    43   123   125   ar
    44    48    46    1
    45    54    55   ar
    46    54    53    1
    47    14    15    1
    48    45    44    2
    49    15    18    1
    50    76    77    1
    51    18    19    1
    52    50    53    1
    53    50    49    1
    54   128   127   ar
    55     3     2    1
    56     3     4    2
    57    44    49   am
    58    44    43    1
    59     2     5    1
    60   125   127   ar
    61   112   111    2
    62    46    43    1
    63    46    47    1
    64     5     6    1
    65    28    27   ar
    66    43    42    1
    67     6     7    1
    68     6     8    1
    69   111   110    1
    70    29    27   ar
    71    27    26    1
    72    91    90    1
    73    91    92    1
    74   113   110    1
    75   113   114    1
    76    90    87    1
    77   110   109    1
    78    92    93   ar
    79    92    94   ar
    80   117   115   ar
    81    42    40   am
    82    41    40    2
    83   114   115    1
    84    26    25    1
    85   115   116   ar
    86    40    39    1
    87   166   164   ar
    88   166   167   ar
    89   109    97   am
    90    25    22    1
    91   175   173   ar
    92   164   162   ar
    93    87    86    1
    94    87    88    1
    95    89    88    2
    96   167   165   ar
    97    86    80   am
    98    78    79    1
    99    88    95   am
   100    97    98    2
   101    97    96    1
   102    80    81    2
   103    80    79    1
   104    39    38    1
   105    79    82    1
   106   162   161    1
   107   162   163   ar
   108   173   174   ar
   109   173   172    1
   110    95    96    1
   111    22    21    1
   112    22    23    1
   113   165   163   ar
   114   161   158    1
   115    24    23    2
   116    38    32   am
   117    96    99    1
   118   172   169    1
   119    23    30   am
   120   129   130    1
   121   171   170    2
   122   225   223   am
   123   224   223    2
   124    82    83    1
   125    82    84    1
   126    32    33    2
   127    32    31    1
   128    30    31    1
   129    99   100    1
   130   101   100   ar
   131   101   103   ar
   132   223   222    1
   133    83    85    1
   134   158   157    1
   135   158   159    1
   136   170   169    1
   137   170   176   am
   138   100   102   ar
   139   169   168    1
   140   160   159    2
   141   130   131    1
   142    31    34    1
   143   103   104   ar
   144   132   131    2
   145   102   104   ar
   146   102   105   ar
   147   104   106   ar
   148   131   133   am
   149   176   177    1
   150   177   180    1
   151   177   178    1
   152   105   107   ar
   153   222   219    1
   154   218   219    1
   155   106   108   ar
   156    34    35    1
   157    34    36    1
   158   219   220    1
   159   179   178    2
   160   107   108   ar
   161   178   181   am
   162   197   196    1
   163    35    37    1
   164   133   134    1
   165   181   182    1
   166   196   195    1
   167   134   135    1
   168   134   137    1
   169   220   221    2
   170   144   135   am
   171   144   145    1
   172   148   145    1
   173   135   136    2
   174   145   146    1
   175   182   185    1
   176   182   183    1
   177   185   186    1
   178   195   194    1
   179   137   138    1
   180   187   186    2
   181   138   139    1
   182   194   193    1
   183   183   189   am
   184   183   184    2
   185   186   188   am
   186   146   147    2
   187   146   149   am
   188   217   216    1
   189   189   190    1
   190   215   216   ar
   191   215   213   ar
   192   216   214   ar
   193   139   140    1
   194   213   211   ar
   195   149   150    1
   196   193   190    1
   197   214   212   ar
   198   190   191    1
   199   211   212   ar
   200   211   210    1
   201   210   207    1
   202   140   141    2
   203   150   151    1
   204   150   153    1
   205   151   152    2
   206   191   192    2
   207   209   208    2
   208   207   208    1
   209   207   206    1
   210   141   142    1
   211   141   143    1
   212   205   203   ar
   213   153   154    1
   214   202   203    1
   215   202   199    1
   216   154   156    1
   217   154   155    1
   218   203   204   ar
   219   198   199    1
   220   200   201    2
   221   200   199    1
