@<TRIPOS>MOLECULE
tmp/5n5gA00.pdb
 76 73 0 0 0
SMALL
GASTEIGER

@<TRIPOS>ATOM
      1  N          2.8010  -18.6200   55.6560 N.3    34  GLN34      -0.1231
      2  CA         1.9430  -19.4570   56.4920 C.3    34  GLN34       0.1698
      3  C          0.9480  -20.1980   55.6030 C.2    34  GLN34       0.2592
      4  O          0.9880  -20.0740   54.3810 O.2    34  GLN34      -0.2718
      5  CB         1.2170  -18.6550   57.6070 C.3    34  GLN34       0.0381
      6  CG         1.5550  -19.0910   59.1140 C.3    34  GLN34       0.0905
      7  CD         1.1200  -20.4870   59.5160 C.2    34  GLN34       0.2608
      8  OE1        0.1340  -21.0170   59.0500 O.2    34  GLN34      -0.2717
      9  NE2        1.8360  -21.0520   60.4960 N.am   34  GLN34      -0.0878
     10  N          0.0750  -20.9920   56.2300 N.am   35  SER35      -0.1952
     11  CA        -0.7030  -22.0220   55.5390 C.3    35  SER35       0.1924
     12  C         -2.1830  -21.7020   55.4820 C.2    35  SER35       0.2314
     13  O         -2.8020  -21.3030   56.4810 O.2    35  SER35      -0.2863
     14  CB        -0.4830  -23.3440   56.2540 C.3    35  SER35       0.2116
     15  OG        -1.2120  -24.3720   55.6210 O.3    35  SER35      -0.2180
     16  N          1.2080  -12.8460   60.4460 N.3    61  TRP61      -0.1227
     17  CA         0.3640  -14.0200   60.2250 C.3    61  TRP61       0.1737
     18  C          0.6860  -15.1440   61.2250 C.2    61  TRP61       0.2596
     19  O          1.2080  -16.2100   60.8740 O.2    61  TRP61      -0.2718
     20  CB         0.4430  -14.4710   58.7660 C.3    61  TRP61       0.0564
     21  CG        -0.6350  -15.4230   58.3440 C.ar   61  TRP61       0.0003
     22  CD1       -1.6520  -15.9600   59.1020 C.ar   61  TRP61       0.0946
     23  CD2       -0.7980  -15.9330   57.0380 C.ar   61  TRP61       0.0152
     24  NE1       -2.4200  -16.7920   58.3190 N.ar   61  TRP61      -0.2442
     25  CE2       -1.9250  -16.7850   57.0440 C.ar   61  TRP61       0.0810
     26  CE3       -0.0920  -15.7520   55.8380 C.ar   61  TRP61       0.0012
     27  CZ2       -2.3420  -17.4740   55.9140 C.ar   61  TRP61       0.0191
     28  CZ3       -0.5100  -16.4250   54.7070 C.ar   61  TRP61       0.0001
     29  CH2       -1.6280  -17.2770   54.7530 C.ar   61  TRP61       0.0015
     30  N          0.3230  -14.8880   62.4660 N.am   62  GLY62      -0.1942
     31  CA         0.3940  -15.8660   63.5360 C.3    62  GLY62       0.2014
     32  C          1.3640  -15.5000   64.6270 C.2    62  GLY62       0.2639
     33  O          2.2070  -14.6050   64.4870 O.2    62  GLY62      -0.2714
     34  N          1.2620  -16.2230   65.7290 N.am   63  ALA63      -0.1963
     35  CA         2.0650  -15.9710   66.9110 C.3    63  ALA63       0.1728
     36  C          3.5440  -16.2880   66.7040 C.2    63  ALA63       0.2616
     37  O          4.4030  -15.4870   67.0490 O.2    63  ALA63      -0.2715
     38  CB         1.5100  -16.7780   68.0820 C.3    63  ALA63       0.0334
     39  N          3.8730  -17.4360   66.1360 N.am   64  LYS64      -0.1963
     40  CA         5.2650  -17.7640   65.9440 C.3    64  LYS64       0.1728
     41  C          5.9240  -16.8100   64.9610 C.2    64  LYS64       0.2616
     42  O          7.0300  -16.3180   65.2000 O.2    64  LYS64      -0.2715
     43  CB         5.4180  -19.2160   65.5200 C.3    64  LYS64       0.0311
     44  CG         5.3610  -20.1760   66.7160 C.3    64  LYS64       0.0038
     45  CD         6.0910  -21.4890   66.4280 C.3    64  LYS64       0.0206
     46  CE         6.1670  -22.3870   67.6640 C.3    64  LYS64       0.1093
     47  NZ         6.9080  -23.6690   67.3940 N.3    64  LYS64      -0.1314
     48  N          5.2360  -16.5010   63.8730 N.am   65  ASN65      -0.1972
     49  CA         5.8190  -15.5920   62.9050 C.3    65  ASN65       0.1688
     50  C          5.9740  -14.2090   63.4860 C.2    65  ASN65       0.2292
     51  O          6.9430  -13.5170   63.2060 O.2    65  ASN65      -0.2864
     52  CB         4.9420  -15.4790   61.6580 C.3    65  ASN65       0.1181
     53  CG         5.0410  -16.6650   60.7320 C.2    65  ASN65       0.2629
     54  OD1        5.8650  -17.5670   60.9150 O.2    65  ASN65      -0.2716
     55  ND2        4.2080  -16.6670   59.7210 N.am   65  ASN65      -0.0877
     56  N         -6.7130  -13.4040   59.8160 N.3    91  ASP91      -0.1239
     57  CA        -5.5870  -13.8750   60.6140 C.3    91  ASP91       0.1674
     58  C         -4.2140  -13.4210   60.1210 C.2    91  ASP91       0.2266
     59  O         -3.2680  -13.3110   60.9150 O.2    91  ASP91      -0.2867
     60  CB        -5.6520  -15.4020   60.6520 C.3    91  ASP91       0.1410
     61  CG        -4.8480  -15.9980   61.7700 C.2    91  ASP91       0.3668
     62  OD1       -4.8120  -15.4490   62.8860 O.co2  91  ASP91      -0.2456
     63  OD2       -4.2820  -17.0810   61.5340 O.co2  91  ASP91      -0.2456
     64  N         -3.4670  -12.0320   63.4520 N.3    95  GLY95      -0.1225
     65  CA        -2.8890  -13.1860   64.1300 C.3    95  GLY95       0.1811
     66  C         -1.4900  -12.8320   64.5950 C.2    95  GLY95       0.2280
     67  O         -0.6280  -12.5330   63.7630 O.2    95  GLY95      -0.2866
     68  N         -7.7320  -12.9740   67.0310 N.3   123  GLU123     -0.1245
     69  CA        -7.1850  -12.0760   68.0380 C.3   123  GLU123      0.1567
     70  C         -7.6520  -10.6630   67.7500 C.2   123  GLU123      0.2260
     71  O         -7.9290  -10.3190   66.6030 O.2   123  GLU123     -0.2867
     72  CB        -5.6610  -12.1830   68.0430 C.3   123  GLU123      0.0388
     73  CG        -5.1900  -13.5850   68.4660 C.3   123  GLU123      0.1160
     74  CD        -3.7750  -13.8870   68.0480 C.2   123  GLU123      0.3649
     75  OE1       -2.8710  -13.0900   68.3490 O.co2 123  GLU123     -0.2457
     76  OE2       -3.5730  -14.9260   67.3950 O.co2 123  GLU123     -0.2457
@<TRIPOS>BOND
     1     4     3    2
     2    28    29   ar
     3    28    26   ar
     4    29    27   ar
     5    12    11    1
     6    12    13    2
     7    11    10    1
     8    11    14    1
     9     3    10   am
    10     3     2    1
    11    15    14    1
    12     1     2    1
    13    26    23   ar
    14    27    25   ar
    15     2     5    1
    16    23    25   ar
    17    23    21   ar
    18    25    24   ar
    19     5     6    1
    20    24    22   ar
    21    21    20    1
    22    21    22   ar
    23    20    17    1
    24     8     7    2
    25     6     7    1
    26     7     9   am
    27    55    53   am
    28    56    57    1
    29    58    57    1
    30    58    59    2
    31    17    16    1
    32    17    18    1
    33    57    60    1
    34    60    61    1
    35    53    54    2
    36    53    52    1
    37    19    18    2
    38    18    30   am
    39    63    61   ar
    40    52    49    1
    41    61    62   ar
    42    30    31    1
    43    49    50    1
    44    49    48    1
    45    51    50    2
    46    64    65    1
    47    31    32    1
    48    67    66    2
    49    48    41   am
    50    65    66    1
    51    33    32    2
    52    32    34   am
    53    41    42    2
    54    41    40    1
    55    43    40    1
    56    43    44    1
    57    34    35    1
    58    40    39    1
    59    39    36   am
    60    45    44    1
    61    45    46    1
    62    71    70    2
    63    36    35    1
    64    36    37    2
    65    35    38    1
    66    68    69    1
    67    47    46    1
    68    76    74   ar
    69    70    69    1
    70    69    72    1
    71    72    73    1
    72    74    75   ar
    73    74    73    1
