@<TRIPOS>MOLECULE
tmp/5n5iA00.pdb
 148 147 0 0 0
SMALL
GASTEIGER

@<TRIPOS>ATOM
      1  N         17.2340   21.5530   54.1470 N.3    31  PHE31      -0.1241
      2  CA        18.6770   21.4170   54.3020 C.3    31  PHE31       0.1605
      3  C         19.4290   22.4430   53.4500 C.2    31  PHE31       0.2264
      4  O         19.2760   22.4850   52.2200 O.2    31  PHE31      -0.2867
      5  CB        19.1200   20.0020   53.9390 C.3    31  PHE31       0.0534
      6  CG        20.5710   19.7350   54.2120 C.ar   31  PHE31      -0.0203
      7  CD1       21.0060   19.4640   55.5000 C.ar   31  PHE31      -0.0042
      8  CD2       21.5000   19.7540   53.1820 C.ar   31  PHE31      -0.0042
      9  CE1       22.3480   19.2190   55.7550 C.ar   31  PHE31      -0.0003
     10  CE2       22.8360   19.5070   53.4280 C.ar   31  PHE31      -0.0003
     11  CZ        23.2630   19.2430   54.7190 C.ar   31  PHE31      -0.0000
     12  N         13.9680   19.0590   50.6600 N.3    36  TYR36      -0.1228
     13  CA        14.1530   17.7750   49.9960 C.3    36  TYR36       0.1721
     14  C         13.2390   16.7010   50.5830 C.2    36  TYR36       0.2437
     15  O         12.8930   16.7490   51.7630 O.2    36  TYR36      -0.2733
     16  CB        15.6070   17.3140   50.1130 C.3    36  TYR36       0.0547
     17  CG        16.6120   18.2840   49.5420 C.ar   36  TYR36      -0.0200
     18  CD1       16.9770   18.2260   48.2020 C.ar   36  TYR36      -0.0009
     19  CD2       17.1950   19.2580   50.3410 C.ar   36  TYR36      -0.0009
     20  CE1       17.8940   19.1120   47.6700 C.ar   36  TYR36       0.0417
     21  CE2       18.1180   20.1470   49.8210 C.ar   36  TYR36       0.0417
     22  CZ        18.4620   20.0700   48.4830 C.ar   36  TYR36       0.1957
     23  OH        19.3770   20.9530   47.9590 O.3    36  TYR36      -0.2866
     24  N         12.8630   15.7170   49.7580 N.am   37  PRO37      -0.2729
     25  CA        12.1220   14.5590   50.2610 C.3    37  PRO37       0.1401
     26  C         13.0660   13.4700   50.7610 C.2    37  PRO37       0.2269
     27  O         14.2530   13.4780   50.4380 O.2    37  PRO37      -0.2865
     28  CB        11.3400   14.0920   49.0420 C.3    37  PRO37       0.0296
     29  CG        12.2570   14.4350   47.8800 C.3    37  PRO37       0.0237
     30  CD        13.0070   15.6960   48.2890 C.3    37  PRO37       0.0939
     31  N         13.9640   12.0250   59.3110 N.3    56  TRP56      -0.1241
     32  CA        14.8110   13.2030   59.1540 C.3    56  TRP56       0.1605
     33  C         14.4250   14.3270   60.1150 C.2    56  TRP56       0.2264
     34  O         13.9330   15.3790   59.7020 O.2    56  TRP56      -0.2867
     35  CB        14.7550   13.6970   57.6990 C.3    56  TRP56       0.0550
     36  CG        15.8550   14.6370   57.2760 C.ar   56  TRP56       0.0003
     37  CD1       16.8070   15.2080   58.0670 C.ar   56  TRP56       0.0946
     38  CD2       16.1160   15.1000   55.9440 C.ar   56  TRP56       0.0152
     39  NE1       17.6390   16.0040   57.3130 N.ar   56  TRP56      -0.2442
     40  CE2       17.2330   15.9560   56.0070 C.ar   56  TRP56       0.0810
     41  CE3       15.5050   14.8810   54.7070 C.ar   56  TRP56       0.0012
     42  CZ2       17.7590   16.5880   54.8780 C.ar   56  TRP56       0.0191
     43  CZ3       16.0280   15.5110   53.5840 C.ar   56  TRP56       0.0001
     44  CH2       17.1400   16.3520   53.6780 C.ar   56  TRP56       0.0015
     45  N         24.0820    9.7990   58.6640 N.3    85  HIS85      -0.1226
     46  CA        23.5920   11.1440   58.3740 C.3    85  HIS85       0.1752
     47  C         22.2480   11.4070   59.0260 C.2    85  HIS85       0.2596
     48  O         21.5380   10.4780   59.4290 O.2    85  HIS85      -0.2718
     49  CB        23.4860   11.3770   56.8630 C.3    85  HIS85       0.0759
     50  CG        24.8100   11.4900   56.1770 C.ar   85  HIS85       0.0818
     51  ND1       24.9880   11.1880   54.8460 N.ar   85  HIS85      -0.2268
     52  CD2       26.0240   11.8680   56.6430 C.ar   85  HIS85       0.1154
     53  CE1       26.2540   11.3740   54.5200 C.ar   85  HIS85       0.1986
     54  NE2       26.9020   11.7940   55.5910 N.ar   85  HIS85      -0.2212
     55  N         21.9040   12.6850   59.0940 N.am   86  ASP86      -0.1960
     56  CA        20.7430   13.1530   59.8360 C.3    86  ASP86       0.1840
     57  C         19.4050   12.7000   59.2370 C.2    86  ASP86       0.2622
     58  O         18.4060   12.5930   59.9470 O.2    86  ASP86      -0.2715
     59  CB        20.7860   14.6830   59.9340 C.3    86  ASP86       0.1450
     60  CG        19.8830   15.2230   61.0210 C.2    86  ASP86       0.3671
     61  OD1       19.8260   14.6030   62.1090 O.co2  86  ASP86      -0.2456
     62  OD2       19.2290   16.2640   60.7860 O.co2  86  ASP86      -0.2456
     63  N         19.3670   12.4040   57.9410 N.am   87  ASP87      -0.1971
     64  CA        18.1250   11.8790   57.3870 C.3    87  ASP87       0.1709
     65  C         17.8830   10.4040   57.7600 C.2    87  ASP87       0.2293
     66  O         16.8490    9.8370   57.4010 O.2    87  ASP87      -0.2864
     67  CB        18.0780   12.0710   55.8630 C.3    87  ASP87       0.1436
     68  CG        19.3300   11.5660   55.1390 C.2    87  ASP87       0.3671
     69  OD1       20.3750   11.3130   55.7740 O.co2  87  ASP87      -0.2456
     70  OD2       19.2610   11.4420   53.9000 O.co2  87  ASP87      -0.2456
     71  N         27.6610    5.7400   49.2830 N.3   148  HIS148     -0.1241
     72  CA        27.2430    7.0670   49.6940 C.3   148  HIS148      0.1621
     73  C         27.9240    7.4350   51.0230 C.2   148  HIS148      0.2264
     74  O         28.3060    8.5790   51.2650 O.2   148  HIS148     -0.2867
     75  CB        25.7120    7.1090   49.8120 C.3   148  HIS148      0.0745
     76  CG        25.2010    8.2700   50.5980 C.ar  148  HIS148      0.0817
     77  ND1       25.0160    9.5150   50.0450 N.ar  148  HIS148     -0.2268
     78  CD2       24.8560    8.3810   51.8990 C.ar  148  HIS148      0.1154
     79  CE1       24.5700   10.3450   50.9690 C.ar  148  HIS148      0.1986
     80  NE2       24.4630    9.6810   52.1030 N.ar  148  HIS148     -0.2212
     81  N         20.4330    5.7530   50.8330 N.3   167  CYS167     -0.1235
     82  CA        21.1010    6.7560   50.0110 C.3   167  CYS167      0.1677
     83  C         22.2290    6.1750   49.1580 C.2   167  CYS167      0.2270
     84  O         22.8380    6.8910   48.3740 O.2   167  CYS167     -0.2867
     85  CB        21.6080    7.8870   50.8910 C.3   167  CYS167      0.0956
     86  SG        20.2460    8.6180   51.7920 S.3   167  CYS167     -0.0801
     87  N         20.1660    5.7420   43.9840 N.3   170  HIS170     -0.1226
     88  CA        19.5220    6.9690   43.4970 C.3   170  HIS170      0.1752
     89  C         18.2660    6.6930   42.6890 C.2   170  HIS170      0.2595
     90  O         18.1360    5.6400   42.0610 O.2   170  HIS170     -0.2718
     91  CB        20.5000    7.7840   42.6530 C.3   170  HIS170      0.0759
     92  CG        21.6890    8.2570   43.4230 C.ar  170  HIS170      0.0818
     93  ND1       22.9860    7.9850   43.0360 N.ar  170  HIS170     -0.2268
     94  CD2       21.7770    8.9570   44.5790 C.ar  170  HIS170      0.1154
     95  CE1       23.8200    8.5130   43.9140 C.ar  170  HIS170      0.1986
     96  NE2       23.1110    9.1060   44.8620 N.ar  170  HIS170     -0.2212
     97  N         17.3370    7.6440   42.7090 N.am  171  GLU171     -0.1979
     98  CA        16.1100    7.5200   41.9310 C.3   171  GLU171      0.1602
     99  C         16.4000    7.6900   40.4300 C.2   171  GLU171      0.2287
    100  O         17.4350    8.2390   40.0580 O.2   171  GLU171     -0.2864
    101  CB        15.0760    8.5380   42.3980 C.3   171  GLU171      0.0415
    102  CG        15.3110    9.9520   41.9080 C.3   171  GLU171      0.1163
    103  CD        14.0990   10.8420   42.1560 C.2   171  GLU171      0.3649
    104  OE1       12.9520   10.3650   41.9840 O.co2 171  GLU171     -0.2457
    105  OE2       14.2920   12.0120   42.5430 O.co2 171  GLU171     -0.2457
    106  N         17.1320   11.1630   38.7350 N.3   174  SER174     -0.1217
    107  CA        18.2900   11.9010   39.2180 C.3   174  SER174      0.1889
    108  C         19.5180   11.6790   38.3300 C.2   174  SER174      0.2288
    109  O         19.7660   10.5700   37.8590 O.2   174  SER174     -0.2866
    110  CB        18.5970   11.5060   40.6690 C.3   174  SER174      0.2089
    111  OG        19.9910   11.5520   40.9280 O.3   174  SER174     -0.2183
    112  N         22.5110   13.4750   39.3290 N.3   176  SER176     -0.1202
    113  CA        23.6250   13.8200   40.1950 C.3   176  SER176      0.2020
    114  C         23.8070   12.7400   41.2480 C.2   176  SER176      0.2619
    115  O         22.8660   12.0200   41.5730 O.2   176  SER176     -0.2717
    116  CB        23.3960   15.1830   40.8500 C.3   176  SER176      0.2103
    117  OG        24.3090   15.4020   41.9100 O.3   176  SER176     -0.2182
    118  N         25.0250   12.6160   41.7640 N.am  177  ALA177     -0.1965
    119  CA        25.3060   11.6620   42.8260 C.3   177  ALA177      0.1728
    120  C         24.9210   12.2240   44.1990 C.2   177  ALA177      0.2617
    121  O         25.1410   11.5810   45.2260 O.2   177  ALA177     -0.2715
    122  CB        26.7760   11.2680   42.8040 C.3   177  ALA177      0.0334
    123  N         24.3480   13.4250   44.2080 N.am  178  GLY178     -0.1940
    124  CA        23.8610   14.0310   45.4330 C.3   178  GLY178      0.2014
    125  C         24.9610   14.4570   46.3850 C.2   178  GLY178      0.2638
    126  O         25.9540   15.0630   45.9730 O.2   178  GLY178     -0.2714
    127  N         24.7730   14.1510   47.6680 N.am  179  ASN179     -0.1972
    128  CA        25.7690   14.4640   48.6870 C.3   179  ASN179      0.1688
    129  C         26.8750   13.4250   48.6760 C.2   179  ASN179      0.2292
    130  O         26.6480   12.2800   49.0500 O.2   179  ASN179     -0.2864
    131  CB        25.1230   14.5350   50.0710 C.3   179  ASN179      0.1181
    132  CG        26.1480   14.6150   51.1910 C.2   179  ASN179      0.2629
    133  OD1       27.2440   15.1560   51.0170 O.2   179  ASN179     -0.2716
    134  ND2       25.7960   14.0640   52.3520 N.am  179  ASN179     -0.0877
    135  N         16.0330    8.9470   48.6620 N.3   209  HIS209     -0.1226
    136  CA        15.2960   10.1430   48.2790 C.3   209  HIS209      0.1752
    137  C         14.6820    9.9170   46.9150 C.2   209  HIS209      0.2596
    138  O         15.3840    9.5400   45.9780 O.2   209  HIS209     -0.2718
    139  CB        16.2070   11.3680   48.2370 C.3   209  HIS209      0.0759
    140  CG        16.9930   11.5780   49.4900 C.ar  209  HIS209      0.0818
    141  ND1       16.4470   12.1380   50.6250 N.ar  209  HIS209     -0.2268
    142  CD2       18.2820   11.2950   49.7910 C.ar  209  HIS209      0.1154
    143  CE1       17.3670   12.1920   51.5720 C.ar  209  HIS209      0.1986
    144  NE2       18.4880   11.6860   51.0920 N.ar  209  HIS209     -0.2212
    145  N         13.3790   10.1330   46.7930 N.am  210  GLY210     -0.1957
    146  CA        12.7460   10.0570   45.4870 C.3   210  GLY210      0.1869
    147  C         11.8910    8.8290   45.2550 C.2   210  GLY210      0.2309
    148  O         11.6080    8.0720   46.1920 O.2   210  GLY210     -0.2863
@<TRIPOS>BOND
     1   109   108    2
     2   108   107    1
     3   106   107    1
     4   107   110    1
     5   112   113    1
     6   100    99    2
     7   113   116    1
     8   113   114    1
     9    99    98    1
    10   110   111    1
    11   116   117    1
    12   114   115    2
    13   114   118   am
    14   118   119    1
    15   102   103    1
    16   102   101    1
    17    98   101    1
    18    98    97    1
    19   104   103   ar
    20    90    89    2
    21   103   105   ar
    22    91    92    1
    23    91    88    1
    24    89    97   am
    25    89    88    1
    26   122   119    1
    27   119   120    1
    28    93    92   ar
    29    93    95   ar
    30    92    94   ar
    31    88    87    1
    32    95    96   ar
    33   120   123   am
    34   120   121    2
    35   123   124    1
    36    94    96   ar
    37   147   146    1
    38   147   148    2
    39   124   125    1
    40   146   145    1
    41   126   125    2
    42   138   137    2
    43   125   127   am
    44   145   137   am
    45   137   136    1
    46   127   128    1
    47    20    18   ar
    48    20    22   ar
    49    29    30    1
    50    29    28    1
    51    23    22    1
    52    18    17   ar
    53   139   136    1
    54   139   140    1
    55   136   135    1
    56    30    24    1
    57    84    83    2
    58    22    21   ar
    59   129   128    1
    60   129   130    2
    61   128   131    1
    62    28    25    1
    63    83    82    1
    64    71    72    1
    65   140   142   ar
    66   140   141   ar
    67    17    16    1
    68    17    19   ar
    69    72    75    1
    70    72    73    1
    71    24    25    1
    72    24    14   am
    73   142   144   ar
    74    75    76    1
    75    21    19   ar
    76    13    16    1
    77    13    14    1
    78    13    12    1
    79    82    81    1
    80    82    85    1
    81    77    76   ar
    82    77    79   ar
    83   131   132    1
    84    25    26    1
    85    27    26    2
    86    14    15    2
    87    76    78   ar
    88   141   143   ar
    89    85    86    1
    90    79    80   ar
    91   133   132    2
    92    73    74    2
    93   144   143   ar
    94   132   134   am
    95    78    80   ar
    96     4     3    2
    97     8    10   ar
    98     8     6   ar
    99    10    11   ar
   100     3     2    1
   101    43    44   ar
   102    43    41   ar
   103    44    42   ar
   104    70    68   ar
   105     5     6    1
   106     5     2    1
   107     1     2    1
   108     6     7   ar
   109    53    51   ar
   110    53    54   ar
   111    41    38   ar
   112    11     9   ar
   113    51    50   ar
   114    42    40   ar
   115    68    69   ar
   116    68    67    1
   117     7     9   ar
   118    54    52   ar
   119    67    64    1
   120    38    40   ar
   121    38    36   ar
   122    40    39   ar
   123    50    52   ar
   124    50    49    1
   125    49    46    1
   126    36    35    1
   127    36    37   ar
   128    39    37   ar
   129    64    65    1
   130    64    63    1
   131    66    65    2
   132    35    32    1
   133    63    57   am
   134    46    45    1
   135    46    47    1
   136    47    55   am
   137    47    48    2
   138    55    56    1
   139    32    31    1
   140    32    33    1
   141    57    56    1
   142    57    58    2
   143    34    33    2
   144    56    59    1
   145    59    60    1
   146    62    60   ar
   147    60    61   ar
