@<TRIPOS>MOLECULE
tmp/5n5jA00.pdb
 145 143 0 0 0
SMALL
GASTEIGER

@<TRIPOS>ATOM
      1  N         17.8680  -10.6270   21.2300 N.3    74  GLY74      -0.1210
      2  CA        17.5790   -9.4990   22.0150 C.3    74  GLY74       0.1956
      3  C         17.0080   -8.3240   21.1900 C.2    74  GLY74       0.2612
      4  O         15.9710   -8.4430   20.5540 O.2    74  GLY74      -0.2717
      5  N         17.6370   -7.1710   21.3080 N.am   75  ILE75      -0.1965
      6  CA        17.1840   -5.9780   20.6130 C.3    75  ILE75       0.1727
      7  C         17.4680   -6.2080   19.1050 C.2    75  ILE75       0.2616
      8  O         18.6390   -6.4400   18.6780 O.2    75  ILE75      -0.2715
      9  CB        17.9380   -4.7360   21.0680 C.3    75  ILE75       0.0290
     10  CG1       17.5050   -4.3660   22.4910 C.3    75  ILE75       0.0022
     11  CG2       17.5730   -3.5040   20.1760 C.3    75  ILE75       0.0023
     12  CD1       18.4180   -3.3310   23.0470 C.3    75  ILE75       0.0001
     13  N         16.4100   -6.0860   18.3050 N.am   76  LEU76      -0.1963
     14  CA        16.5520   -6.2770   16.8490 C.3    76  LEU76       0.1728
     15  C         16.8080   -4.9840   16.0810 C.2    76  LEU76       0.2616
     16  O         17.4000   -5.0100   15.0030 O.2    76  LEU76      -0.2715
     17  CB        15.3070   -6.9840   16.2810 C.3    76  LEU76       0.0311
     18  CG        14.9090   -8.2350   17.1000 C.3    76  LEU76       0.0022
     19  CD1       13.5810   -8.7790   16.5900 C.3    76  LEU76       0.0001
     20  CD2       15.9670   -9.3410   17.0090 C.3    76  LEU76       0.0001
     21  N         16.2850   -3.8900   16.6190 N.am   77  ALA77      -0.1977
     22  CA        16.3310   -2.6010   15.9130 C.3    77  ALA77       0.1597
     23  C         15.8980   -1.5330   16.8840 C.2    77  ALA77       0.2287
     24  O         15.2560   -1.8710   17.8870 O.2    77  ALA77      -0.2864
     25  CB        15.3600   -2.6360   14.7460 C.3    77  ALA77       0.0319
     26  N          8.3190   -6.6490    8.7700 N.3   109  LEU109     -0.1231
     27  CA         7.5780   -6.4520   10.0350 C.3   109  LEU109      0.1693
     28  C          8.3130   -5.5460   11.0340 C.2   109  LEU109      0.2592
     29  O          7.7160   -4.6770   11.7170 O.2   109  LEU109     -0.2718
     30  CB         7.2760   -7.8140   10.6690 C.3   109  LEU109      0.0284
     31  CG         6.2880   -8.7190    9.9150 C.3   109  LEU109      0.0019
     32  CD1        6.4260  -10.1090   10.4810 C.3   109  LEU109      0.0001
     33  CD2        4.9160   -8.1160    9.9650 C.3   109  LEU109      0.0001
     34  N          9.6020   -5.8080   11.1780 N.am  110  THR110     -0.1953
     35  CA        10.4480   -5.0610   12.0340 C.3   110  THR110      0.1897
     36  C         10.4650   -3.5780   11.5680 C.2   110  THR110      0.2313
     37  O         10.3600   -2.6710   12.3930 O.2   110  THR110     -0.2863
     38  CB        11.8780   -5.6540   12.1040 C.3   110  THR110      0.1794
     39  OG1       11.8350   -7.0460   12.4040 O.3   110  THR110     -0.2208
     40  CG2       12.7270   -4.9590   13.1490 C.3   110  THR110      0.0378
     41  N          7.3140   -1.6460   12.5690 N.3   113  HIS113     -0.1226
     42  CA         7.3830   -1.2570   13.9730 C.3   113  HIS113      0.1752
     43  C          8.3460   -0.0660   14.1550 C.2   113  HIS113      0.2595
     44  O          7.9960    0.9020   14.8210 O.2   113  HIS113     -0.2718
     45  CB         7.8590   -2.4440   14.7700 C.3   113  HIS113      0.0759
     46  CG         8.1210   -2.2030   16.2390 C.ar  113  HIS113      0.0818
     47  ND1        7.2200   -2.5670   17.2240 N.ar  113  HIS113     -0.2268
     48  CD2        9.1760   -1.6650   16.8900 C.ar  113  HIS113      0.1154
     49  CE1        7.7280   -2.3060   18.4110 C.ar  113  HIS113      0.1986
     50  NE2        8.9140   -1.7600   18.2430 N.ar  113  HIS113     -0.2212
     51  N          9.5340   -0.1390   13.5750 N.am  114  GLU114     -0.1979
     52  CA        10.5380    0.9580   13.7050 C.3   114  GLU114      0.1602
     53  C         10.0870    2.2290   13.1090 C.2   114  GLU114      0.2287
     54  O         10.2450    3.2930   13.7380 O.2   114  GLU114     -0.2864
     55  CB        11.9040    0.5170   13.1240 C.3   114  GLU114      0.0415
     56  CG        12.5720   -0.6800   13.8360 C.3   114  GLU114      0.1163
     57  CD        12.5620   -0.5030   15.3600 C.2   114  GLU114      0.3649
     58  OE1       12.8320    0.6410   15.8400 O.co2 114  GLU114     -0.2457
     59  OE2       12.3030   -1.4950   16.0810 O.co2 114  GLU114     -0.2457
     60  N          5.4110    2.1240   22.4030 N.3   123  HIS123     -0.1241
     61  CA         4.9900    0.7280   22.4070 C.3   123  HIS123      0.1621
     62  C          3.5440    0.5170   22.8680 C.2   123  HIS123      0.2264
     63  O          2.9960    1.2990   23.6400 O.2   123  HIS123     -0.2867
     64  CB         5.9310   -0.0640   23.2820 C.3   123  HIS123      0.0745
     65  CG         7.2540   -0.3200   22.6730 C.ar  123  HIS123      0.0817
     66  ND1        8.4080   -0.4930   23.4350 N.ar  123  HIS123     -0.2268
     67  CD2        7.6030   -0.5290   21.3720 C.ar  123  HIS123      0.1154
     68  CE1        9.4130   -0.7720   22.6040 C.ar  123  HIS123      0.1986
     69  NE2        8.9410   -0.8390   21.3700 N.ar  123  HIS123     -0.2212
     70  N         -0.8880   -5.7030   18.2750 N.3   129  ALA129     -0.1231
     71  CA        -0.4170   -4.4740   17.6230 C.3   129  ALA129      0.1694
     72  C          0.9810   -4.6660   17.0610 C.2   129  ALA129      0.2591
     73  O          1.8520   -5.3060   17.6580 O.2   129  ALA129     -0.2718
     74  CB        -0.4540   -3.2790   18.5950 C.3   129  ALA129      0.0304
     75  N          1.2240   -4.0690   15.9120 N.am  130  VAL130     -0.1980
     76  CA         2.5940   -4.0400   15.3860 C.3   130  VAL130      0.1595
     77  C          3.6010   -3.2940   16.3220 C.2   130  VAL130      0.2287
     78  O          4.7810   -3.6230   16.3220 O.2   130  VAL130     -0.2864
     79  CB         2.6940   -3.5050   13.9360 C.3   130  VAL130      0.0276
     80  CG1        2.6040   -2.0080   13.9160 C.3   130  VAL130      0.0022
     81  CG2        3.9240   -4.0220   13.2630 C.3   130  VAL130      0.0022
     82  N          3.5980   -3.5730   19.5040 N.3   132  PHE132     -0.1228
     83  CA         3.9950   -4.4410   20.6650 C.3   132  PHE132      0.1721
     84  C          5.4620   -4.6970   20.5930 C.2   132  PHE132      0.2437
     85  O          6.0370   -4.7860   19.4780 O.2   132  PHE132     -0.2733
     86  CB         3.1610   -5.7570   20.6090 C.3   132  PHE132      0.0547
     87  CG         3.2230   -6.6010   21.8940 C.ar  132  PHE132     -0.0202
     88  CD1        2.6680   -6.1570   23.0500 C.ar  132  PHE132     -0.0042
     89  CD2        3.8590   -7.8240   21.8870 C.ar  132  PHE132     -0.0042
     90  CE1        2.7140   -6.9040   24.2140 C.ar  132  PHE132     -0.0003
     91  CE2        3.9070   -8.5650   23.0370 C.ar  132  PHE132     -0.0003
     92  CZ         3.3330   -8.0890   24.1720 C.ar  132  PHE132     -0.0000
     93  N          6.1520   -4.7040   21.7340 N.am  133  PRO133     -0.2718
     94  CA         7.6580   -4.7860   21.7540 C.3   133  PRO133      0.1535
     95  C          8.2160   -6.1100   21.2620 C.2   133  PRO133      0.2599
     96  O          9.2860   -6.1560   20.8040 O.2   133  PRO133     -0.2715
     97  CB         7.9740   -4.5830   23.2260 C.3   133  PRO133      0.0310
     98  CG         6.7930   -3.8440   23.7820 C.3   133  PRO133      0.0237
     99  CD         5.6030   -4.4380   23.0690 C.3   133  PRO133      0.0939
    100  N          7.4660   -7.1850   21.2500 N.am  134  THR134     -0.1937
    101  CA         8.0860   -8.4750   20.9950 C.3   134  THR134      0.2028
    102  C          7.8810   -8.9660   19.5800 C.2   134  THR134      0.2642
    103  O          6.7920   -8.9370   19.0230 O.2   134  THR134     -0.2714
    104  CB         7.6580   -9.5160   22.0220 C.3   134  THR134      0.1808
    105  OG1        6.4220  -10.0630   21.6370 O.3   134  THR134     -0.2208
    106  CG2        7.4690   -8.8990   23.3390 C.3   134  THR134      0.0379
    107  N          8.9580   -9.4200   18.9800 N.am  135  TYR135     -0.1959
    108  CA         8.8750   -9.9080   17.6080 C.3   135  TYR135      0.1771
    109  C          8.1330  -11.1970   17.5180 C.2   135  TYR135      0.2619
    110  O          8.4120  -12.0720   18.3120 O.2   135  TYR135     -0.2715
    111  CB        10.2830  -10.1620   17.0650 C.3   135  TYR135      0.0574
    112  CG        10.2700  -10.7380   15.6710 C.ar  135  TYR135     -0.0198
    113  CD1       10.2470   -9.9300   14.5550 C.ar  135  TYR135     -0.0009
    114  CD2       10.2980  -12.1250   15.4940 C.ar  135  TYR135     -0.0009
    115  CE1       10.2310  -10.5000   13.2650 C.ar  135  TYR135      0.0417
    116  CE2       10.3190  -12.6870   14.2500 C.ar  135  TYR135      0.0417
    117  CZ        10.2840  -11.8870   13.1390 C.ar  135  TYR135      0.1957
    118  OH        10.2840  -12.5130   11.9200 O.3   135  TYR135     -0.2866
    119  N          7.1330  -11.2930   16.6280 N.am  136  LYS136     -0.1977
    120  CA         6.5010  -12.5530   16.2990 C.3   136  LYS136      0.1596
    121  C          6.1880  -12.5320   14.8200 C.2   136  LYS136      0.2287
    122  O          5.6200  -11.5600   14.2960 O.2   136  LYS136     -0.2864
    123  CB         5.2430  -12.7440   17.1220 C.3   136  LYS136      0.0298
    124  CG         4.4940  -14.0470   16.8400 C.3   136  LYS136      0.0038
    125  CD         3.1600  -14.1810   17.5960 C.3   136  LYS136      0.0206
    126  CE         2.3150  -12.8870   17.6870 C.3   136  LYS136      0.1093
    127  NZ         1.9410  -12.2630   16.3890 N.3   136  LYS136     -0.1314
    128  N          4.4000  -13.0400   11.4500 N.3   138  VAL138     -0.1245
    129  CA         3.1050  -13.3180   10.8140 C.3   138  VAL138      0.1561
    130  C          3.3130  -13.1990    9.3110 C.2   138  VAL138      0.2260
    131  O          4.1260  -12.3620    8.8160 O.2   138  VAL138     -0.2867
    132  CB         1.9830  -12.3650   11.2980 C.3   138  VAL138      0.0252
    133  CG1        1.8480  -12.3810   12.8300 C.3   138  VAL138      0.0019
    134  CG2        2.2450  -10.9480   10.8580 C.3   138  VAL138      0.0019
    135  N         -0.6360   -9.6760    7.2670 N.3   143  PHE143     -0.1241
    136  CA        -0.3630   -8.6330    8.2050 C.3   143  PHE143      0.1605
    137  C         -1.3840   -7.5160    8.0620 C.2   143  PHE143      0.2264
    138  O         -1.5830   -7.0850    6.9550 O.2   143  PHE143     -0.2867
    139  CB         1.0570   -8.0400    7.9770 C.3   143  PHE143      0.0534
    140  CG         1.2890   -6.8190    8.7690 C.ar  143  PHE143     -0.0203
    141  CD1        1.4850   -6.9090   10.1400 C.ar  143  PHE143     -0.0042
    142  CD2        1.1060   -5.5700    8.2080 C.ar  143  PHE143     -0.0042
    143  CE1        1.6130   -5.7720   10.8910 C.ar  143  PHE143     -0.0003
    144  CE2        1.1960   -4.4320    8.9850 C.ar  143  PHE143     -0.0003
    145  CZ         1.4960   -4.5430   10.3170 C.ar  143  PHE143     -0.0000
@<TRIPOS>BOND
     1   138   137    2
     2   135   136    1
     3   139   136    1
     4   139   140    1
     5   137   136    1
     6   142   140   ar
     7   142   144   ar
     8   140   141   ar
     9    26    27    1
    10   131   130    2
    11   144   145   ar
    12   130   129    1
    13    31    33    1
    14    31    32    1
    15    31    30    1
    16    27    30    1
    17    27    28    1
    18   141   143   ar
    19   145   143   ar
    20   129   132    1
    21   129   128    1
    22   134   132    1
    23    28    34   am
    24    28    29    2
    25    34    35    1
    26   132   133    1
    27    36    35    1
    28    36    37    2
    29   118   117    1
    30    35    38    1
    31    38    39    1
    32    38    40    1
    33    41    42    1
    34    53    52    1
    35    53    54    2
    36    55    52    1
    37    55    56    1
    38   117   115   ar
    39   117   116   ar
    40    81    79    1
    41   115   113   ar
    42    51    52    1
    43    51    43   am
    44    56    57    1
    45    80    79    1
    46    79    76    1
    47    42    43    1
    48    42    45    1
    49    43    44    2
    50   116   114   ar
    51   122   121    2
    52   113   112   ar
    53    25    22    1
    54    45    46    1
    55   121   120    1
    56    16    15    2
    57    57    58   ar
    58    57    59   ar
    59    76    75    1
    60    76    77    1
    61   114   112   ar
    62   112   111    1
    63    75    72   am
    64    22    21    1
    65    22    23    1
    66    15    21   am
    67    15    14    1
    68    46    48   ar
    69    46    47   ar
    70    17    14    1
    71    17    18    1
    72   120   119    1
    73   120   123    1
    74    78    77    2
    75   127   126    1
    76    19    18    1
    77   119   109   am
    78   124   123    1
    79   124   125    1
    80    14    13    1
    81    23    24    2
    82    48    50   ar
    83    20    18    1
    84    72    71    1
    85    72    73    2
    86   111   108    1
    87    47    49   ar
    88   109   108    1
    89   109   110    2
    90   125   126    1
    91   108   107    1
    92    71    70    1
    93    71    74    1
    94    50    49   ar
    95    13     7   am
    96     8     7    2
    97   107   102   am
    98   103   102    2
    99     7     6    1
   100    85    84    2
   101    82    83    1
   102   102   101    1
   103    11     9    1
   104     4     3    2
   105    84    83    1
   106    84    93   am
   107    86    83    1
   108    86    87    1
   109     6     9    1
   110     6     5    1
   111    96    95    2
   112   101   100    1
   113   101   104    1
   114     9    10    1
   115     3     5   am
   116     3     2    1
   117     1     2    1
   118   100    95   am
   119    95    94    1
   120    69    67   ar
   121    69    68   ar
   122    67    65   ar
   123   105   104    1
   124    93    94    1
   125    93    99    1
   126    94    97    1
   127    89    87   ar
   128    89    91   ar
   129    87    88   ar
   130   104   106    1
   131    60    61    1
   132    61    62    1
   133    61    64    1
   134    10    12    1
   135    68    66   ar
   136    65    64    1
   137    65    66   ar
   138    62    63    2
   139    91    92   ar
   140    88    90   ar
   141    99    98    1
   142    97    98    1
   143    92    90   ar
