@<TRIPOS>MOLECULE
tmp/5n5kA00.pdb
 134 132 0 0 0
SMALL
GASTEIGER

@<TRIPOS>ATOM
      1  N         -7.5630  -10.7230   21.1540 N.3    72  GLY72      -0.1210
      2  CA        -7.8520   -9.6290   22.0350 C.3    72  GLY72       0.1956
      3  C         -8.4520   -8.4600   21.2730 C.2    72  GLY72       0.2612
      4  O         -9.4370   -8.5930   20.6290 O.2    72  GLY72      -0.2717
      5  N         -7.8220   -7.3120   21.3910 N.am   73  ILE73      -0.1965
      6  CA        -8.2020   -6.1350   20.6210 C.3    73  ILE73       0.1727
      7  C         -7.9290   -6.3830   19.1140 C.2    73  ILE73       0.2616
      8  O         -6.7480   -6.5670   18.6850 O.2    73  ILE73      -0.2715
      9  CB        -7.4650   -4.8290   21.0200 C.3    73  ILE73       0.0290
     10  CG1       -7.5430   -4.4340   22.5260 C.3    73  ILE73       0.0022
     11  CG2       -7.9350   -3.6280   20.1100 C.3    73  ILE73       0.0023
     12  CD1       -8.9040   -4.1480   22.9340 C.3    73  ILE73       0.0001
     13  N         -8.9910   -6.2910   18.3110 N.am   74  LEU74      -0.1963
     14  CA        -8.9020   -6.4870   16.8570 C.3    74  LEU74       0.1728
     15  C         -8.6480   -5.2030   16.0890 C.2    74  LEU74       0.2616
     16  O         -7.9840   -5.2380   15.0800 O.2    74  LEU74      -0.2715
     17  CB       -10.1220   -7.1890   16.2690 C.3    74  LEU74       0.0311
     18  CG       -10.5050   -8.4410   17.0890 C.3    74  LEU74       0.0022
     19  CD1      -11.8330   -9.0970   16.6420 C.3    74  LEU74       0.0001
     20  CD2       -9.4020   -9.4590   16.9890 C.3    74  LEU74       0.0001
     21  N         -9.1410   -4.1010   16.6240 N.am   75  ALA75      -0.1977
     22  CA        -9.1460   -2.8560   15.8680 C.3    75  ALA75       0.1597
     23  C         -9.5870   -1.7820   16.8560 C.2    75  ALA75       0.2287
     24  O        -10.1900   -2.1500   17.8980 O.2    75  ALA75      -0.2864
     25  CB       -10.1180   -2.9860   14.7310 C.3    75  ALA75       0.0319
     26  N        -17.0900   -6.8560    8.7520 N.3   107  LEU107     -0.1231
     27  CA       -17.8470   -6.6340    9.9590 C.3   107  LEU107      0.1693
     28  C        -17.0890   -5.7560   10.9160 C.2   107  LEU107      0.2592
     29  O        -17.6520   -4.9040   11.6190 O.2   107  LEU107     -0.2718
     30  CB       -18.1570   -7.9090   10.6880 C.3   107  LEU107      0.0284
     31  CG       -19.0790   -8.8480    9.9400 C.3   107  LEU107      0.0019
     32  CD1      -18.9750  -10.2070   10.5430 C.3   107  LEU107      0.0001
     33  CD2      -20.4920   -8.3550   10.0310 C.3   107  LEU107      0.0001
     34  N        -15.8040   -6.0500   11.0500 N.am  108  THR108     -0.1953
     35  CA       -15.0170   -5.2460   11.9380 C.3   108  THR108      0.1897
     36  C        -15.0270   -3.7930   11.5240 C.2   108  THR108      0.2313
     37  O        -15.0810   -2.8790   12.4090 O.2   108  THR108     -0.2863
     38  CB       -13.5620   -5.8160   12.0630 C.3   108  THR108      0.1794
     39  OG1      -13.6220   -7.2190   12.3960 O.3   108  THR108     -0.2208
     40  CG2      -12.7760   -5.0760   13.1780 C.3   108  THR108      0.0378
     41  N        -18.1540   -1.7830   12.4930 N.3   111  HIS111     -0.1226
     42  CA       -18.0920   -1.4510   13.9400 C.3   111  HIS111      0.1752
     43  C        -17.1460   -0.2370   14.1760 C.2   111  HIS111      0.2595
     44  O        -17.5710    0.7290   14.8280 O.2   111  HIS111     -0.2718
     45  CB       -17.6150   -2.6460   14.7120 C.3   111  HIS111      0.0759
     46  CG       -17.3540   -2.3870   16.1730 C.ar  111  HIS111      0.0818
     47  ND1      -18.3040   -2.6630   17.1180 N.ar  111  HIS111     -0.2268
     48  CD2      -16.2900   -1.8560   16.8270 C.ar  111  HIS111      0.1154
     49  CE1      -17.8170   -2.3720   18.3050 C.ar  111  HIS111      0.1986
     50  NE2      -16.6010   -1.8750   18.1700 N.ar  111  HIS111     -0.2212
     51  N        -15.9190   -0.2980   13.6230 N.am  112  GLU112     -0.1979
     52  CA       -14.9630    0.7520   13.7500 C.3   112  GLU112      0.1602
     53  C        -15.3860    2.0430   13.1050 C.2   112  GLU112      0.2287
     54  O        -15.2130    3.0890   13.7000 O.2   112  GLU112     -0.2864
     55  CB       -13.5850    0.3690   13.1740 C.3   112  GLU112      0.0415
     56  CG       -12.9360   -0.8280   13.8880 C.3   112  GLU112      0.1163
     57  CD       -12.9430   -0.6830   15.3920 C.2   112  GLU112      0.3649
     58  OE1      -13.1920   -1.6840   16.1380 O.co2 112  GLU112     -0.2457
     59  OE2      -12.6120    0.4570   15.8290 O.co2 112  GLU112     -0.2457
     60  N        -20.0420    1.9250   22.3490 N.3   121  HIS121     -0.1241
     61  CA       -20.4950    0.5480   22.3860 C.3   121  HIS121      0.1621
     62  C        -21.9700    0.2950   22.7640 C.2   121  HIS121      0.2264
     63  O        -22.5130    0.9970   23.5860 O.2   121  HIS121     -0.2867
     64  CB       -19.5570   -0.2400   23.2590 C.3   121  HIS121      0.0745
     65  CG       -18.2520   -0.5280   22.5940 C.ar  121  HIS121      0.0817
     66  ND1      -17.0630   -0.6510   23.3020 N.ar  121  HIS121     -0.2268
     67  CD2      -17.9450   -0.7240   21.2940 C.ar  121  HIS121      0.1154
     68  CE1      -16.0680   -0.8770   22.4370 C.ar  121  HIS121      0.1986
     69  NE2      -16.5850   -0.9750   21.2250 N.ar  121  HIS121     -0.2212
     70  N        -26.3440   -5.8220   18.1830 N.3   127  ALA127     -0.1231
     71  CA       -25.8260   -4.6340   17.5580 C.3   127  ALA127      0.1694
     72  C        -24.4130   -4.8120   16.9980 C.2   127  ALA127      0.2591
     73  O        -23.5400   -5.5060   17.5710 O.2   127  ALA127     -0.2718
     74  CB       -25.8710   -3.4660   18.5080 C.3   127  ALA127      0.0304
     75  N        -24.1910   -4.1980   15.8680 N.am  128  VAL128     -0.1980
     76  CA       -22.8300   -4.1840   15.3470 C.3   128  VAL128      0.1595
     77  C        -21.8410   -3.4410   16.2860 C.2   128  VAL128      0.2287
     78  O        -20.6610   -3.7220   16.2970 O.2   128  VAL128     -0.2864
     79  CB       -22.7900   -3.6050   13.9180 C.3   128  VAL128      0.0276
     80  CG1      -22.8150   -2.0860   13.8250 C.3   128  VAL128      0.0022
     81  CG2      -21.6120   -4.1740   13.2300 C.3   128  VAL128      0.0022
     82  N        -21.8870   -3.7660   19.4650 N.3   130  PHE130     -0.1227
     83  CA       -21.4170   -4.6830   20.5710 C.3   130  PHE130      0.1725
     84  C        -19.9480   -4.9790   20.3430 C.2   130  PHE130      0.2475
     85  O        -19.5510   -5.1570   19.2170 O.2   130  PHE130     -0.2730
     86  CB       -22.2230   -5.9700   20.5270 C.3   130  PHE130      0.0547
     87  CG       -22.1160   -6.8190   21.7740 C.ar  130  PHE130     -0.0202
     88  CD1      -22.7210   -6.4290   22.9560 C.ar  130  PHE130     -0.0042
     89  CD2      -21.4880   -8.0730   21.7280 C.ar  130  PHE130     -0.0042
     90  CE1      -22.6530   -7.2440   24.0830 C.ar  130  PHE130     -0.0003
     91  CE2      -21.4090   -8.8780   22.8350 C.ar  130  PHE130     -0.0003
     92  CZ       -22.0300   -8.4670   24.0050 C.ar  130  PHE130     -0.0000
     93  N        -19.1240   -4.9790   21.3740 N.am  131  PRO131     -0.2492
     94  CA       -17.6520   -5.1360   21.2170 C.3   131  PRO131      0.1619
     95  C        -17.1830   -6.4720   20.7870 C.2   131  PRO131      0.2606
     96  O        -16.2080   -6.5600   20.0560 O.2   131  PRO131     -0.2715
     97  CB       -17.0960   -4.8560   22.5550 C.3   131  PRO131      0.0570
     98  CG       -18.2130   -4.5470   23.4450 C.2   131  PRO131     -0.0077
     99  CD       -19.5190   -4.5770   22.7070 C.2   131  PRO131      0.0634
    100  N        -17.9130   -7.5150   21.1170 N.am  132  THR132     -0.1937
    101  CA       -17.4430   -8.8740   20.8820 C.3   132  THR132      0.2028
    102  C        -17.5590   -9.3150   19.4490 C.2   132  THR132      0.2642
    103  O        -18.6470   -9.2690   18.8230 O.2   132  THR132     -0.2714
    104  CB       -18.2220   -9.8450   21.7430 C.3   132  THR132      0.1808
    105  OG1      -18.2800   -9.3270   23.0890 O.3   132  THR132     -0.2208
    106  CG2      -17.5890  -11.2210   21.6840 C.3   132  THR132      0.0379
    107  N        -16.4470   -9.7130   18.8900 N.am  133  TYR133     -0.1959
    108  CA       -16.4790  -10.2850   17.5100 C.3   133  TYR133      0.1771
    109  C        -17.3230  -11.5510   17.4400 C.2   133  TYR133      0.2619
    110  O        -17.0830  -12.4170   18.2270 O.2   133  TYR133     -0.2715
    111  CB       -15.0800  -10.6550   17.0150 C.3   133  TYR133      0.0574
    112  CG       -15.0960  -11.2040   15.6520 C.ar  133  TYR133     -0.0198
    113  CD1      -15.2080  -10.3860   14.5850 C.ar  133  TYR133     -0.0009
    114  CD2      -14.9860  -12.5580   15.4330 C.ar  133  TYR133     -0.0009
    115  CE1      -15.2290  -10.8930   13.2490 C.ar  133  TYR133      0.0417
    116  CE2      -15.0070  -13.0860   14.1180 C.ar  133  TYR133      0.0417
    117  CZ       -15.1500  -12.2410   13.0380 C.ar  133  TYR133      0.1957
    118  OH       -15.1760  -12.7160   11.7730 O.3   133  TYR133     -0.2866
    119  N        -18.3370  -11.6060   16.5640 N.am  134  LYS134     -0.1977
    120  CA       -19.0260  -12.8530   16.2230 C.3   134  LYS134      0.1596
    121  C        -19.3130  -12.8670   14.7220 C.2   134  LYS134      0.2287
    122  O        -19.9560  -11.9610   14.2240 O.2   134  LYS134     -0.2864
    123  CB       -20.3320  -12.9970   16.9970 C.3   134  LYS134      0.0298
    124  CG       -20.9930  -14.3860   16.7790 C.3   134  LYS134      0.0038
    125  CD       -22.2640  -14.6370   17.6200 C.3   134  LYS134      0.0206
    126  CE       -23.3970  -13.6490   17.2800 C.3   134  LYS134      0.1093
    127  NZ       -24.1920  -14.0220   16.0500 N.3   134  LYS134     -0.1314
    128  N        -21.0540  -13.2350   11.3570 N.3   136  VAL136     -0.1245
    129  CA       -22.3600  -13.5050   10.8180 C.3   136  VAL136      0.1561
    130  C        -22.2150  -13.3310    9.3430 C.2   136  VAL136      0.2260
    131  O        -21.4120  -12.5090    8.8440 O.2   136  VAL136     -0.2867
    132  CB       -23.4720  -12.5760   11.3690 C.3   136  VAL136      0.0252
    133  CG1      -23.5100  -12.6770   12.9040 C.3   136  VAL136      0.0019
    134  CG2      -23.2720  -11.1360   10.9090 C.3   136  VAL136      0.0019
@<TRIPOS>BOND
     1    26    27    1
     2   131   130    2
     3   130   129    1
     4    31    33    1
     5    31    32    1
     6    31    30    1
     7    27    30    1
     8    27    28    1
     9   129   128    1
    10   129   132    1
    11   134   132    1
    12    28    34   am
    13    28    29    2
    14    34    35    1
    15   132   133    1
    16    36    35    1
    17    36    37    2
    18   118   117    1
    19    35    38    1
    20    38    39    1
    21    38    40    1
    22    41    42    1
    23   117   115   ar
    24   117   116   ar
    25    53    54    2
    26    53    52    1
    27    55    52    1
    28    55    56    1
    29    81    79    1
    30   115   113   ar
    31    51    52    1
    32    51    43   am
    33    80    79    1
    34    56    57    1
    35    79    76    1
    36    42    43    1
    37    42    45    1
    38   116   114   ar
    39    43    44    2
    40   122   121    2
    41   113   112   ar
    42    45    46    1
    43   121   120    1
    44    25    22    1
    45    16    15    2
    46    76    75    1
    47    76    77    1
    48    57    59   ar
    49    57    58   ar
    50   114   112   ar
    51   112   111    1
    52    75    72   am
    53    22    21    1
    54    22    23    1
    55   127   126    1
    56    15    21   am
    57    15    14    1
    58    46    48   ar
    59    46    47   ar
    60   120   119    1
    61   120   123    1
    62    17    14    1
    63    17    18    1
    64    77    78    2
    65   119   109   am
    66    19    18    1
    67   124   123    1
    68   124   125    1
    69    48    50   ar
    70    23    24    2
    71    14    13    1
    72    20    18    1
    73    72    71    1
    74    72    73    2
    75   111   108    1
    76    47    49   ar
    77   126   125    1
    78   109   108    1
    79   109   110    2
    80   108   107    1
    81    71    70    1
    82    71    74    1
    83    50    49   ar
    84    13     7   am
    85     8     7    2
    86   103   102    2
    87   107   102   am
    88     7     6    1
    89    85    84    2
    90   102   101    1
    91    82    83    1
    92    96    95    2
    93    11     9    1
    94    84    83    1
    95    84    93   am
    96    86    83    1
    97    86    87    1
    98     6     9    1
    99     6     5    1
   100     4     3    2
   101    95   100   am
   102    95    94    1
   103   101   100    1
   104   101   104    1
   105     9    10    1
   106     1     2    1
   107    94    93    1
   108    94    97    1
   109    69    67   ar
   110    69    68   ar
   111     3     5   am
   112     3     2    1
   113    67    65   ar
   114    93    99    1
   115   106   104    1
   116    89    87   ar
   117    89    91   ar
   118   104   105    1
   119    87    88   ar
   120    60    61    1
   121    61    62    1
   122    61    64    1
   123    68    66   ar
   124    10    12    1
   125    97    98    1
   126    65    64    1
   127    65    66   ar
   128    99    98    2
   129    62    63    2
   130    91    92   ar
   131    88    90   ar
   132    92    90   ar
