@<TRIPOS>MOLECULE
tmp/5n5lA00.pdb
 217 206 0 0 0
SMALL
GASTEIGER

@<TRIPOS>ATOM
      1  N       -177.3350   82.5330    0.4030 N.3    16  GLY16      -0.1225
      2  CA      -176.4490   82.0790   -0.6560 C.3    16  GLY16       0.1811
      3  C       -177.0140   82.2810   -2.0460 C.2    16  GLY16       0.2280
      4  O       -176.2470   82.3910   -3.0080 O.2    16  GLY16      -0.2866
      5  N       -169.8710   86.8380   -6.6590 N.3    41  ARG41      -0.1245
      6  CA      -170.1930   85.5650   -6.0280 C.3    41  ARG41       0.1563
      7  C       -170.5090   84.4610   -7.0260 C.2    41  ARG41       0.2260
      8  O       -170.6970   83.3100   -6.6210 O.2    41  ARG41      -0.2867
      9  CB      -171.3650   85.7380   -5.0630 C.3    41  ARG41       0.0307
     10  CG      -171.0590   86.6900   -3.9300 C.3    41  ARG41       0.0489
     11  CD      -172.1170   86.6360   -2.8480 C.3    41  ARG41       0.2205
     12  NE      -172.2090   85.3150   -2.2330 N.pl3  41  ARG41      -0.0865
     13  CZ      -173.2960   84.5490   -2.2620 C.cat  41  ARG41       0.5346
     14  NH1     -173.2850   83.3600   -1.6720 N.pl3  41  ARG41       0.1354
     15  NH2     -174.3960   84.9740   -2.8710 N.pl3  41  ARG41       0.1354
     16  N       -192.8590   78.3900    1.7330 N.3    95  ASP95      -0.1239
     17  CA      -191.8690   77.3920    1.3720 C.3    95  ASP95       0.1674
     18  C       -192.0700   76.1530    2.2470 C.2    95  ASP95       0.2266
     19  O       -192.6810   76.2100    3.3210 O.2    95  ASP95      -0.2867
     20  CB      -190.4350   77.9540    1.4670 C.3    95  ASP95       0.1410
     21  CG      -189.9300   78.1150    2.9160 C.2    95  ASP95       0.3668
     22  OD1     -189.9090   77.1370    3.6870 O.co2  95  ASP95      -0.2456
     23  OD2     -189.5250   79.2330    3.2770 O.co2  95  ASP95      -0.2456
     24  N       -190.0080   74.3120    3.9230 N.3    97  PHE97      -0.1227
     25  CA      -189.3630   74.2770    5.2380 C.3    97  PHE97       0.1736
     26  C       -190.2740   74.8800    6.3050 C.2    97  PHE97       0.2595
     27  O       -190.5080   74.2710    7.3530 O.2    97  PHE97      -0.2718
     28  CB      -188.0170   75.0070    5.2210 C.3    97  PHE97       0.0547
     29  CG      -187.3460   75.0370    6.5820 C.ar   97  PHE97      -0.0202
     30  CD1     -186.4200   74.0630    6.9310 C.ar   97  PHE97      -0.0042
     31  CD2     -187.6820   76.0110    7.5260 C.ar   97  PHE97      -0.0042
     32  CE1     -185.8170   74.0640    8.1840 C.ar   97  PHE97      -0.0003
     33  CE2     -187.0890   76.0190    8.7880 C.ar   97  PHE97      -0.0003
     34  CZ      -186.1560   75.0420    9.1190 C.ar   97  PHE97      -0.0000
     35  N       -190.7790   76.0930    6.0630 N.am   98  ASP98      -0.1974
     36  CA      -191.6600   76.7290    7.0440 C.3    98  ASP98       0.1709
     37  C       -192.9480   75.9350    7.2260 C.2    98  ASP98       0.2293
     38  O       -193.4980   75.8750    8.3320 O.2    98  ASP98      -0.2864
     39  CB      -191.9900   78.1630    6.6160 C.3    98  ASP98       0.1436
     40  CG      -190.8360   79.1320    6.8380 C.2    98  ASP98       0.3671
     41  OD1     -189.9010   78.8310    7.6170 O.co2  98  ASP98      -0.2456
     42  OD2     -190.8720   80.2080    6.2230 O.co2  98  ASP98      -0.2456
     43  N       -193.3990   72.6540    7.0550 N.3   100  ILE100     -0.1231
     44  CA      -193.1420   71.4950    7.9070 C.3   100  ILE100      0.1692
     45  C       -192.8540   71.9320    9.3410 C.2   100  ILE100      0.2592
     46  O       -193.2770   71.2740   10.3020 O.2   100  ILE100     -0.2718
     47  CB      -191.9930   70.6550    7.3070 C.3   100  ILE100      0.0266
     48  CG1     -192.4800   69.9100    6.0550 C.3   100  ILE100      0.0019
     49  CG2     -191.4210   69.6820    8.3460 C.3   100  ILE100      0.0020
     50  CD1     -191.3160   69.3430    5.1820 C.3   100  ILE100      0.0001
     51  N       -192.1570   73.0600    9.5170 N.am  101  THR101     -0.1953
     52  CA      -191.9820   73.5990   10.8680 C.3   101  THR101      0.1897
     53  C       -193.3290   73.8530   11.5350 C.2   101  THR101      0.2313
     54  O       -193.5480   73.4680   12.6870 O.2   101  THR101     -0.2863
     55  CB      -191.1580   74.8850   10.8280 C.3   101  THR101      0.1794
     56  OG1     -189.8460   74.5940   10.3350 O.3   101  THR101     -0.2208
     57  CG2     -191.0570   75.5180   12.2280 C.3   101  THR101      0.0378
     58  N       -179.3960   71.0400   -5.2150 N.3   134  ASP134     -0.1239
     59  CA      -179.7110   71.5940   -3.8980 C.3   134  ASP134      0.1674
     60  C       -181.1840   71.3560   -3.5730 C.2   134  ASP134      0.2266
     61  O       -181.8820   72.2420   -3.0650 O.2   134  ASP134     -0.2867
     62  CB      -179.3380   73.0820   -3.8120 C.3   134  ASP134      0.1410
     63  CG      -179.2380   73.6000   -2.3600 C.2   134  ASP134      0.3668
     64  OD1     -179.2990   74.8360   -2.1660 O.co2 134  ASP134     -0.2456
     65  OD2     -179.0910   72.7820   -1.4170 O.co2 134  ASP134     -0.2456
     66  N       -184.0750   70.5400   -1.4320 N.3   136  LYS136     -0.1231
     67  CA      -184.3530   70.5520    0.0050 C.3   136  LYS136      0.1693
     68  C       -185.6790   71.2740    0.2240 C.2   136  LYS136      0.2592
     69  O       -186.1680   71.9770   -0.6640 O.2   136  LYS136     -0.2718
     70  CB      -183.2180   71.2220    0.7990 C.3   136  LYS136      0.0285
     71  CG      -182.8650   72.6610    0.3940 C.3   136  LYS136      0.0035
     72  CD      -181.8640   73.2620    1.4220 C.3   136  LYS136      0.0206
     73  CE      -181.3780   74.6630    1.0290 C.3   136  LYS136      0.1093
     74  NZ      -180.5080   75.2410    2.1250 N.3   136  LYS136     -0.1314
     75  N       -186.2540   71.1160    1.4290 N.am  137  ASP137     -0.1960
     76  CA      -187.5530   71.7410    1.6690 C.3   137  ASP137      0.1840
     77  C       -187.4790   73.2600    1.5140 C.2   137  ASP137      0.2622
     78  O       -188.4240   73.8730    0.9990 O.2   137  ASP137     -0.2715
     79  CB      -188.1300   71.3430    3.0490 C.3   137  ASP137      0.1450
     80  CG      -187.1570   71.5650    4.2310 C.2   137  ASP137      0.3671
     81  OD1     -186.0570   72.1180    4.0740 O.co2 137  ASP137     -0.2456
     82  OD2     -187.5220   71.1560    5.3510 O.co2 137  ASP137     -0.2456
     83  N       -186.3470   73.8720    1.8950 N.am  138  GLU138     -0.1963
     84  CA      -186.1810   75.3200    1.7620 C.3   138  GLU138      0.1733
     85  C       -186.2790   75.7840    0.3170 C.2   138  GLU138      0.2616
     86  O       -186.6170   76.9470    0.0570 O.2   138  GLU138     -0.2715
     87  CB      -184.8260   75.7640    2.3040 C.3   138  GLU138      0.0429
     88  CG      -184.5330   75.4350    3.7620 C.3   138  GLU138      0.1163
     89  CD      -183.2070   76.0180    4.1660 C.2   138  GLU138      0.3649
     90  OE1     -182.2680   75.2380    4.4030 O.co2 138  GLU138     -0.2457
     91  OE2     -183.0990   77.2680    4.1910 O.co2 138  GLU138     -0.2457
     92  N       -185.9420   74.9190   -0.6320 N.am  139  ASN139     -0.1972
     93  CA      -185.9500   75.2940   -2.0350 C.3   139  ASN139      0.1688
     94  C       -187.1890   74.7930   -2.7680 C.2   139  ASN139      0.2292
     95  O       -187.1540   74.6280   -3.9900 O.2   139  ASN139     -0.2864
     96  CB      -184.6630   74.8080   -2.7020 C.3   139  ASN139      0.1181
     97  CG      -183.4740   75.6790   -2.3420 C.2   139  ASN139      0.2629
     98  OD1     -183.6510   76.8440   -1.9760 O.2   139  ASN139     -0.2716
     99  ND2     -182.2680   75.1230   -2.4180 N.am  139  ASN139     -0.0877
    100  N       -179.0530   78.0960   -8.2330 N.3   155  GLY155     -0.1210
    101  CA      -177.7250   78.6950   -8.2190 C.3   155  GLY155      0.1956
    102  C       -176.5980   77.7480   -7.8480 C.2   155  GLY155      0.2612
    103  O       -175.4300   78.0850   -8.0550 O.2   155  GLY155     -0.2717
    104  N       -176.9130   76.5830   -7.2920 N.am  156  SER156     -0.1952
    105  CA      -175.9070   75.5520   -7.0700 C.3   156  SER156      0.1924
    106  C       -175.9190   74.4790   -8.1480 C.2   156  SER156      0.2314
    107  O       -175.1600   73.5130   -8.0420 O.2   156  SER156     -0.2863
    108  CB      -176.1050   74.8950   -5.6960 C.3   156  SER156      0.2116
    109  OG      -176.0930   75.8570   -4.6600 O.3   156  SER156     -0.2180
    110  N       -171.5900   72.8410   -4.1180 N.3   169  ASP169     -0.1225
    111  CA      -171.9030   73.9680   -3.2470 C.3   169  ASP169      0.1805
    112  C       -173.3500   73.9300   -2.7570 C.2   169  ASP169      0.2598
    113  O       -173.8600   74.9480   -2.2870 O.2   169  ASP169     -0.2718
    114  CB      -171.6360   75.3050   -3.9530 C.3   169  ASP169      0.1424
    115  CG      -170.1600   75.5850   -4.1540 C.2   169  ASP169      0.3668
    116  OD1     -169.3130   74.6720   -3.9600 O.co2 169  ASP169     -0.2456
    117  OD2     -169.8590   76.7440   -4.5040 O.co2 169  ASP169     -0.2456
    118  N       -174.0280   72.7870   -2.8620 N.am  170  GLY170     -0.1942
    119  CA      -175.3700   72.6400   -2.3260 C.3   170  GLY170      0.2014
    120  C       -175.3390   72.5050   -0.8110 C.2   170  GLY170      0.2640
    121  O       -174.3660   72.8710   -0.1540 O.2   170  GLY170     -0.2714
    122  N       -176.4090   71.9460   -0.2530 N.am  171  THR171     -0.1936
    123  CA      -176.5630   71.8510    1.2000 C.3   171  THR171      0.2028
    124  C       -175.9710   70.5400    1.7070 C.2   171  THR171      0.2642
    125  O       -176.4140   69.4570    1.3070 O.2   171  THR171     -0.2714
    126  CB      -178.0320   71.9580    1.6030 C.3   171  THR171      0.1808
    127  OG1     -178.5580   73.2140    1.1560 O.3   171  THR171     -0.2208
    128  CG2     -178.1810   71.8590    3.1440 C.3   171  THR171      0.0379
    129  N       -175.0150   70.6420    2.6380 N.am  172  ARG172     -0.1963
    130  CA      -174.2240   69.4740    3.0240 C.3   172  ARG172      0.1729
    131  C       -175.0790   68.3810    3.6660 C.2   172  ARG172      0.2616
    132  O       -174.8370   67.1900    3.4340 O.2   172  ARG172     -0.2715
    133  CB      -173.0960   69.8860    3.9730 C.3   172  ARG172      0.0348
    134  CG      -172.0820   68.7720    4.2300 C.3   172  ARG172      0.0492
    135  CD      -170.8360   69.3010    4.9460 C.3   172  ARG172      0.2205
    136  NE      -169.8760   68.2400    5.2290 N.pl3 172  ARG172     -0.0865
    137  CZ      -168.8540   67.9210    4.4450 C.cat 172  ARG172      0.5346
    138  NH1     -168.6590   68.5660    3.3050 N.pl3 172  ARG172      0.1354
    139  NH2     -168.0320   66.9440    4.7950 N.pl3 172  ARG172      0.1354
    140  N       -176.0700   68.7530    4.4890 N.am  173  VAL173     -0.1963
    141  CA      -176.8820   67.7320    5.1600 C.3   173  VAL173      0.1727
    142  C       -177.8420   67.0210    4.2080 C.2   173  VAL173      0.2616
    143  O       -178.4420   66.0110    4.6000 O.2   173  VAL173     -0.2715
    144  CB      -177.6660   68.3000    6.3710 C.3   173  VAL173      0.0290
    145  CG1     -176.7040   68.6170    7.5660 C.3   173  VAL173      0.0023
    146  CG2     -178.5170   69.5240    5.9770 C.3   173  VAL173      0.0023
    147  N       -177.9930   67.4970    2.9660 N.am  174  TYR174     -0.1974
    148  CA      -178.6870   66.7420    1.9260 C.3   174  TYR174      0.1639
    149  C       -177.7290   66.0820    0.9450 C.2   174  TYR174      0.2290
    150  O       -178.1830   65.4630   -0.0240 O.2   174  TYR174     -0.2864
    151  CB      -179.6570   67.6470    1.1360 C.3   174  TYR174      0.0560
    152  CG      -180.9450   68.0440    1.8580 C.ar  174  TYR174     -0.0198
    153  CD1     -180.9400   69.0180    2.8670 C.ar  174  TYR174     -0.0009
    154  CD2     -182.1730   67.4980    1.4790 C.ar  174  TYR174     -0.0009
    155  CE1     -182.1280   69.4030    3.5100 C.ar  174  TYR174      0.0417
    156  CE2     -183.3610   67.8760    2.1190 C.ar  174  TYR174      0.0417
    157  CZ      -183.3310   68.8350    3.1250 C.ar  174  TYR174      0.1957
    158  OH      -184.5180   69.2140    3.7290 O.3   174  TYR174     -0.2866
    159  N       -187.7050   63.9710    5.8990 N.3   201  ASP201     -0.1239
    160  CA      -188.0590   65.2950    6.4000 C.3   201  ASP201      0.1674
    161  C       -189.5700   65.4980    6.4240 C.2   201  ASP201      0.2266
    162  O       -190.1360   65.9310    7.4350 O.2   201  ASP201     -0.2867
    163  CB      -187.3580   66.3390    5.5120 C.3   201  ASP201      0.1410
    164  CG      -187.5800   67.7590    5.9570 C.2   201  ASP201      0.3668
    165  OD1     -187.4640   68.0590    7.1690 O.co2 201  ASP201     -0.2456
    166  OD2     -187.8390   68.6010    5.0610 O.co2 201  ASP201     -0.2456
    167  N       -190.8540   65.2200   10.1510 N.3   205  GLY205     -0.1210
    168  CA      -190.8440   66.5760   10.6570 C.3   205  GLY205      0.1956
    169  C       -189.4890   67.2530   10.6810 C.2   205  GLY205      0.2612
    170  O       -189.4280   68.4640   10.9430 O.2   205  GLY205     -0.2717
    171  N       -188.4050   66.5120   10.4420 N.am  206  ASP206     -0.1959
    172  CA      -187.0780   67.0900   10.2800 C.3   206  ASP206      0.1840
    173  C       -186.1970   66.0610    9.5840 C.2   206  ASP206      0.2621
    174  O       -186.5440   64.8790    9.4900 O.2   206  ASP206     -0.2715
    175  CB      -186.4710   67.5320   11.6210 C.3   206  ASP206      0.1450
    176  CG      -185.3560   68.5600   11.4550 C.2   206  ASP206      0.3671
    177  OD1     -185.1480   69.0770   10.3330 O.co2 206  ASP206     -0.2456
    178  OD2     -184.6840   68.8650   12.4580 O.co2 206  ASP206     -0.2456
    179  N       -185.0680   66.5340    9.0690 N.am  207  ILE207     -0.1977
    180  CA      -184.1400   65.6920    8.3180 C.3   207  ILE207      0.1596
    181  C       -183.5120   64.6660    9.2580 C.2   207  ILE207      0.2287
    182  O       -183.5000   64.8680   10.4870 O.2   207  ILE207     -0.2864
    183  CB      -183.0600   66.5410    7.6290 C.3   207  ILE207      0.0276
    184  CG1     -182.2930   67.3660    8.6730 C.3   207  ILE207      0.0022
    185  CG2     -183.6830   67.4490    6.5820 C.3   207  ILE207      0.0022
    186  CD1     -181.1830   68.2090    8.0340 C.3   207  ILE207      0.0001
    187  N       -177.6160   65.3320   10.7570 N.3   210  GLU210     -0.1245
    188  CA      -176.9910   66.6410   10.8940 C.3   210  GLU210      0.1567
    189  C       -175.4770   66.6040   10.7460 C.2   210  GLU210      0.2260
    190  O       -174.8890   67.6250   10.3800 O.2   210  GLU210     -0.2867
    191  CB      -177.3340   67.2730   12.2600 C.3   210  GLU210      0.0388
    192  CG      -178.7910   67.7130   12.4470 C.3   210  GLU210      0.1160
    193  CD      -179.1820   68.9250   11.6110 C.2   210  GLU210      0.3649
    194  OE1     -180.3980   69.1130   11.3980 O.co2 210  GLU210     -0.2457
    195  OE2     -178.2900   69.6750   11.1480 O.co2 210  GLU210     -0.2457
    196  N       -182.9000   55.9540   11.6520 N.3   221  PHE221     -0.1241
    197  CA      -183.8090   55.7820   12.7780 C.3   221  PHE221      0.1605
    198  C       -185.0500   56.6220   12.5070 C.2   221  PHE221      0.2264
    199  O       -184.9370   57.8000   12.1510 O.2   221  PHE221     -0.2867
    200  CB      -183.1400   56.2080   14.0920 C.3   221  PHE221      0.0534
    201  CG      -184.1060   56.3620   15.2530 C.ar  221  PHE221     -0.0203
    202  CD1     -184.4580   55.2680   16.0300 C.ar  221  PHE221     -0.0042
    203  CD2     -184.6530   57.6030   15.5630 C.ar  221  PHE221     -0.0042
    204  CE1     -185.3430   55.4050   17.0950 C.ar  221  PHE221     -0.0003
    205  CE2     -185.5450   57.7490   16.6110 C.ar  221  PHE221     -0.0003
    206  CZ      -185.8900   56.6460   17.3810 C.ar  221  PHE221     -0.0000
    207  N       -188.1190   58.6060   13.8660 N.3   223  ARG223     -0.1245
    208  CA      -188.5260   59.3170   15.0710 C.3   223  ARG223      0.1563
    209  C       -190.0270   59.5620   15.1200 C.2   223  ARG223      0.2260
    210  O       -190.5290   60.0890   16.1130 O.2   223  ARG223     -0.2867
    211  CB      -187.7710   60.6570   15.1600 C.3   223  ARG223      0.0307
    212  CG      -188.1430   61.6730   14.0570 C.3   223  ARG223      0.0489
    213  CD      -187.1560   62.8490   14.0170 C.3   223  ARG223      0.2205
    214  NE      -185.8300   62.4240   13.5610 N.pl3 223  ARG223     -0.0865
    215  CZ      -184.7350   63.1810   13.5880 C.cat 223  ARG223      0.5346
    216  NH1     -184.7800   64.4280   14.0500 N.pl3 223  ARG223      0.1354
    217  NH2     -183.5860   62.6830   13.1530 N.pl3 223  ARG223      0.1354
@<TRIPOS>BOND
     1   100   101    1
     2   101   102    1
     3   106   107    2
     4   106   105    1
     5   103   102    2
     6   102   104   am
     7   104   105    1
     8   105   108    1
     9     7     8    2
    10     7     6    1
    11     5     6    1
    12     6     9    1
    13   108   109    1
    14    58    59    1
    15     9    10    1
    16   117   115   ar
    17   115   116   ar
    18   115   114    1
    19   110   111    1
    20    95    94    2
    21   114   111    1
    22    10    11    1
    23    59    62    1
    24    59    60    1
    25    62    63    1
    26    60    61    2
    27   111   112    1
    28     4     3    2
    29    15    13    1
    30   118   112   am
    31   118   119    1
    32    11    12    1
    33    94    93    1
    34   112   113    2
    35    96    97    1
    36    96    93    1
    37    99    97   am
    38    63    64   ar
    39    63    65   ar
    40    97    98    2
    41   119   120    1
    42    13    12    2
    43    13    14    1
    44     3     2    1
    45    93    92    1
    46    66    67    1
    47   120   122   am
    48   120   121    2
    49    69    68    2
    50     2     1    1
    51    92    85   am
    52   122   123    1
    53   150   149    2
    54    67    68    1
    55    67    70    1
    56    86    85    2
    57    68    75   am
    58    85    84    1
    59    71    70    1
    60    71    72    1
    61   149   148    1
    62    78    77    2
    63    73    72    1
    64    73    74    1
    65   151   152    1
    66   151   148    1
    67   127   126    1
    68   123   126    1
    69   123   124    1
    70   125   124    2
    71    17    20    1
    72    17    16    1
    73    17    18    1
    74    75    76    1
    75    20    21    1
    76   154   152   ar
    77   154   156   ar
    78    77    76    1
    79    77    83   am
    80   126   128    1
    81    76    79    1
    82   124   129   am
    83    84    83    1
    84    84    87    1
    85   152   153   ar
    86   148   147    1
    87   156   157   ar
    88    18    19    2
    89    87    88    1
    90   129   130    1
    91   153   155   ar
    92    21    23   ar
    93    21    22   ar
    94   147   142   am
    95   130   131    1
    96   130   133    1
    97    79    80    1
    98   157   155   ar
    99   157   158    1
   100   138   137    1
   101   132   131    2
   102   131   140   am
   103    88    89    1
   104    24    25    1
   105   133   134    1
   106    81    80   ar
   107    89    91   ar
   108    89    90   ar
   109   142   143    2
   110   142   141    1
   111   134   135    1
   112    80    82   ar
   113   137   139    1
   114   137   136    2
   115   140   141    1
   116   135   136    1
   117   166   164   ar
   118   141   144    1
   119    50    48    1
   120    28    25    1
   121    28    29    1
   122    25    26    1
   123   163   164    1
   124   163   160    1
   125   159   160    1
   126   164   165   ar
   127   146   144    1
   128    48    47    1
   129    35    26   am
   130    35    36    1
   131    42    40   ar
   132    26    27    2
   133   144   145    1
   134   160   161    1
   135   161   162    2
   136   185   183    1
   137    29    30   ar
   138    29    31   ar
   139    39    40    1
   140    39    36    1
   141    40    41   ar
   142    30    32   ar
   143    36    37    1
   144    43    44    1
   145    37    38    2
   146    47    44    1
   147    47    49    1
   148    31    33   ar
   149   183   180    1
   150   183   184    1
   151    44    45    1
   152   186   184    1
   153    32    34   ar
   154   180   179    1
   155   180   181    1
   156    33    34   ar
   157   179   173   am
   158   181   182    2
   159    45    51   am
   160    45    46    2
   161   174   173    2
   162    51    52    1
   163   173   172    1
   164   167   168    1
   165   172   171    1
   166   172   175    1
   167   177   176   ar
   168    56    55    1
   169   190   189    2
   170   171   169   am
   171   168   169    1
   172   169   170    2
   173   189   188    1
   174   187   188    1
   175    55    52    1
   176    55    57    1
   177    52    53    1
   178   188   191    1
   179   195   193   ar
   180   194   193   ar
   181   176   175    1
   182   176   178   ar
   183    53    54    2
   184   193   192    1
   185   196   197    1
   186   199   198    2
   187   191   192    1
   188   198   197    1
   189   197   200    1
   190   217   215    1
   191   214   215    2
   192   214   213    1
   193   215   216    1
   194   207   208    1
   195   213   212    1
   196   212   211    1
   197   200   201    1
   198   208   209    1
   199   208   211    1
   200   209   210    2
   201   201   203   ar
   202   201   202   ar
   203   203   205   ar
   204   202   204   ar
   205   205   206   ar
   206   204   206   ar
