@<TRIPOS>MOLECULE
tmp/5n5lA01.pdb
 118 110 0 0 0
SMALL
GASTEIGER

@<TRIPOS>ATOM
      1  N       -188.0090   89.5490    0.4410 N.3    12  LEU12      -0.1231
      2  CA      -188.5400   88.2520    0.8480 C.3    12  LEU12       0.1693
      3  C       -187.5120   87.4130    1.5880 C.2    12  LEU12       0.2592
      4  O       -187.8720   86.6620    2.5020 O.2    12  LEU12      -0.2718
      5  CB      -189.0350   87.4670   -0.3710 C.3    12  LEU12       0.0284
      6  CG      -190.2670   88.0360   -1.0620 C.3    12  LEU12       0.0019
      7  CD1     -190.5610   87.2960   -2.3560 C.3    12  LEU12       0.0001
      8  CD2     -191.4580   87.9630   -0.1150 C.3    12  LEU12       0.0001
      9  N       -186.2460   87.5290    1.2170 N.am   13  GLY13      -0.1957
     10  CA      -185.1970   86.7810    1.8830 C.3    13  GLY13       0.1869
     11  C       -183.8760   87.0620    1.2090 C.2    13  GLY13       0.2309
     12  O       -183.8100   87.6810    0.1400 O.2    13  GLY13      -0.2863
     13  N       -178.3370   82.3410   -2.1730 N.3    17  PHE17      -0.1241
     14  CA      -179.0020   82.5830   -3.4520 C.3    17  PHE17       0.1605
     15  C       -179.0340   84.0590   -3.8560 C.2    17  PHE17       0.2264
     16  O       -179.5140   84.3690   -4.9490 O.2    17  PHE17      -0.2867
     17  CB      -180.4370   82.0430   -3.3950 C.3    17  PHE17       0.0534
     18  CG      -181.2280   82.5480   -2.2140 C.ar   17  PHE17      -0.0203
     19  CD1     -181.8940   83.7670   -2.2760 C.ar   17  PHE17      -0.0042
     20  CD2     -181.2960   81.8120   -1.0390 C.ar   17  PHE17      -0.0042
     21  CE1     -182.6170   84.2390   -1.1900 C.ar   17  PHE17      -0.0003
     22  CE2     -182.0210   82.2840    0.0570 C.ar   17  PHE17      -0.0003
     23  CZ      -182.6830   83.4920   -0.0230 C.ar   17  PHE17      -0.0000
     24  N       -183.7070   88.5710   -2.5750 N.3    20  VAL20      -0.1245
     25  CA      -184.9390   88.3640   -3.3320 C.3    20  VAL20       0.1561
     26  C       -186.0270   89.2610   -2.7660 C.2    20  VAL20       0.2260
     27  O       -186.3240   89.2060   -1.5620 O.2    20  VAL20      -0.2867
     28  CB      -185.4060   86.8940   -3.3170 C.3    20  VAL20       0.0252
     29  CG1     -186.7060   86.7470   -4.1250 C.3    20  VAL20       0.0019
     30  CG2     -184.3180   85.9550   -3.8580 C.3    20  VAL20       0.0019
     31  N       -190.9850   87.7130   -8.3380 N.3    33  ALA33      -0.1245
     32  CA      -189.8950   87.7950   -7.3740 C.3    33  ALA33       0.1562
     33  C       -188.6680   88.3250   -8.1050 C.2    33  ALA33       0.2260
     34  O       -188.3530   87.8710   -9.2090 O.2    33  ALA33      -0.2867
     35  CB      -189.6060   86.4330   -6.7310 C.3    33  ALA33       0.0290
     36  N       -184.7650   88.7990   -8.0140 N.3    35  LYS35      -0.1245
     37  CA      -183.6050   88.1920   -7.3730 C.3    35  LYS35       0.1561
     38  C       -182.3430   88.8650   -7.8810 C.2    35  LYS35       0.2260
     39  O       -182.1230   88.9520   -9.0970 O.2    35  LYS35      -0.2867
     40  CB      -183.5360   86.6850   -7.6450 C.3    35  LYS35       0.0271
     41  CG      -182.2020   86.0680   -7.2120 C.3    35  LYS35       0.0035
     42  CD      -182.0260   84.6190   -7.6620 C.3    35  LYS35       0.0206
     43  CE      -182.7420   83.6570   -6.7390 C.3    35  LYS35       0.1093
     44  NZ      -182.2650   82.2480   -6.9100 N.3    35  LYS35      -0.1314
     45  N       -189.8290   76.8880  -10.9420 N.3    71  ILE71      -0.1245
     46  CA      -190.0090   78.3300  -10.9890 C.3    71  ILE71       0.1561
     47  C       -189.6550   78.8340  -12.3850 C.2    71  ILE71       0.2260
     48  O       -188.6940   78.3750  -13.0150 O.2    71  ILE71      -0.2867
     49  CB      -189.1560   79.0060   -9.8990 C.3    71  ILE71       0.0252
     50  CG1     -189.7280   80.3910   -9.5510 C.3    71  ILE71       0.0019
     51  CG2     -187.6440   79.0400  -10.2840 C.3    71  ILE71       0.0019
     52  CD1     -190.9550   80.2960   -8.6720 C.3    71  ILE71       0.0001
     53  N       -188.5580   86.2610  -11.6020 N.3    87  LEU87      -0.1231
     54  CA      -189.1670   84.9460  -11.4810 C.3    87  LEU87       0.1693
     55  C       -190.6570   85.1140  -11.2240 C.2    87  LEU87       0.2592
     56  O       -191.0820   86.0840  -10.5920 O.2    87  LEU87      -0.2718
     57  CB      -188.5110   84.1430  -10.3420 C.3    87  LEU87       0.0284
     58  CG      -186.9900   84.1010  -10.5240 C.3    87  LEU87       0.0019
     59  CD1     -186.2430   84.1640   -9.2110 C.3    87  LEU87       0.0001
     60  CD2     -186.5640   82.8910  -11.3660 C.3    87  LEU87       0.0001
     61  N       -191.4580   84.1810  -11.7300 N.am   88  GLU88      -0.1966
     62  CA      -192.8850   84.2440  -11.4460 C.3    88  GLU88       0.1733
     63  C       -193.1220   83.8750   -9.9870 C.2    88  GLU88       0.2616
     64  O       -192.4820   82.9720   -9.4490 O.2    88  GLU88      -0.2715
     65  CB      -193.6690   83.3210  -12.3820 C.3    88  GLU88       0.0429
     66  CG      -195.1760   83.5870  -12.3620 C.3    88  GLU88       0.1163
     67  CD      -195.8900   83.0810  -13.6020 C.2    88  GLU88       0.3649
     68  OE1     -195.2120   82.6620  -14.5640 O.co2  88  GLU88      -0.2457
     69  OE2     -197.1350   83.1050  -13.6150 O.co2  88  GLU88      -0.2457
     70  N       -194.0190   84.6050   -9.3250 N.am   89  ARG89      -0.1964
     71  CA      -194.2090   84.4340   -7.8870 C.3    89  ARG89       0.1714
     72  C       -195.5990   83.8890   -7.5950 C.2    89  ARG89       0.2458
     73  O       -196.5960   84.5590   -7.9000 O.2    89  ARG89      -0.2730
     74  CB      -193.9890   85.7560   -7.1450 C.3    89  ARG89       0.0347
     75  CG      -194.4630   85.7430   -5.6970 C.3    89  ARG89       0.0492
     76  CD      -193.9860   86.9760   -4.9260 C.3    89  ARG89       0.2205
     77  NE      -194.4890   88.2370   -5.4720 N.pl3  89  ARG89      -0.0865
     78  CZ      -195.6710   88.7700   -5.1680 C.cat  89  ARG89       0.5346
     79  NH1     -196.4890   88.1450   -4.3280 N.pl3  89  ARG89       0.1354
     80  NH2     -196.0400   89.9260   -5.7050 N.pl3  89  ARG89       0.1354
     81  N       -195.7130   82.6980   -7.0140 N.am   90  PRO90      -0.2727
     82  CA      -197.0280   82.2080   -6.5930 C.3    90  PRO90       0.1402
     83  C       -197.5380   83.0030   -5.4080 C.2    90  PRO90       0.2269
     84  O       -196.7680   83.4840   -4.5730 O.2    90  PRO90      -0.2865
     85  CB      -196.7590   80.7480   -6.1900 C.3    90  PRO90       0.0296
     86  CG      -195.3470   80.4470   -6.6300 C.3    90  PRO90       0.0237
     87  CD      -194.6340   81.7560   -6.6740 C.3    90  PRO90       0.0939
     88  N       -198.1860   81.8550   -1.0280 N.3    93  VAL93      -0.1245
     89  CA      -197.0910   80.8950   -1.1000 C.3    93  VAL93       0.1561
     90  C       -196.5050   80.7000    0.2950 C.2    93  VAL93       0.2260
     91  O       -196.5360   81.6060    1.1360 O.2    93  VAL93      -0.2867
     92  CB      -195.9990   81.3630   -2.0950 C.3    93  VAL93       0.0252
     93  CG1     -195.2910   82.6130   -1.5640 C.3    93  VAL93       0.0019
     94  CG2     -194.9960   80.2600   -2.3680 C.3    93  VAL93       0.0019
     95  N       -191.3390   75.7960   -3.0800 N.3   141  LEU141     -0.1245
     96  CA      -192.4490   76.6760   -2.7290 C.3   141  LEU141      0.1561
     97  C       -193.7690   75.9400   -2.9180 C.2   141  LEU141      0.2260
     98  O       -193.9340   75.1800   -3.8790 O.2   141  LEU141     -0.2867
     99  CB      -192.4430   77.9550   -3.5750 C.3   141  LEU141      0.0270
    100  CG      -191.2090   78.8620   -3.4840 C.3   141  LEU141      0.0019
    101  CD1     -191.4180   80.1610   -4.2900 C.3   141  LEU141      0.0001
    102  CD2     -190.8770   79.1720   -2.0210 C.3   141  LEU141      0.0001
    103  N       -187.1430   75.9670   -6.6230 N.3   152  ILE152     -0.1231
    104  CA      -186.4800   77.2650   -6.7770 C.3   152  ILE152      0.1692
    105  C       -184.9780   77.1180   -6.5360 C.2   152  ILE152      0.2592
    106  O       -184.4870   76.0630   -6.1440 O.2   152  ILE152     -0.2718
    107  CB      -187.0520   78.3430   -5.8250 C.3   152  ILE152      0.0266
    108  CG1     -186.8990   77.8850   -4.3640 C.3   152  ILE152      0.0019
    109  CG2     -188.5110   78.6680   -6.1830 C.3   152  ILE152      0.0020
    110  CD1     -187.2290   78.9560   -3.3200 C.3   152  ILE152      0.0001
    111  N       -184.2570   78.2220   -6.7730 N.am  153  ASP153     -0.1974
    112  CA      -182.8500   78.4010   -6.4060 C.3   153  ASP153      0.1709
    113  C       -181.9460   77.3680   -7.0900 C.2   153  ASP153      0.2293
    114  O       -181.4170   76.4370   -6.4720 O.2   153  ASP153     -0.2864
    115  CB      -182.6750   78.3680   -4.8780 C.3   153  ASP153      0.1436
    116  CG      -183.1980   79.6320   -4.2050 C.2   153  ASP153      0.3671
    117  OD1     -183.4000   80.6430   -4.9190 O.co2 153  ASP153     -0.2456
    118  OD2     -183.3930   79.6140   -2.9640 O.co2 153  ASP153     -0.2456
@<TRIPOS>BOND
     1    68    67   ar
     2    69    67   ar
     3    67    66    1
     4    48    47    2
     5    47    46    1
     6    65    66    1
     7    65    62    1
     8    61    62    1
     9    61    55   am
    10    53    54    1
    11    54    55    1
    12    54    57    1
    13    62    63    1
    14    60    58    1
    15    55    56    2
    16    46    45    1
    17    46    49    1
    18    58    57    1
    19    58    59    1
    20    51    49    1
    21    63    64    2
    22    63    70   am
    23    49    50    1
    24    50    52    1
    25    70    71    1
    26    34    33    2
    27    39    38    2
    28    31    32    1
    29    33    32    1
    30    36    37    1
    31    73    72    2
    32    71    72    1
    33    71    74    1
    34    38    37    1
    35    42    41    1
    36    42    43    1
    37    40    37    1
    38    40    41    1
    39    72    81   am
    40    32    35    1
    41    74    75    1
    42   113   114    2
    43   113   112    1
    44    81    87    1
    45    81    82    1
    46    44    43    1
    47   104   103    1
    48   104   105    1
    49   104   107    1
    50   111   105   am
    51   111   112    1
    52    87    86    1
    53    86    85    1
    54    82    85    1
    55    82    83    1
    56   105   106    2
    57   112   115    1
    58   109   107    1
    59   107   108    1
    60    80    78    1
    61    75    76    1
    62    77    78    2
    63    77    76    1
    64    83    84    2
    65    78    79    1
    66    16    15    2
    67   117   116   ar
    68   115   116    1
    69   108   110    1
    70   101   100    1
    71   116   118   ar
    72    29    28    1
    73    98    97    2
    74    30    28    1
    75    15    14    1
    76    99   100    1
    77    99    96    1
    78   100   102    1
    79    14    17    1
    80    14    13    1
    81    17    18    1
    82    25    28    1
    83    25    26    1
    84    25    24    1
    85    95    96    1
    86    97    96    1
    87    26    27    2
    88    94    92    1
    89     7     6    1
    90    19    18   ar
    91    19    21   ar
    92    18    20   ar
    93    92    93    1
    94    92    89    1
    95    21    23   ar
    96    89    88    1
    97    89    90    1
    98     6     5    1
    99     6     8    1
   100    20    22   ar
   101     5     2    1
   102    23    22   ar
   103    12    11    2
   104    90    91    2
   105     1     2    1
   106     2     3    1
   107    11    10    1
   108     9     3   am
   109     9    10    1
   110     3     4    2
