@<TRIPOS>MOLECULE
tmp/5n5mA01.pdb
 158 147 0 0 0
SMALL
GASTEIGER

@<TRIPOS>ATOM
      1  N        -91.2770   90.2850    0.4790 N.3    12  LEU12      -0.1231
      2  CA       -91.8180   88.9980    0.8920 C.3    12  LEU12       0.1693
      3  C        -90.7870   88.1460    1.6160 C.2    12  LEU12       0.2593
      4  O        -91.1520   87.3370    2.4770 O.2    12  LEU12      -0.2718
      5  CB       -92.3580   88.2380   -0.3240 C.3    12  LEU12       0.0284
      6  CG       -93.6360   88.8000   -0.9570 C.3    12  LEU12       0.0019
      7  CD1      -93.9930   88.0460   -2.2260 C.3    12  LEU12       0.0001
      8  CD2      -94.7910   88.7350    0.0400 C.3    12  LEU12       0.0001
      9  N        -89.5100   88.3170    1.2990 N.am   13  GLY13      -0.1942
     10  CA       -88.4550   87.5650    1.9450 C.3    13  GLY13       0.2014
     11  C        -87.1180   87.8460    1.2980 C.2    13  GLY13       0.2639
     12  O        -87.0650   88.4120    0.1970 O.2    13  GLY13      -0.2714
     13  N        -86.0320   87.4800    1.9780 N.am   14  SER14      -0.1949
     14  CA       -84.7010   87.6630    1.4260 C.3    14  SER14       0.1924
     15  C        -83.7680   86.6340    2.0370 C.2    14  SER14       0.2314
     16  O        -83.9650   86.1870    3.1690 O.2    14  SER14      -0.2863
     17  CB       -84.1480   89.0810    1.6590 C.3    14  SER14       0.2116
     18  OG       -83.5330   89.2160    2.9340 O.3    14  SER14      -0.2180
     19  N        -81.1770   83.4210   -1.8740 N.3    17  PHE17      -0.1241
     20  CA       -81.8480   83.5500   -3.1620 C.3    17  PHE17       0.1605
     21  C        -81.9460   84.9940   -3.6530 C.2    17  PHE17       0.2264
     22  O        -82.2970   85.2020   -4.8170 O.2    17  PHE17      -0.2867
     23  CB       -83.2570   82.9470   -3.0740 C.3    17  PHE17       0.0534
     24  CG       -84.0560   83.4390   -1.8870 C.ar   17  PHE17      -0.0203
     25  CD1      -84.9320   84.5120   -2.0150 C.ar   17  PHE17      -0.0042
     26  CD2      -83.9300   82.8270   -0.6440 C.ar   17  PHE17      -0.0042
     27  CE1      -85.6670   84.9680   -0.9180 C.ar   17  PHE17      -0.0003
     28  CE2      -84.6640   83.2790    0.4580 C.ar   17  PHE17      -0.0003
     29  CZ       -85.5340   84.3470    0.3180 C.ar   17  PHE17      -0.0000
     30  N        -86.9910   89.2990   -2.5550 N.3    20  VAL20      -0.1245
     31  CA       -88.2100   89.0350   -3.3150 C.3    20  VAL20       0.1561
     32  C        -89.3010   89.9630   -2.8060 C.2    20  VAL20       0.2260
     33  O        -89.6170   89.9550   -1.6070 O.2    20  VAL20      -0.2867
     34  CB       -88.6450   87.5650   -3.1860 C.3    20  VAL20       0.0252
     35  CG1      -90.0030   87.3330   -3.8530 C.3    20  VAL20       0.0019
     36  CG2      -87.5690   86.6350   -3.7460 C.3    20  VAL20       0.0019
     37  N        -94.2250   88.3320   -8.3780 N.3    33  ALA33      -0.1245
     38  CA       -93.1530   88.4140   -7.3980 C.3    33  ALA33       0.1562
     39  C        -91.9280   88.9570   -8.1160 C.2    33  ALA33       0.2260
     40  O        -91.6220   88.5360   -9.2380 O.2    33  ALA33      -0.2867
     41  CB       -92.8630   87.0470   -6.7630 C.3    33  ALA33       0.0290
     42  N        -87.9840   89.5930   -7.9840 N.3    35  LYS35      -0.1245
     43  CA       -86.8190   89.0180   -7.3240 C.3    35  LYS35       0.1561
     44  C        -85.5460   89.6950   -7.8140 C.2    35  LYS35       0.2260
     45  O        -85.2720   89.7190   -9.0210 O.2    35  LYS35      -0.2867
     46  CB       -86.7590   87.5130   -7.5720 C.3    35  LYS35       0.0271
     47  CG       -85.5290   86.8550   -7.0120 C.3    35  LYS35       0.0035
     48  CD       -85.7100   85.3480   -6.9860 C.3    35  LYS35       0.0206
     49  CE       -84.3930   84.6180   -7.0880 C.3    35  LYS35       0.1093
     50  NZ       -84.5280   83.1780   -6.7020 N.3    35  LYS35      -0.1314
     51  N        -93.1090   77.4970  -10.8650 N.3    72  ILE72      -0.1245
     52  CA       -93.2080   78.9520  -10.9520 C.3    72  ILE72       0.1561
     53  C        -92.7930   79.4190  -12.3440 C.2    72  ILE72       0.2260
     54  O        -91.7770   78.9790  -12.8950 O.2    72  ILE72      -0.2867
     55  CB       -92.3340   79.5980   -9.8660 C.3    72  ILE72       0.0252
     56  CG1      -92.8400   81.0050   -9.5240 C.3    72  ILE72       0.0019
     57  CG2      -90.7980   79.5300  -10.2490 C.3    72  ILE72       0.0019
     58  CD1      -94.1190   80.9750   -8.7150 C.3    72  ILE72       0.0001
     59  N        -91.7280   86.9820  -11.5730 N.3    88  LEU88      -0.1231
     60  CA       -92.2570   85.6430  -11.4020 C.3    88  LEU88       0.1693
     61  C        -93.7570   85.7130  -11.1500 C.2    88  LEU88       0.2592
     62  O        -94.2720   86.7110  -10.6370 O.2    88  LEU88      -0.2718
     63  CB       -91.5520   84.9250  -10.2330 C.3    88  LEU88       0.0284
     64  CG       -90.0330   84.8280  -10.4090 C.3    88  LEU88       0.0019
     65  CD1      -89.2930   84.7550   -9.0730 C.3    88  LEU88       0.0001
     66  CD2      -89.6760   83.6270  -11.2930 C.3    88  LEU88       0.0001
     67  N        -94.4540   84.6470  -11.5370 N.am   89  GLU89      -0.1966
     68  CA       -95.8370   84.4620  -11.1170 C.3    89  GLU89       0.1733
     69  C        -95.9510   84.5580   -9.6030 C.2    89  GLU89       0.2616
     70  O        -95.0320   84.1840   -8.8670 O.2    89  GLU89      -0.2715
     71  CB       -96.3520   83.0890  -11.5340 C.3    89  GLU89       0.0429
     72  CG       -96.7630   82.9350  -12.9580 C.3    89  GLU89       0.1163
     73  CD       -97.3750   81.5640  -13.1800 C.2    89  GLU89       0.3649
     74  OE1      -96.7580   80.5590  -12.7370 O.co2  89  GLU89      -0.2457
     75  OE2      -98.4760   81.4960  -13.7670 O.co2  89  GLU89      -0.2457
     76  N        -97.1040   85.0170   -9.1280 N.am   90  ARG90      -0.1964
     77  CA       -97.3950   84.9910   -7.6940 C.3    90  ARG90       0.1714
     78  C        -98.8020   84.4590   -7.4660 C.2    90  ARG90       0.2458
     79  O        -99.7890   85.1690   -7.7230 O.2    90  ARG90      -0.2730
     80  CB       -97.2260   86.3620   -7.0520 C.3    90  ARG90       0.0347
     81  CG       -97.6970   86.3840   -5.5940 C.3    90  ARG90       0.0492
     82  CD       -97.2000   87.6250   -4.8650 C.3    90  ARG90       0.2205
     83  NE       -97.6950   88.8620   -5.4700 N.pl3  90  ARG90      -0.0865
     84  CZ       -98.8690   89.4100   -5.1690 C.cat  90  ARG90       0.5346
     85  NH1      -99.6670   88.8170   -4.2840 N.pl3  90  ARG90       0.1354
     86  NH2      -99.2460   90.5400   -5.7500 N.pl3  90  ARG90       0.1354
     87  N        -98.9380   83.2190   -7.0160 N.am   91  PRO91      -0.2727
     88  CA      -100.2540   82.7380   -6.5910 C.3    91  PRO91       0.1402
     89  C       -100.7660   83.5520   -5.4160 C.2    91  PRO91       0.2269
     90  O       -100.0010   83.9860   -4.5500 O.2    91  PRO91      -0.2865
     91  CB      -100.0000   81.2760   -6.1990 C.3    91  PRO91       0.0296
     92  CG       -98.5160   81.1210   -6.1120 C.3    91  PRO91       0.0237
     93  CD       -97.9120   82.1610   -6.9940 C.3    91  PRO91       0.0939
     94  N       -101.5370   82.3860   -0.9630 N.3    94  VAL94      -0.1245
     95  CA      -100.4200   81.4550   -1.0190 C.3    94  VAL94       0.1561
     96  C        -99.8380   81.2740    0.3790 C.2    94  VAL94       0.2260
     97  O        -99.8630   82.1870    1.2080 O.2    94  VAL94      -0.2867
     98  CB       -99.3330   81.9500   -2.0100 C.3    94  VAL94       0.0252
     99  CG1      -98.5600   83.1240   -1.4200 C.3    94  VAL94       0.0019
    100  CG2      -98.3920   80.8360   -2.3930 C.3    94  VAL94       0.0019
    101  N        -96.2110   78.9190    1.7830 N.3    96  ASP96      -0.1239
    102  CA       -95.2040   77.9320    1.4300 C.3    96  ASP96       0.1674
    103  C        -95.4040   76.6720    2.2680 C.2    96  ASP96       0.2266
    104  O        -95.9900   76.6990    3.3600 O.2    96  ASP96      -0.2867
    105  CB       -93.7740   78.5040    1.5600 C.3    96  ASP96       0.1410
    106  CG       -93.2630   78.5970    3.0110 C.2    96  ASP96       0.3668
    107  OD1      -92.7110   79.6550    3.3590 O.co2  96  ASP96      -0.2456
    108  OD2      -93.3440   77.6260    3.7960 O.co2  96  ASP96      -0.2456
    109  N        -87.3490   70.9960   -1.4950 N.3   137  LYS137     -0.1245
    110  CA       -87.6320   71.0020   -0.0600 C.3   137  LYS137      0.1561
    111  C        -88.9410   71.7480    0.1520 C.2   137  LYS137      0.2260
    112  O        -89.4250   72.4370   -0.7540 O.2   137  LYS137     -0.2867
    113  CB       -86.4870   71.6430    0.7350 C.3   137  LYS137      0.0271
    114  CG       -86.1500   73.0930    0.3520 C.3   137  LYS137      0.0035
    115  CD       -85.0870   73.6380    1.3250 C.3   137  LYS137      0.0206
    116  CE       -84.6300   75.0640    0.9690 C.3   137  LYS137      0.1093
    117  NZ       -83.7660   75.5990    2.0730 N.3   137  LYS137     -0.1314
    118  N        -89.5710   74.3310    1.8540 N.3   139  GLU139     -0.1231
    119  CA       -89.3960   75.7760    1.7360 C.3   139  GLU139      0.1699
    120  C        -89.5290   76.2490    0.2960 C.2   139  GLU139      0.2592
    121  O        -89.8870   77.4060    0.0560 O.2   139  GLU139     -0.2718
    122  CB       -88.0250   76.1950    2.2600 C.3   139  GLU139      0.0402
    123  CG       -87.7360   75.8430    3.7090 C.3   139  GLU139      0.1161
    124  CD       -86.4050   76.4230    4.1350 C.2   139  GLU139      0.3649
    125  OE1      -85.4550   75.6400    4.3500 O.co2 139  GLU139     -0.2457
    126  OE2      -86.3150   77.6700    4.2210 O.co2 139  GLU139     -0.2457
    127  N        -89.2310   75.3880   -0.6780 N.am  140  ASN140     -0.1974
    128  CA       -89.2500   75.7900   -2.0800 C.3   140  ASN140      0.1688
    129  C        -90.4950   75.3060   -2.7960 C.2   140  ASN140      0.2292
    130  O        -90.4640   75.0620   -4.0100 O.2   140  ASN140     -0.2864
    131  CB       -87.9850   75.3070   -2.7810 C.3   140  ASN140      0.1181
    132  CG       -86.7650   76.0810   -2.3230 C.2   140  ASN140      0.2629
    133  OD1      -86.9060   77.2010   -1.8450 O.2   140  ASN140     -0.2716
    134  ND2      -85.5740   75.5020   -2.4650 N.am  140  ASN140     -0.0877
    135  N        -94.6680   76.2900   -3.0660 N.3   142  LEU142     -0.1245
    136  CA       -95.7780   77.1670   -2.7270 C.3   142  LEU142      0.1561
    137  C        -97.0870   76.4200   -2.9180 C.2   142  LEU142      0.2260
    138  O        -97.2140   75.6000   -3.8300 O.2   142  LEU142     -0.2867
    139  CB       -95.7670   78.4330   -3.5770 C.3   142  LEU142      0.0270
    140  CG       -94.5420   79.3250   -3.3860 C.3   142  LEU142      0.0019
    141  CD1      -94.6480   80.5810   -4.2620 C.3   142  LEU142      0.0001
    142  CD2      -94.3570   79.6970   -1.9060 C.3   142  LEU142      0.0001
    143  N        -90.4460   76.4540   -6.6140 N.3   153  ILE153     -0.1231
    144  CA       -89.7650   77.7330   -6.7770 C.3   153  ILE153      0.1692
    145  C        -88.2760   77.5530   -6.5370 C.2   153  ILE153      0.2592
    146  O        -87.8050   76.4910   -6.1210 O.2   153  ILE153     -0.2718
    147  CB       -90.3040   78.8330   -5.8320 C.3   153  ILE153      0.0266
    148  CG1      -90.0570   78.4190   -4.3750 C.3   153  ILE153      0.0019
    149  CG2      -91.7910   79.1180   -6.1080 C.3   153  ILE153      0.0020
    150  CD1      -90.3780   79.4740   -3.3510 C.3   153  ILE153      0.0001
    151  N        -87.5480   78.6420   -6.8000 N.am  154  ASP154     -0.1974
    152  CA       -86.1300   78.8230   -6.5140 C.3   154  ASP154      0.1709
    153  C        -85.2240   77.8170   -7.2190 C.2   154  ASP154      0.2293
    154  O        -84.7520   76.8440   -6.6120 O.2   154  ASP154     -0.2864
    155  CB       -85.8750   78.7880   -5.0000 C.3   154  ASP154      0.1436
    156  CG       -84.4650   79.2340   -4.6470 C.2   154  ASP154      0.3671
    157  OD1      -84.0710   79.0880   -3.4730 O.co2 154  ASP154     -0.2456
    158  OD2      -83.7390   79.7170   -5.5570 O.co2 154  ASP154     -0.2456
@<TRIPOS>BOND
     1    75    73   ar
     2    73    72    1
     3    73    74   ar
     4    72    71    1
     5    54    53    2
     6    53    52    1
     7    59    60    1
     8    67    61   am
     9    67    68    1
    10    71    68    1
    11    60    61    1
    12    60    63    1
    13    66    64    1
    14    61    62    2
    15    68    69    1
    16    52    51    1
    17    52    55    1
    18    64    63    1
    19    64    65    1
    20    57    55    1
    21    55    56    1
    22    69    76   am
    23    69    70    2
    24    56    58    1
    25    40    39    2
    26    76    77    1
    27    45    44    2
    28    37    38    1
    29    39    38    1
    30    42    43    1
    31    44    43    1
    32    79    78    2
    33    77    78    1
    34    77    80    1
    35    46    43    1
    36    46    47    1
    37    78    87   am
    38    38    41    1
    39   153   154    2
    40   153   152    1
    41    49    48    1
    42    49    50    1
    43    80    81    1
    44    87    93    1
    45    87    88    1
    46    47    48    1
    47    93    92    1
    48   151   145   am
    49   151   152    1
    50   144   143    1
    51   144   145    1
    52   144   147    1
    53    88    91    1
    54    88    89    1
    55   145   146    2
    56   152   155    1
    57    91    92    1
    58   149   147    1
    59   147   148    1
    60    86    84    1
    61    81    82    1
    62   158   156   ar
    63    83    84    2
    64    83    82    1
    65    89    90    2
    66    84    85    1
    67   155   156    1
    68    22    21    2
    69   156   157   ar
    70   148   150    1
    71   141   140    1
    72   130   129    2
    73    35    34    1
    74   138   137    2
    75    36    34    1
    76    21    20    1
    77   139   140    1
    78   139   136    1
    79   140   142    1
    80    31    34    1
    81    31    32    1
    82    31    30    1
    83    20    23    1
    84    20    19    1
    85    23    24    1
    86   135   136    1
    87   137   136    1
    88    32    33    2
    89   129   128    1
    90   131   132    1
    91   131   128    1
    92   134   132   am
    93   100    98    1
    94   132   133    2
    95     7     6    1
    96   128   127    1
    97    25    24   ar
    98    25    27   ar
    99    98    99    1
   100    98    95    1
   101    24    26   ar
   102   109   110    1
   103    95    94    1
   104    95    96    1
   105     6     5    1
   106     6     8    1
   107    27    29   ar
   108   112   111    2
   109   127   120   am
   110    26    28   ar
   111     5     2    1
   112   110   111    1
   113   110   113    1
   114   121   120    2
   115    12    11    2
   116   120   119    1
   117    29    28   ar
   118   114   113    1
   119   114   115    1
   120    96    97    2
   121     1     2    1
   122     2     3    1
   123   116   115    1
   124   116   117    1
   125    11    10    1
   126    11    13   am
   127     9     3   am
   128     9    10    1
   129    14    17    1
   130    14    13    1
   131    14    15    1
   132   102   105    1
   133   102   101    1
   134   102   103    1
   135   105   106    1
   136     3     4    2
   137    17    18    1
   138   119   118    1
   139   119   122    1
   140    15    16    2
   141   122   123    1
   142   103   104    2
   143   106   107   ar
   144   106   108   ar
   145   123   124    1
   146   124   126   ar
   147   124   125   ar
