@<TRIPOS>MOLECULE
tmp/5n5oA00.pdb
 185 184 0 0 0
SMALL
GASTEIGER

@<TRIPOS>ATOM
      1  N        -28.2470  -11.1780   -0.9710 N.3    25  THR25      -0.1203
      2  CA       -27.0890  -10.3720   -0.4710 C.3    25  THR25       0.1994
      3  C        -25.8030  -11.2240   -0.5120 C.2    25  THR25       0.2619
      4  O        -25.7530  -12.3000    0.0780 O.2    25  THR25      -0.2717
      5  CB       -27.3400   -9.8950    0.9920 C.3    25  THR25       0.1784
      6  OG1      -28.7070   -9.4870    1.1720 O.3    25  THR25      -0.2211
      7  CG2      -26.4370   -8.7120    1.3740 C.3    25  THR25       0.0376
      8  N        -24.8050  -10.8020   -1.2810 N.am   26  THR26      -0.1938
      9  CA       -23.4640  -11.3780   -1.1820 C.3    26  THR26       0.2028
     10  C        -22.4350  -10.3330   -0.6540 C.2    26  THR26       0.2642
     11  O        -22.4160   -9.1840   -1.1060 O.2    26  THR26      -0.2714
     12  CB       -23.0010  -11.9490   -2.5250 C.3    26  THR26       0.1808
     13  OG1      -23.8950  -13.0220   -2.9130 O.3    26  THR26      -0.2208
     14  CG2      -21.6270  -12.5370   -2.4050 C.3    26  THR26       0.0379
     15  N        -21.6180  -10.7710    0.3070 N.am   27  LEU27      -0.1977
     16  CA       -20.4640  -10.0260    0.8330 C.3    27  LEU27       0.1596
     17  C        -19.3220  -10.9720    1.2350 C.2    27  LEU27       0.2287
     18  O        -19.3680  -12.2020    0.9910 O.2    27  LEU27      -0.2864
     19  CB       -20.9170   -9.1580    1.9780 C.3    27  LEU27       0.0297
     20  CG       -21.8450   -9.6930    3.0580 C.3    27  LEU27       0.0022
     21  CD1      -21.2150  -10.7570    3.8880 C.3    27  LEU27       0.0001
     22  CD2      -22.2820   -8.5450    3.9580 C.3    27  LEU27       0.0001
     23  N        -25.4840   -7.9680    8.7900 N.3    41  HIS41      -0.1241
     24  CA       -26.4310   -7.5260    7.7750 C.3    41  HIS41       0.1621
     25  C        -26.5010   -8.2960    6.4480 C.2    41  HIS41       0.2264
     26  O        -27.2810   -7.9030    5.5760 O.2    41  HIS41      -0.2867
     27  CB       -26.3280   -6.0350    7.5100 C.3    41  HIS41       0.0745
     28  CG       -25.0990   -5.5910    6.7830 C.ar   41  HIS41       0.0817
     29  ND1      -24.0330   -5.0050    7.4440 N.ar   41  HIS41      -0.2268
     30  CD2      -24.8370   -5.4860    5.4600 C.ar   41  HIS41       0.1154
     31  CE1      -23.1610   -4.5790    6.5450 C.ar   41  HIS41       0.1986
     32  NE2      -23.6040   -4.8780    5.3330 N.ar   41  HIS41      -0.2212
     33  N        -33.6010   -2.9910    6.0760 N.3    49  MET49      -0.1245
     34  CA       -32.4230   -2.2390    6.5070 C.3    49  MET49       0.1570
     35  C        -32.6700   -0.9290    7.2310 C.2    49  MET49       0.2261
     36  O        -31.8070   -0.5000    8.0120 O.2    49  MET49      -0.2867
     37  CB       -31.4960   -2.0000    5.3240 C.3    49  MET49       0.0387
     38  CG       -30.7540   -3.2490    4.9330 C.3    49  MET49       0.0595
     39  SD       -29.4740   -3.5810    6.1480 S.3    49  MET49      -0.1393
     40  CE       -28.1820   -4.1120    5.0140 C.3    49  MET49       0.0692
     41  N        -13.6160    2.0510   -0.7140 N.3   140  PHE140     -0.1227
     42  CA       -14.5610    0.9140   -0.5720 C.3   140  PHE140      0.1736
     43  C        -15.7910    1.1430   -1.4490 C.2   140  PHE140      0.2595
     44  O        -16.4080    2.2260   -1.3710 O.2   140  PHE140     -0.2718
     45  CB       -15.0860    0.7710    0.8510 C.3   140  PHE140      0.0547
     46  CG       -14.1000    0.2430    1.8400 C.ar  140  PHE140     -0.0202
     47  CD1      -13.6440   -1.0390    1.7490 C.ar  140  PHE140     -0.0042
     48  CD2      -13.6780    1.0140    2.9390 C.ar  140  PHE140     -0.0042
     49  CE1      -12.7670   -1.5560    2.7110 C.ar  140  PHE140     -0.0003
     50  CE2      -12.8170    0.5110    3.8700 C.ar  140  PHE140     -0.0003
     51  CZ       -12.3780   -0.7810    3.7800 C.ar  140  PHE140     -0.0000
     52  N        -16.1400    0.1540   -2.2820 N.am  141  LEU141     -0.1966
     53  CA       -17.3170    0.2150   -3.1340 C.3   141  LEU141      0.1728
     54  C        -18.3360   -0.8440   -2.7290 C.2   141  LEU141      0.2616
     55  O        -18.0500   -1.6550   -1.8470 O.2   141  LEU141     -0.2715
     56  CB       -16.9320    0.0320   -4.6100 C.3   141  LEU141      0.0311
     57  CG       -15.8270    0.8810   -5.2540 C.3   141  LEU141      0.0022
     58  CD1      -15.3290    0.2710   -6.5800 C.3   141  LEU141      0.0001
     59  CD2      -16.3300    2.3040   -5.4330 C.3   141  LEU141      0.0001
     60  N        -19.5420   -0.8300   -3.3540 N.am  142  ASN142     -0.1958
     61  CA       -20.5040   -1.9730   -3.1840 C.3   142  ASN142      0.1819
     62  C        -19.8170   -3.3320   -3.3630 C.2   142  ASN142      0.2622
     63  O        -19.0520   -3.5460   -4.3010 O.2   142  ASN142     -0.2715
     64  CB       -21.6230   -1.9300   -4.1860 C.3   142  ASN142      0.1195
     65  CG       -22.5700   -0.7850   -3.9810 C.2   142  ASN142      0.2630
     66  OD1      -22.6030   -0.1310   -2.9390 O.2   142  ASN142     -0.2716
     67  ND2      -23.3730   -0.5320   -5.0240 N.am  142  ASN142     -0.0877
     68  N        -20.0570   -4.2300   -2.4300 N.am  143  GLY143     -0.1940
     69  CA       -19.3840   -5.4990   -2.4190 C.3   143  GLY143      0.2014
     70  C        -18.2490   -5.6120   -1.4260 C.2   143  GLY143      0.2640
     71  O        -17.8080   -6.7210   -1.1800 O.2   143  GLY143     -0.2714
     72  N        -17.7420   -4.4870   -0.9040 N.am  144  SER144     -0.1935
     73  CA       -16.5800   -4.5090    0.0020 C.3   144  SER144      0.2055
     74  C        -16.8550   -4.9340    1.4530 C.2   144  SER144      0.2643
     75  O        -15.9250   -5.2560    2.1860 O.2   144  SER144     -0.2714
     76  CB       -15.8910   -3.1430   -0.0000 C.3   144  SER144      0.2130
     77  OG       -16.7300   -2.0850    0.4600 O.3   144  SER144     -0.2179
     78  N        -18.1170   -4.9370    1.8820 N.am  145  CYS145     -0.1967
     79  CA       -18.4520   -5.3740    3.2510 C.3   145  CYS145      0.1712
     80  C        -17.8270   -6.7220    3.5860 C.2   145  CYS145      0.2296
     81  O        -17.6510   -7.5690    2.7060 O.2   145  CYS145     -0.2864
     82  CB       -19.9140   -5.3340    3.5380 C.3   145  CYS145      0.0983
     83  SG       -20.5010   -3.6460    3.7000 S.3   145  CYS145     -0.0798
     84  N        -15.1160   -4.3830    7.6570 N.3   163  HIS163     -0.1226
     85  CA       -15.8640   -3.3030    7.0610 C.3   163  HIS163      0.1752
     86  C        -17.3750   -3.4800    7.0060 C.2   163  HIS163      0.2596
     87  O        -17.8310   -4.5280    6.5870 O.2   163  HIS163     -0.2718
     88  CB       -15.3250   -3.0580    5.6530 C.3   163  HIS163      0.0759
     89  CG       -15.9280   -1.8310    5.0320 C.ar  163  HIS163      0.0818
     90  ND1      -15.9280   -0.6150    5.6700 N.ar  163  HIS163     -0.2268
     91  CD2      -16.6280   -1.6490    3.8870 C.ar  163  HIS163      0.1154
     92  CE1      -16.5880    0.2640    4.9480 C.ar  163  HIS163      0.1986
     93  NE2      -17.0340   -0.3360    3.8610 N.ar  163  HIS163     -0.2212
     94  N        -18.1550   -2.4160    7.3110 N.am  164  HIS164     -0.1961
     95  CA       -19.6170   -2.4670    7.3150 C.3   164  HIS164      0.1787
     96  C        -20.3240   -1.3530    6.5550 C.2   164  HIS164      0.2620
     97  O        -21.3790   -1.6370    5.9860 O.2   164  HIS164     -0.2715
     98  CB       -20.2610   -2.4400    8.7460 C.3   164  HIS164      0.0785
     99  CG       -20.0160   -3.6550    9.5580 C.ar  164  HIS164      0.0821
    100  ND1      -21.0460   -4.4500   10.0400 N.ar  164  HIS164     -0.2267
    101  CD2      -18.8650   -4.1950   10.0350 C.ar  164  HIS164      0.1154
    102  CE1      -20.5330   -5.4590   10.7360 C.ar  164  HIS164      0.1986
    103  NE2      -19.2160   -5.3250   10.7600 N.ar  164  HIS164     -0.2212
    104  N        -19.8370   -0.1170    6.6250 N.am  165  MET165     -0.1963
    105  CA       -20.5610    1.0340    6.0430 C.3   165  MET165      0.1736
    106  C        -19.7400    2.2490    5.6610 C.2   165  MET165      0.2616
    107  O        -18.5950    2.3940    6.0260 O.2   165  MET165     -0.2715
    108  CB       -21.6560    1.4840    6.9650 C.3   165  MET165      0.0427
    109  CG       -21.2260    1.9300    8.3380 C.3   165  MET165      0.0599
    110  SD       -22.6220    1.9780    9.5200 S.3   165  MET165     -0.1393
    111  CE       -23.5870    3.1850    8.5860 C.3   165  MET165      0.0692
    112  N        -20.3450    3.0480    4.8170 N.am  166  GLU166     -0.1963
    113  CA       -19.8180    4.2930    4.3700 C.3   166  GLU166      0.1733
    114  C        -20.7450    5.3950    4.8550 C.2   166  GLU166      0.2616
    115  O        -21.9530    5.2940    4.6900 O.2   166  GLU166     -0.2715
    116  CB       -19.8120    4.3030    2.8540 C.3   166  GLU166      0.0429
    117  CG       -19.1150    5.5210    2.3070 C.3   166  GLU166      0.1163
    118  CD       -18.8580    5.4230    0.8060 C.2   166  GLU166      0.3649
    119  OE1      -19.5900    6.0810    0.0950 O.co2 166  GLU166     -0.2457
    120  OE2      -17.9350    4.6970    0.3320 O.co2 166  GLU166     -0.2457
    121  N        -20.1700    6.4780    5.3650 N.am  167  LEU167     -0.1964
    122  CA       -20.9770    7.5750    5.8750 C.3   167  LEU167      0.1713
    123  C        -21.1680    8.6120    4.8010 C.2   167  LEU167      0.2458
    124  O        -20.4620    8.5580    3.7610 O.2   167  LEU167     -0.2730
    125  CB       -20.2840    8.1650    7.1030 C.3   167  LEU167      0.0310
    126  CG       -20.3710    7.5280    8.4670 C.3   167  LEU167      0.0022
    127  CD1      -21.5230    6.5720    8.5760 C.3   167  LEU167      0.0001
    128  CD2      -19.1090    6.8370    8.9060 C.3   167  LEU167      0.0001
    129  N        -22.1030    9.5830    5.0170 N.am  168  PRO168     -0.2727
    130  CA       -22.4220   10.5740    3.9870 C.3   168  PRO168      0.1402
    131  C        -21.2550   11.3960    3.4990 C.2   168  PRO168      0.2269
    132  O        -21.2100   11.7520    2.3050 O.2   168  PRO168     -0.2865
    133  CB       -23.4320   11.5060    4.6750 C.3   168  PRO168      0.0296
    134  CG       -24.0150   10.7390    5.7860 C.3   168  PRO168      0.0237
    135  CD       -22.9930    9.7130    6.1860 C.3   168  PRO168      0.0939
    136  N        -15.5040    5.7780    6.2440 N.3   172  HIS172     -0.1241
    137  CA       -15.9120    4.3790    6.4190 C.3   172  HIS172      0.1621
    138  C        -15.9160    3.9840    7.9030 C.2   172  HIS172      0.2264
    139  O        -15.1800    4.5690    8.6990 O.2   172  HIS172     -0.2867
    140  CB       -14.9550    3.5370    5.6420 C.3   172  HIS172      0.0745
    141  CG       -15.0300    3.8170    4.1820 C.ar  172  HIS172      0.0817
    142  ND1      -14.1040    4.6000    3.5410 N.ar  172  HIS172     -0.2268
    143  CD2      -16.0270    3.6150    3.3030 C.ar  172  HIS172      0.1154
    144  CE1      -14.4610    4.7390    2.2820 C.ar  172  HIS172      0.1986
    145  NE2      -15.6330    4.1620    2.1190 N.ar  172  HIS172     -0.2212
    146  N        -25.4670   -0.4920   12.6520 N.3   187  ASP187     -0.1225
    147  CA       -25.6950   -1.1200   11.3330 C.3   187  ASP187      0.1805
    148  C        -27.1450   -1.1240   10.9400 C.2   187  ASP187      0.2598
    149  O        -27.7900   -2.1800   10.8960 O.2   187  ASP187     -0.2718
    150  CB       -25.0710   -2.5300   11.2240 C.3   187  ASP187      0.1424
    151  CG       -25.4650   -3.4870   12.3460 C.2   187  ASP187      0.3668
    152  OD1      -26.0740   -3.0460   13.3480 O.co2 187  ASP187     -0.2456
    153  OD2      -25.0840   -4.6980   12.2250 O.co2 187  ASP187     -0.2456
    154  N        -27.6280    0.0740   10.6420 N.am  188  ARG188     -0.1966
    155  CA       -28.9420    0.3440   10.0750 C.3   188  ARG188      0.1729
    156  C        -28.7410    1.3090    8.9370 C.2   188  ARG188      0.2616
    157  O        -27.9050    2.1920    9.0320 O.2   188  ARG188     -0.2715
    158  CB       -29.8650    1.0140   11.1010 C.3   188  ARG188      0.0348
    159  CG       -30.0850    0.1480   12.3320 C.3   188  ARG188      0.0492
    160  CD       -31.3380    0.4660   13.1450 C.3   188  ARG188      0.2205
    161  NE       -31.0460    1.3000   14.3100 N.pl3 188  ARG188     -0.0865
    162  CZ       -30.5270    0.8800   15.4710 C.cat 188  ARG188      0.5346
    163  NH1      -30.2080   -0.3980   15.6770 N.pl3 188  ARG188      0.1354
    164  NH2      -30.3170    1.7630   16.4530 N.pl3 188  ARG188      0.1354
    165  N        -29.5170    1.1850    7.8720 N.am  189  GLN189     -0.1963
    166  CA       -29.4690    2.1590    6.7670 C.3   189  GLN189      0.1733
    167  C        -30.1490    3.5190    7.1230 C.2   189  GLN189      0.2617
    168  O        -31.0430    3.9570    6.4110 O.2   189  GLN189     -0.2715
    169  CB       -30.0880    1.5280    5.5240 C.3   189  GLN189      0.0408
    170  CG       -29.7900    2.2260    4.1980 C.3   189  GLN189      0.0908
    171  CD       -28.5950    1.6520    3.4600 C.2   189  GLN189      0.2608
    172  OE1      -27.8630    0.8200    3.9860 O.2   189  GLN189     -0.2717
    173  NE2      -28.3880    2.1160    2.2310 N.am  189  GLN189     -0.0878
    174  N        -29.7000    4.1730    8.2060 N.am  190  THR190     -0.1937
    175  CA       -30.2040    5.4820    8.6480 C.3   190  THR190      0.2028
    176  C        -29.1800    6.6320    8.3760 C.2   190  THR190      0.2642
    177  O        -28.1890    6.4570    7.6410 O.2   190  THR190     -0.2714
    178  CB       -30.5940    5.4580   10.1520 C.3   190  THR190      0.1808
    179  OG1      -29.4200    5.2830   10.9480 O.3   190  THR190     -0.2208
    180  CG2      -31.6080    4.3500   10.4580 C.3   190  THR190      0.0379
    181  N        -29.4860    7.8090    8.9320 N.am  191  ALA191     -0.1977
    182  CA       -28.6490    9.0050    8.8740 C.3   191  ALA191      0.1597
    183  C        -27.7120    9.0430   10.0800 C.2   191  ALA191      0.2287
    184  O        -28.1510    9.2190   11.2340 O.2   191  ALA191     -0.2864
    185  CB       -29.5330   10.2580    8.8730 C.3   191  ALA191      0.0319
@<TRIPOS>BOND
     1    58    57    1
     2    59    57    1
     3    57    56    1
     4    67    65   am
     5    56    53    1
     6    63    62    2
     7    64    65    1
     8    64    61    1
     9    65    66    2
    10    62    61    1
    11    62    68   am
    12    60    61    1
    13    60    54   am
    14    53    54    1
    15    53    52    1
    16    13    12    1
    17    54    55    2
    18    12    14    1
    19    12     9    1
    20    68    69    1
    21    69    70    1
    22    52    43   am
    23    43    44    2
    24    43    42    1
    25    70    71    2
    26    70    72   am
    27     8     9    1
    28     8     3   am
    29     9    10    1
    30    11    10    2
    31     1     2    1
    32    72    73    1
    33    41    42    1
    34    10    15   am
    35    42    45    1
    36     3     2    1
    37     3     4    2
    38     2     5    1
    39    76    73    1
    40    76    77    1
    41    73    74    1
    42   119   118   ar
    43    15    16    1
    44   120   118   ar
    45   118   117    1
    46    16    17    1
    47    16    19    1
    48    45    46    1
    49    18    17    2
    50     5     6    1
    51     5     7    1
    52    74    78   am
    53    74    75    2
    54    47    46   ar
    55    47    49   ar
    56    46    48   ar
    57    78    79    1
    58    19    20    1
    59   145   144   ar
    60   145   143   ar
    61   173   171   am
    62   144   142   ar
    63   132   131    2
    64   117   116    1
    65    81    80    2
    66    49    51   ar
    67   116   113    1
    68    48    50   ar
    69    20    21    1
    70    20    22    1
    71    79    82    1
    72    79    80    1
    73   143   141   ar
    74   171   172    2
    75   171   170    1
    76   131   130    1
    77    82    83    1
    78   142   141   ar
    79   124   123    2
    80    51    50   ar
    81    93    91   ar
    82    93    92   ar
    83    91    89   ar
    84   130   133    1
    85   130   129    1
    86   141   140    1
    87   170   169    1
    88   113   112    1
    89   113   114    1
    90   133   134    1
    91   115   114    2
    92   123   129   am
    93   123   122    1
    94   112   106   am
    95   114   121   am
    96    38    37    1
    97    38    39    1
    98    92    90   ar
    99    40    39    1
   100   129   135    1
   101    89    88    1
   102    89    90   ar
   103    37    34    1
   104    32    30   ar
   105    32    31   ar
   106   121   122    1
   107    30    28   ar
   108   169   166    1
   109    26    25    2
   110   140   137    1
   111    88    85    1
   112   106   107    2
   113   106   105    1
   114   134   135    1
   115   122   125    1
   116    97    96    2
   117   105   104    1
   118   105   108    1
   119    33    34    1
   120   136   137    1
   121   168   167    2
   122   137   138    1
   123    25    24    1
   124    34    35    1
   125    31    29   ar
   126    96   104   am
   127    96    95    1
   128    87    86    2
   129   166   167    1
   130   166   165    1
   131    28    29   ar
   132    28    27    1
   133   108   109    1
   134    86    85    1
   135    86    94   am
   136    85    84    1
   137   125   126    1
   138   167   174   am
   139    35    36    2
   140    94    95    1
   141    95    98    1
   142    27    24    1
   143   177   176    2
   144    24    23    1
   145   165   156   am
   146   138   139    2
   147   174   175    1
   148   109   110    1
   149   176   175    1
   150   176   181   am
   151   126   127    1
   152   126   128    1
   153   111   110    1
   154   175   178    1
   155    98    99    1
   156   185   182    1
   157   182   181    1
   158   182   183    1
   159   156   157    2
   160   156   155    1
   161    99   101   ar
   162    99   100   ar
   163   101   103   ar
   164   100   102   ar
   165   155   154    1
   166   155   158    1
   167   183   184    2
   168   178   180    1
   169   178   179    1
   170   154   148   am
   171   102   103   ar
   172   149   148    2
   173   148   147    1
   174   158   159    1
   175   150   147    1
   176   150   151    1
   177   147   146    1
   178   153   151   ar
   179   159   160    1
   180   151   152   ar
   181   160   161    1
   182   161   162    2
   183   162   163    1
   184   162   164    1
