@<TRIPOS>MOLECULE
tmp/5n5rA00.pdb
 47 44 0 0 0
SMALL
GASTEIGER

@<TRIPOS>ATOM
      1  N        -24.6400  -27.0620    3.9680 N.3   118  PHE118     -0.1241
      2  CA       -24.6350  -25.6450    3.6130 C.3   118  PHE118      0.1605
      3  C        -25.8160  -24.9140    4.2430 C.2   118  PHE118      0.2264
      4  O        -25.6690  -23.8140    4.7920 O.2   118  PHE118     -0.2867
      5  CB       -24.6570  -25.5170    2.0840 C.3   118  PHE118      0.0534
      6  CG       -24.4210  -24.1340    1.5870 C.ar  118  PHE118     -0.0203
      7  CD1      -23.1540  -23.7210    1.2380 C.ar  118  PHE118     -0.0042
      8  CD2      -25.4710  -23.2570    1.4490 C.ar  118  PHE118     -0.0042
      9  CE1      -22.9330  -22.4380    0.7730 C.ar  118  PHE118     -0.0003
     10  CE2      -25.2570  -21.9650    0.9770 C.ar  118  PHE118     -0.0003
     11  CZ       -23.9950  -21.5650    0.6510 C.ar  118  PHE118     -0.0000
     12  N        -25.6460  -24.8090    8.1710 N.3   121  LYS121     -0.1245
     13  CA       -24.6840  -23.7680    8.5150 C.3   121  LYS121      0.1561
     14  C        -25.3100  -22.3800    8.3860 C.2   121  LYS121      0.2260
     15  O        -25.1470  -21.5230    9.2670 O.2   121  LYS121     -0.2867
     16  CB       -23.4410  -23.8770    7.6260 C.3   121  LYS121      0.0271
     17  CG       -22.3950  -22.7880    7.8460 C.3   121  LYS121      0.0035
     18  CD       -21.3220  -22.8110    6.7420 C.3   121  LYS121      0.0206
     19  CE       -20.5500  -21.4990    6.6840 C.3   121  LYS121      0.1093
     20  NZ       -21.4300  -20.3880    6.2670 N.3   121  LYS121     -0.1314
     21  N        -14.4690  -27.4620    1.6740 N.3   166  PRO166     -0.2102
     22  CA       -14.6270  -26.0450    2.0710 C.3   166  PRO166      0.1504
     23  C        -15.8970  -25.7350    2.8410 C.2   166  PRO166      0.2575
     24  O        -15.8900  -24.8300    3.6870 O.2   166  PRO166     -0.2718
     25  CB       -14.6010  -25.3070    0.7360 C.3   166  PRO166      0.0282
     26  CG       -13.7560  -26.2070   -0.1460 C.3   166  PRO166      0.0208
     27  CD       -14.1570  -27.5850    0.2370 C.3   166  PRO166      0.0893
     28  N        -16.9870  -26.4470    2.5710 N.am  167  ILE167     -0.1980
     29  CA       -18.2100  -26.2400    3.3390 C.3   167  ILE167      0.1595
     30  C        -17.9960  -26.6900    4.7780 C.2   167  ILE167      0.2287
     31  O        -18.3630  -25.9900    5.7290 O.2   167  ILE167     -0.2864
     32  CB       -19.3870  -26.9850    2.6810 C.3   167  ILE167      0.0276
     33  CG1      -19.6430  -26.4850    1.2460 C.3   167  ILE167      0.0022
     34  CG2      -20.6310  -26.8190    3.5220 C.3   167  ILE167      0.0022
     35  CD1      -20.5020  -27.4340    0.4410 C.3   167  ILE167      0.0001
     36  N        -15.7090  -24.0760    6.4430 N.3   170  GLY170     -0.1225
     37  CA       -16.3880  -22.8230    6.7490 C.3   170  GLY170      0.1811
     38  C        -17.3900  -22.9820    7.8670 C.2   170  GLY170      0.2280
     39  O        -17.5960  -22.0610    8.6580 O.2   170  GLY170     -0.2866
     40  N         -9.5320  -21.1690    3.6110 N.3   218  ILE218     -0.1245
     41  CA       -10.3260  -21.1830    4.8430 C.3   218  ILE218      0.1561
     42  C         -9.4890  -21.6100    6.0320 C.2   218  ILE218      0.2260
     43  O         -9.7100  -21.1380    7.1430 O.2   218  ILE218     -0.2867
     44  CB       -11.5620  -22.0740    4.6810 C.3   218  ILE218      0.0252
     45  CG1      -12.3830  -21.6050    3.4750 C.3   218  ILE218      0.0019
     46  CG2      -12.4180  -21.9850    5.9020 C.3   218  ILE218      0.0019
     47  CD1      -13.2810  -22.6800    2.9290 C.3   218  ILE218      0.0001
@<TRIPOS>BOND
     1    26    27    1
     2    26    25    1
     3    27    21    1
     4    35    33    1
     5    11     9   ar
     6    11    10   ar
     7    25    22    1
     8     9     7   ar
     9    10     8   ar
    10     7     6   ar
    11    33    32    1
    12     8     6   ar
    13     6     5    1
    14    21    22    1
    15    22    23    1
    16     5     2    1
    17    28    23   am
    18    28    29    1
    19    32    29    1
    20    32    34    1
    21    23    24    2
    22    47    45    1
    23    29    30    1
    24    45    44    1
    25    40    41    1
    26     2     1    1
    27     2     3    1
    28     3     4    2
    29    44    41    1
    30    44    46    1
    31    30    31    2
    32    41    42    1
    33    42    43    2
    34    20    19    1
    35    36    37    1
    36    19    18    1
    37    18    17    1
    38    37    38    1
    39    16    17    1
    40    16    13    1
    41    38    39    2
    42    12    13    1
    43    14    13    1
    44    14    15    2
