@<TRIPOS>MOLECULE
tmp/5n5tA00.pdb
 47 44 0 0 0
SMALL
GASTEIGER

@<TRIPOS>ATOM
      1  N        -24.4420  -27.0860    4.1590 N.3   118  PHE118     -0.1241
      2  CA       -24.4290  -25.6750    3.7800 C.3   118  PHE118      0.1605
      3  C        -25.6080  -24.9290    4.3960 C.2   118  PHE118      0.2264
      4  O        -25.4470  -23.8380    4.9590 O.2   118  PHE118     -0.2867
      5  CB       -24.4450  -25.5530    2.2560 C.3   118  PHE118      0.0534
      6  CG       -24.1870  -24.1650    1.7560 C.ar  118  PHE118     -0.0203
      7  CD1      -25.2240  -23.2720    1.5870 C.ar  118  PHE118     -0.0042
      8  CD2      -22.9010  -23.7560    1.4470 C.ar  118  PHE118     -0.0042
      9  CE1      -24.9820  -21.9870    1.1110 C.ar  118  PHE118     -0.0003
     10  CE2      -22.6560  -22.4800    0.9740 C.ar  118  PHE118     -0.0003
     11  CZ       -23.7000  -21.5970    0.8090 C.ar  118  PHE118     -0.0000
     12  N        -25.4090  -24.8000    8.2960 N.3   121  LYS121     -0.1245
     13  CA       -24.4370  -23.7680    8.6390 C.3   121  LYS121      0.1561
     14  C        -25.0550  -22.3820    8.5140 C.2   121  LYS121      0.2260
     15  O        -24.9010  -21.5360    9.4040 O.2   121  LYS121     -0.2867
     16  CB       -23.2020  -23.8850    7.7440 C.3   121  LYS121      0.0271
     17  CG       -22.1790  -22.7630    7.9310 C.3   121  LYS121      0.0035
     18  CD       -21.0540  -22.8580    6.9140 C.3   121  LYS121      0.0206
     19  CE       -20.2520  -21.5700    6.8500 C.3   121  LYS121      0.1093
     20  NZ       -21.0790  -20.4180    6.3710 N.3   121  LYS121     -0.1314
     21  N        -14.2730  -27.4940    1.8030 N.3   164  PRO164     -0.2102
     22  CA       -14.4210  -26.0820    2.1990 C.3   164  PRO164      0.1504
     23  C        -15.6870  -25.7830    2.9830 C.2   164  PRO164      0.2575
     24  O        -15.6760  -24.8820    3.8330 O.2   164  PRO164     -0.2718
     25  CB       -14.4050  -25.3430    0.8520 C.3   164  PRO164      0.0282
     26  CG       -13.5950  -26.2290   -0.0300 C.3   164  PRO164      0.0208
     27  CD       -13.9680  -27.6220    0.3670 C.3   164  PRO164      0.0893
     28  N        -16.7860  -26.4940    2.7160 N.am  165  ILE165     -0.1980
     29  CA       -18.0070  -26.2800    3.4910 C.3   165  ILE165      0.1595
     30  C        -17.7970  -26.7370    4.9290 C.2   165  ILE165      0.2287
     31  O        -18.1670  -26.0410    5.8810 O.2   165  ILE165     -0.2864
     32  CB       -19.1960  -27.0110    2.8380 C.3   165  ILE165      0.0276
     33  CG1      -19.4200  -26.5160    1.4060 C.3   165  ILE165      0.0022
     34  CG2      -20.4690  -26.8200    3.6680 C.3   165  ILE165      0.0022
     35  CD1      -20.3130  -27.4310    0.5860 C.3   165  ILE165      0.0001
     36  N        -15.4800  -24.1490    6.5810 N.3   168  GLY168     -0.1225
     37  CA       -16.1530  -22.8970    6.8820 C.3   168  GLY168      0.1811
     38  C        -17.1560  -23.0410    8.0040 C.2   168  GLY168      0.2280
     39  O        -17.3560  -22.1090    8.7880 O.2   168  GLY168     -0.2866
     40  N         -9.2330  -21.2340    3.8000 N.3   216  ILE216     -0.1245
     41  CA       -10.0200  -21.2450    5.0310 C.3   216  ILE216      0.1561
     42  C         -9.1520  -21.6500    6.2150 C.2   216  ILE216      0.2260
     43  O         -9.3290  -21.1510    7.3320 O.2   216  ILE216     -0.2867
     44  CB       -11.2420  -22.1670    4.8760 C.3   216  ILE216      0.0252
     45  CG1      -12.0960  -21.7030    3.6900 C.3   216  ILE216      0.0019
     46  CG2      -12.0740  -22.1550    6.1490 C.3   216  ILE216      0.0019
     47  CD1      -13.1660  -22.6840    3.2830 C.3   216  ILE216      0.0001
@<TRIPOS>BOND
     1    26    27    1
     2    26    25    1
     3    27    21    1
     4    35    33    1
     5    11    10   ar
     6    11     9   ar
     7    25    22    1
     8    10     8   ar
     9     9     7   ar
    10    33    32    1
    11     8     6   ar
    12     7     6   ar
    13     6     5    1
    14    21    22    1
    15    22    23    1
    16     5     2    1
    17    28    23   am
    18    28    29    1
    19    32    29    1
    20    32    34    1
    21    23    24    2
    22    47    45    1
    23    29    30    1
    24    45    44    1
    25     2     1    1
    26     2     3    1
    27    40    41    1
    28     3     4    2
    29    44    41    1
    30    44    46    1
    31    30    31    2
    32    41    42    1
    33    42    43    2
    34    20    19    1
    35    36    37    1
    36    19    18    1
    37    37    38    1
    38    18    17    1
    39    16    17    1
    40    16    13    1
    41    38    39    2
    42    12    13    1
    43    14    13    1
    44    14    15    2
