@<TRIPOS>MOLECULE
tmp/5n5uA00.pdb
 153 147 0 0 0
SMALL
GASTEIGER

@<TRIPOS>ATOM
      1  N         10.2850   24.8830  101.1890 N.3    33  ILE33      -0.1231
      2  CA        10.8570   26.0390  100.5600 C.3    33  ILE33       0.1692
      3  C         11.3470   25.5470   99.1630 C.2    33  ILE33       0.2593
      4  O         11.6600   24.3590   98.9960 O.2    33  ILE33      -0.2718
      5  CB        12.1140   26.5550  101.3370 C.3    33  ILE33       0.0266
      6  CG1       12.7670   27.7650  100.6310 C.3    33  ILE33       0.0019
      7  CG2       13.1140   25.4030  101.5770 C.3    33  ILE33       0.0020
      8  CD1       13.8070   28.4330  101.5310 C.3    33  ILE33       0.0001
      9  N         11.2910   26.4320   98.1950 N.am   34  GLY34      -0.1942
     10  CA        11.8150   26.1560   96.8520 C.3    34  GLY34       0.2014
     11  C         13.0890   26.8810   96.5180 C.2    34  GLY34       0.2639
     12  O         13.2480   28.0740   96.9130 O.2    34  GLY34      -0.2714
     13  N         13.8770   26.2740   95.6530 N.am   35  PHE35      -0.1959
     14  CA        15.0530   26.9120   95.0810 C.3    35  PHE35       0.1771
     15  C         15.0160   26.7280   93.5660 C.2    35  PHE35       0.2619
     16  O         15.0000   25.5910   93.1260 O.2    35  PHE35      -0.2715
     17  CB        16.3480   26.3100   95.6520 C.3    35  PHE35       0.0574
     18  CG        16.5030   26.4940   97.1140 C.ar   35  PHE35      -0.0200
     19  CD1       17.1120   27.6400   97.6160 C.ar   35  PHE35      -0.0042
     20  CD2       16.0740   25.5830   98.0040 C.ar   35  PHE35      -0.0042
     21  CE1       17.2360   27.8190   99.0020 C.ar   35  PHE35      -0.0003
     22  CE2       16.2160   25.7360   99.3900 C.ar   35  PHE35      -0.0003
     23  CZ        16.8160   26.8760   99.8640 C.ar   35  PHE35      -0.0000
     24  N         15.0020   27.8450   92.8220 N.am   36  GLU36      -0.1977
     25  CA        15.3050   27.8040   91.3530 C.3    36  GLU36       0.1602
     26  C         16.7210   27.3360   91.3130 C.2    36  GLU36       0.2287
     27  O         17.5930   27.9750   91.9240 O.2    36  GLU36      -0.2864
     28  CB        15.1960   29.1720   90.7010 C.3    36  GLU36       0.0415
     29  CG        13.7670   29.6920   90.6250 C.3    36  GLU36       0.1163
     30  CD        13.7270   30.9820   89.8610 C.2    36  GLU36       0.3649
     31  OE1       14.5270   31.1150   88.8790 O.co2  36  GLU36      -0.2457
     32  OE2       12.9010   31.8710   90.1490 O.co2  36  GLU36      -0.2457
     33  N         20.4920   26.8260   91.3450 N.3    38  SER38      -0.1217
     34  CA        21.5110   27.8950   91.3190 C.3    38  SER38       0.1889
     35  C         22.9130   27.2750   91.1860 C.2    38  SER38       0.2288
     36  O         23.2260   26.3570   91.9220 O.2    38  SER38      -0.2866
     37  CB        21.3760   28.6980   92.6210 C.3    38  SER38       0.2089
     38  OG        22.3300   29.7630   92.6920 O.3    38  SER38      -0.2183
     39  N         25.0520   29.7390   98.1500 N.3    42  HIS42      -0.1241
     40  CA        25.7770   30.7240   98.9450 C.3    42  HIS42       0.1621
     41  C         25.1690   30.8720  100.3080 C.2    42  HIS42       0.2264
     42  O         24.2210   30.1800  100.7020 O.2    42  HIS42      -0.2867
     43  CB        25.8900   32.0490   98.1330 C.3    42  HIS42       0.0745
     44  CG        24.6030   32.6570   97.7690 C.ar   42  HIS42       0.0817
     45  ND1       23.7100   33.1280   98.6890 N.ar   42  HIS42      -0.2268
     46  CD2       24.0690   32.9520   96.5330 C.ar   42  HIS42       0.1154
     47  CE1       22.6700   33.6630   98.0530 C.ar   42  HIS42       0.1986
     48  NE2       22.8510   33.5000   96.7470 N.ar   42  HIS42      -0.2212
     49  N         23.2650   33.0710  101.6260 N.3    44  GLY44      -0.1210
     50  CA        21.8420   33.3680  101.6790 C.3    44  GLY44       0.1956
     51  C         21.0100   32.1150  101.6200 C.2    44  GLY44       0.2611
     52  O         20.0630   31.9410  102.4090 O.2    44  GLY44      -0.2717
     53  N         21.3530   31.2310  100.7180 N.am   45  HIS45      -0.1975
     54  CA        20.7210   29.9080  100.7290 C.3    45  HIS45       0.1656
     55  C         20.9190   29.1390  102.0350 C.2    45  HIS45       0.2291
     56  O         19.9820   28.5460  102.5620 O.2    45  HIS45      -0.2864
     57  CB        21.2430   29.0680   99.6150 C.3    45  HIS45       0.0771
     58  CG        21.0690   29.7450   98.2870 C.ar   45  HIS45       0.0820
     59  ND1       22.0930   29.9570   97.4010 N.ar   45  HIS45      -0.2267
     60  CD2       19.9680   30.3180   97.7260 C.ar   45  HIS45       0.1154
     61  CE1       21.6250   30.4950   96.2920 C.ar   45  HIS45       0.1986
     62  NE2       20.3250   30.7470   96.4650 N.ar   45  HIS45      -0.2212
     63  N         21.3660   30.3580  105.0160 N.3    47  LEU47      -0.1231
     64  CA        20.5080   30.8870  106.0550 C.3    47  LEU47       0.1693
     65  C         19.1090   30.2430  105.9930 C.2    47  LEU47       0.2591
     66  O         18.4960   29.9670  107.0030 O.2    47  LEU47      -0.2718
     67  CB        20.3770   32.3900  105.9050 C.3    47  LEU47       0.0284
     68  CG        19.5610   33.0910  106.9830 C.3    47  LEU47       0.0019
     69  CD1       20.3520   33.0550  108.2600 C.3    47  LEU47       0.0001
     70  CD2       19.2220   34.4720  106.5330 C.3    47  LEU47       0.0001
     71  N         18.5600   30.0580  104.7970 N.am   48  GLN48      -0.1979
     72  CA        17.2580   29.4620  104.6750 C.3    48  GLN48       0.1601
     73  C         17.2770   28.0120  105.0830 C.2    48  GLN48       0.2287
     74  O         16.3670   27.5290  105.7650 O.2    48  GLN48      -0.2864
     75  CB        16.8030   29.5150  103.2090 C.3    48  GLN48       0.0394
     76  CG        16.7980   30.8920  102.5680 C.3    48  GLN48       0.0908
     77  CD        15.7750   31.8250  103.0310 C.2    48  GLN48       0.2608
     78  OE1       14.6760   31.4530  103.4670 O.2    48  GLN48      -0.2717
     79  NE2       16.1190   33.1430  102.9440 N.am   48  GLN48      -0.0878
     80  N         15.8400   30.9010   83.3150 N.3    76  LYS76      -0.1245
     81  CA        17.1520   30.3960   83.7470 C.3    76  LYS76       0.1561
     82  C         17.8290   29.4280   82.7810 C.2    76  LYS76       0.2260
     83  O         18.9680   29.0100   83.0800 O.2    76  LYS76      -0.2867
     84  CB        17.0510   29.7810   85.1330 C.3    76  LYS76       0.0271
     85  CG        16.5220   30.7320   86.1780 C.3    76  LYS76       0.0035
     86  CD        17.2890   32.0480   86.2610 C.3    76  LYS76       0.0206
     87  CE        16.5600   33.0030   87.2030 C.3    76  LYS76       0.1093
     88  NZ        16.6980   32.6130   88.6170 N.3    76  LYS76      -0.1314
     89  N         10.7410   31.3420  103.0030 N.3   169  GLY169     -0.1210
     90  CA        11.6860   31.9210  102.0820 C.3   169  GLY169      0.1956
     91  C         12.1600   33.2740  102.4820 C.2   169  GLY169      0.2612
     92  O         11.9110   33.7150  103.5780 O.2   169  GLY169     -0.2717
     93  N         12.9550   33.9130  101.6510 N.am  170  GLY170     -0.1956
     94  CA        13.3610   35.2650  101.9070 C.3   170  GLY170      0.1869
     95  C         12.1970   36.2300  101.8020 C.2   170  GLY170      0.2309
     96  O         11.1030   35.9290  101.2020 O.2   170  GLY170     -0.2863
     97  N         11.6170   38.5610   99.9870 N.3   172  GLU172     -0.1231
     98  CA        11.0910   38.8860   98.6550 C.3   172  GLU172      0.1699
     99  C          9.9270   37.9850   98.1780 C.2   172  GLU172      0.2592
    100  O          9.2830   38.2490   97.2210 O.2   172  GLU172     -0.2718
    101  CB        12.2330   38.9880   97.5960 C.3   172  GLU172      0.0402
    102  CG        12.7320   37.6730   97.0580 C.3   172  GLU172      0.1161
    103  CD        13.5190   36.8560   98.0690 C.2   172  GLU172      0.3649
    104  OE1       13.6150   35.6310   97.8850 O.co2 172  GLU172     -0.2457
    105  OE2       14.0180   37.4070   99.0570 O.co2 172  GLU172     -0.2457
    106  N          9.7960   36.8270   98.7880 N.am  173  GLN173     -0.1979
    107  CA         8.7330   35.8890   98.4600 C.3   173  GLN173      0.1601
    108  C          7.4090   36.3140   99.0800 C.2   173  GLN173      0.2287
    109  O          6.4230   35.6270   98.8600 O.2   173  GLN173     -0.2864
    110  CB         9.0360   34.4830   98.9750 C.3   173  GLN173      0.0394
    111  CG        10.4140   33.9620   98.5450 C.3   173  GLN173      0.0908
    112  CD        10.5030   33.7260   97.0690 C.2   173  GLN173      0.2608
    113  OE1        9.5810   33.2010   96.4560 O.2   173  GLN173     -0.2717
    114  NE2       11.6080   34.1120   96.5030 N.am  173  GLN173     -0.0878
    115  N         15.6140   37.0790  106.5990 N.3   194  PRO194     -0.2102
    116  CA        16.1800   38.3450  106.0710 C.3   194  PRO194      0.1504
    117  C         17.0150   38.0500  104.8300 C.2   194  PRO194      0.2576
    118  O         17.4970   36.9090  104.5680 O.2   194  PRO194     -0.2718
    119  CB        17.0160   38.8710  107.2330 C.3   194  PRO194      0.0282
    120  CG        17.3950   37.6550  107.9990 C.3   194  PRO194      0.0208
    121  CD        16.1870   36.7230  107.9270 C.3   194  PRO194      0.0893
    122  N         17.1350   39.1000  104.0210 N.am  195  VAL195     -0.1966
    123  CA        17.9140   38.9900  102.8030 C.3   195  VAL195      0.1727
    124  C         19.3150   39.4360  103.1530 C.2   195  VAL195      0.2616
    125  O         19.5160   40.5380  103.6570 O.2   195  VAL195     -0.2715
    126  CB        17.2740   39.8260  101.6500 C.3   195  VAL195      0.0290
    127  CG1       18.1670   39.8980  100.4140 C.3   195  VAL195      0.0023
    128  CG2       15.8570   39.3230  101.3310 C.3   195  VAL195      0.0023
    129  N         20.2860   38.5860  102.8950 N.am  196  LEU196     -0.1977
    130  CA        21.7010   38.8900  103.1860 C.3   196  LEU196      0.1596
    131  C         22.3170   39.7890  102.1150 C.2   196  LEU196      0.2287
    132  O         22.0720   39.5650  100.9220 O.2   196  LEU196     -0.2864
    133  CB        22.5620   37.6150  103.1970 C.3   196  LEU196      0.0297
    134  CG        22.4260   36.5540  104.2550 C.3   196  LEU196      0.0022
    135  CD1       23.6980   35.6840  104.1050 C.3   196  LEU196      0.0001
    136  CD2       22.3110   37.1520  105.6590 C.3   196  LEU196      0.0001
    137  N         21.4900   42.4930   97.3220 N.3   204  LYS204     -0.1231
    138  CA        21.5110   41.1400   97.8910 C.3   204  LYS204      0.1693
    139  C         22.6070   40.2510   97.3870 C.2   204  LYS204      0.2591
    140  O         23.1110   40.4260   96.2580 O.2   204  LYS204     -0.2718
    141  CB        20.1590   40.4310   97.6880 C.3   204  LYS204      0.0285
    142  CG        19.8950   39.9740   96.2770 C.3   204  LYS204      0.0035
    143  CD        18.4990   39.4130   96.0900 C.3   204  LYS204      0.0206
    144  CE        18.3850   39.0230   94.5930 C.3   204  LYS204      0.1093
    145  NZ        17.1100   38.4110   94.1220 N.3   204  LYS204     -0.1314
    146  N         23.0550   39.3310   98.2510 N.am  205  MET205     -0.1979
    147  CA        24.0050   38.3400   97.8180 C.3   205  MET205      0.1605
    148  C         23.3510   37.5100   96.6910 C.2   205  MET205      0.2287
    149  O         22.2110   37.0790   96.7860 O.2   205  MET205     -0.2864
    150  CB        24.4360   37.4100   99.0020 C.3   205  MET205      0.0413
    151  CG        25.4630   36.3960   98.6070 C.3   205  MET205      0.0598
    152  SD        26.1970   35.6220  100.1010 S.3   205  MET205     -0.1393
    153  CE        26.9710   37.0150  100.8990 C.3   205  MET205      0.0692
@<TRIPOS>BOND
     1    82    83    2
     2    82    81    1
     3    80    81    1
     4    81    84    1
     5    84    85    1
     6    85    86    1
     7    86    87    1
     8    87    88    1
     9    31    30   ar
    10    30    32   ar
    11    30    29    1
    12    29    28    1
    13    28    25    1
    14    35    34    1
    15    35    36    2
    16    26    25    1
    17    26    27    2
    18    34    33    1
    19    34    37    1
    20    25    24    1
    21    37    38    1
    22    24    15   am
    23    16    15    2
    24    15    14    1
    25   145   144    1
    26   144   143    1
    27    14    17    1
    28    14    13    1
    29    17    18    1
    30    13    11   am
    31   143   142    1
    32   140   139    2
    33   142   141    1
    34    61    62   ar
    35    61    59   ar
    36   113   112    2
    37    62    60   ar
    38   114   112   am
    39    11    10    1
    40    11    12    2
    41    46    48   ar
    42    46    44   ar
    43   148   149    2
    44   148   147    1
    45    48    47   ar
    46    10     9    1
    47   102   101    1
    48   102   103    1
    49   112   111    1
    50    18    19   ar
    51    18    20   ar
    52   100    99    2
    53   137   138    1
    54   139   138    1
    55   139   146   am
    56    59    58   ar
    57   101    98    1
    58    19    21   ar
    59   141   138    1
    60    60    58   ar
    61    44    43    1
    62    44    45   ar
    63   147   146    1
    64   147   150    1
    65   104   103   ar
    66    20    22   ar
    67    47    45   ar
    68   103   105   ar
    69    43    40    1
    70    39    40    1
    71    99    98    1
    72    99   106   am
    73     9     3   am
    74    58    57    1
    75   107   106    1
    76   107   110    1
    77   107   108    1
    78   111   110    1
    79   151   150    1
    80   151   152    1
    81    98    97    1
    82   109   108    2
    83    40    41    1
    84     4     3    2
    85    21    23   ar
    86     3     2    1
    87    22    23   ar
    88    57    54    1
    89   152   153    1
    90    41    42    2
    91   127   126    1
    92     2     1    1
    93     2     5    1
    94     6     5    1
    95     6     8    1
    96    53    54    1
    97    53    51   am
    98    54    55    1
    99   132   131    2
   100    96    95    2
   101   128   126    1
   102     5     7    1
   103    51    50    1
   104    51    52    2
   105    49    50    1
   106   126   123    1
   107    93    94    1
   108    93    91   am
   109    95    94    1
   110    55    56    2
   111    90    91    1
   112    90    89    1
   113   131   130    1
   114    91    92    2
   115    76    77    1
   116    76    75    1
   117   123   124    1
   118   123   122    1
   119   129   124   am
   120   129   130    1
   121    79    77   am
   122    77    78    2
   123   124   125    2
   124   130   133    1
   125   133   134    1
   126    75    72    1
   127   122   117   am
   128   135   134    1
   129   134   136    1
   130   118   117    2
   131    72    71    1
   132    72    73    1
   133    71    65   am
   134   117   116    1
   135    63    64    1
   136    73    74    2
   137    67    64    1
   138    67    68    1
   139    65    64    1
   140    65    66    2
   141   116   115    1
   142   116   119    1
   143    70    68    1
   144   115   121    1
   145    68    69    1
   146   119   120    1
   147   121   120    1
