@<TRIPOS>MOLECULE
tmp/5n63A00.pdb
 149 143 0 0 0
SMALL
GASTEIGER

@<TRIPOS>ATOM
      1  N        -20.1290  -12.4600   16.6470 N.3   163  PRO163     -0.2102
      2  CA       -20.6740  -13.8320   16.6950 C.3   163  PRO163      0.1504
      3  C        -20.3190  -14.6640   15.4630 C.2   163  PRO163      0.2575
      4  O        -20.1700  -15.8810   15.5800 O.2   163  PRO163     -0.2718
      5  CB       -22.1900  -13.6230   16.8230 C.3   163  PRO163      0.0282
      6  CG       -22.3640  -12.2240   17.2720 C.3   163  PRO163      0.0208
      7  CD       -21.1700  -11.4280   16.8050 C.3   163  PRO163      0.0893
      8  N        -20.1490  -14.0470   14.2930 N.am  164  GLU164     -0.1980
      9  CA       -19.8070  -14.8110   13.1000 C.3   164  GLU164      0.1602
     10  C        -18.3430  -15.2550   13.0740 C.2   164  GLU164      0.2287
     11  O        -17.9930  -16.1350   12.2830 O.2   164  GLU164     -0.2864
     12  CB       -20.1510  -13.9910   11.8410 C.3   164  GLU164      0.0415
     13  CG       -19.4470  -12.6340   11.7770 C.3   164  GLU164      0.1163
     14  CD       -20.2670  -11.4640   12.3390 C.2   164  GLU164      0.3649
     15  OE1      -21.1050  -11.6390   13.2540 O.co2 164  GLU164     -0.2457
     16  OE2      -20.0420  -10.3400   11.8540 O.co2 164  GLU164     -0.2457
     17  N        -18.3930  -18.4660   15.4730 N.3   167  LEU167     -0.1231
     18  CA       -18.8870  -19.6620   14.8120 C.3   167  LEU167      0.1693
     19  C        -18.0960  -20.0120   13.5650 C.2   167  LEU167      0.2592
     20  O        -18.4730  -20.9480   12.8610 O.2   167  LEU167     -0.2718
     21  CB       -20.3600  -19.4940   14.4430 C.3   167  LEU167      0.0284
     22  CG       -21.3640  -19.2220   15.5550 C.3   167  LEU167      0.0019
     23  CD1      -22.7090  -19.0380   14.9180 C.3   167  LEU167      0.0001
     24  CD2      -21.4470  -20.3830   16.5010 C.3   167  LEU167      0.0001
     25  N        -17.0380  -19.2680   13.2570 N.am  168  ASN168     -0.1960
     26  CA       -16.1150  -19.6110   12.1700 C.3   168  ASN168      0.1819
     27  C        -16.7800  -19.5290   10.8020 C.2   168  ASN168      0.2621
     28  O        -16.4830  -20.3230    9.9120 O.2   168  ASN168     -0.2715
     29  CB       -15.4970  -20.9950   12.3720 C.3   168  ASN168      0.1195
     30  CG       -14.5610  -21.0380   13.5480 C.2   168  ASN168      0.2630
     31  OD1      -14.7810  -21.7790   14.5010 O.2   168  ASN168     -0.2716
     32  ND2      -13.4970  -20.2450   13.4850 N.am  168  ASN168     -0.0877
     33  N        -17.6840  -18.5700   10.6270 N.am  169  TRP169     -0.1974
     34  CA       -18.1520  -18.2510    9.2890 C.3   169  TRP169      0.1640
     35  C        -16.9900  -17.7460    8.4460 C.2   169  TRP169      0.2290
     36  O        -16.3030  -16.7910    8.8200 O.2   169  TRP169     -0.2864
     37  CB       -19.2490  -17.1930    9.3390 C.3   169  TRP169      0.0576
     38  CG       -19.8360  -16.8980    8.0020 C.ar  169  TRP169      0.0006
     39  CD1      -19.9510  -17.7570    6.9460 C.ar  169  TRP169      0.0946
     40  CD2      -20.3860  -15.6560    7.5710 C.ar  169  TRP169      0.0152
     41  NE1      -20.5550  -17.1280    5.8890 N.ar  169  TRP169     -0.2442
     42  CE2      -20.8300  -15.8350    6.2450 C.ar  169  TRP169      0.0810
     43  CE3      -20.5580  -14.4040    8.1830 C.ar  169  TRP169      0.0012
     44  CZ2      -21.4310  -14.8060    5.5140 C.ar  169  TRP169      0.0191
     45  CZ3      -21.1550  -13.3850    7.4620 C.ar  169  TRP169      0.0001
     46  CH2      -21.5830  -13.5900    6.1390 C.ar  169  TRP169      0.0015
     47  N        -21.6610  -16.8560   23.5060 N.3   204  LEU204     -0.1245
     48  CA       -22.7850  -16.7090   22.5920 C.3   204  LEU204      0.1561
     49  C        -24.1180  -16.6470   23.3280 C.2   204  LEU204      0.2260
     50  O        -25.0240  -15.9270   22.8970 O.2   204  LEU204     -0.2867
     51  CB       -22.7750  -17.8660   21.5880 C.3   204  LEU204      0.0270
     52  CG       -23.8510  -17.8170   20.5050 C.3   204  LEU204      0.0019
     53  CD1      -23.8030  -16.5100   19.7320 C.3   204  LEU204      0.0001
     54  CD2      -23.7080  -18.9980   19.5620 C.3   204  LEU204      0.0001
     55  N        -26.7760  -13.6480   22.8010 N.3   208  LEU208     -0.1245
     56  CA       -28.1500  -13.9000   22.3650 C.3   208  LEU208      0.1561
     57  C        -29.1500  -13.4780   23.4220 C.2   208  LEU208      0.2260
     58  O        -30.3050  -13.1710   23.1040 O.2   208  LEU208     -0.2867
     59  CB       -28.3590  -15.3770   22.0420 C.3   208  LEU208      0.0270
     60  CG       -27.5820  -15.9650   20.8790 C.3   208  LEU208      0.0019
     61  CD1      -28.0050  -17.4210   20.6290 C.3   208  LEU208      0.0001
     62  CD2      -27.7610  -15.1190   19.6200 C.3   208  LEU208      0.0001
     63  N        -31.8960  -15.4780   16.7690 N.3   214  PRO214     -0.2116
     64  CA       -32.1070  -14.9610   15.4140 C.3   214  PRO214      0.1372
     65  C        -33.4270  -15.4040   14.7990 C.2   214  PRO214      0.2244
     66  O        -33.9180  -16.5110   15.0340 O.2   214  PRO214     -0.2868
     67  CB       -30.9250  -15.5390   14.6380 C.3   214  PRO214      0.0268
     68  CG       -30.6220  -16.7950   15.3570 C.3   214  PRO214      0.0207
     69  CD       -30.8080  -16.4670   16.8080 C.3   214  PRO214      0.0892
     70  N        -32.5870  -14.4120    9.2500 N.3   218  LEU218     -0.1245
     71  CA       -31.1600  -14.6270    9.4100 C.3   218  LEU218      0.1561
     72  C        -30.8060  -16.1040    9.2780 C.2   218  LEU218      0.2260
     73  O        -29.7660  -16.4400    8.7020 O.2   218  LEU218     -0.2867
     74  CB       -30.7060  -14.0700   10.7530 C.3   218  LEU218      0.0270
     75  CG       -29.2620  -14.3970   11.1490 C.3   218  LEU218      0.0019
     76  CD1      -28.2240  -14.0170   10.0710 C.3   218  LEU218      0.0001
     77  CD2      -28.9690  -13.6940   12.4620 C.3   218  LEU218      0.0001
     78  N        -29.8770  -17.5840    5.8930 N.3   221  LYS221     -0.1231
     79  CA       -28.6150  -17.1720    5.3060 C.3   221  LYS221      0.1693
     80  C        -27.4260  -17.9160    5.8920 C.2   221  LYS221      0.2592
     81  O        -26.2780  -17.6210    5.5330 O.2   221  LYS221     -0.2718
     82  CB       -28.4410  -15.6590    5.4690 C.3   221  LYS221      0.0285
     83  CG       -29.5510  -14.8710    4.7810 C.3   221  LYS221      0.0035
     84  CD       -29.1750  -13.4010    4.6820 C.3   221  LYS221      0.0206
     85  CE       -29.1310  -12.7280    6.0390 C.3   221  LYS221      0.1093
     86  NZ       -28.9550  -11.2550    5.9000 N.3   221  LYS221     -0.1314
     87  N        -27.6720  -18.8900    6.7600 N.am  222  ILE222     -0.1966
     88  CA       -26.6120  -19.6560    7.4060 C.3   222  ILE222      0.1727
     89  C        -26.3870  -20.9370    6.6050 C.2   222  ILE222      0.2617
     90  O        -27.3150  -21.7330    6.4280 O.2   222  ILE222     -0.2715
     91  CB       -26.9730  -19.9470    8.8740 C.3   222  ILE222      0.0290
     92  CG1      -27.1970  -18.6090    9.6000 C.3   222  ILE222      0.0022
     93  CG2      -25.8970  -20.7950    9.5660 C.3   222  ILE222      0.0023
     94  CD1      -27.6040  -18.7450   11.0400 C.3   222  ILE222      0.0001
     95  N        -25.1550  -21.1200    6.0990 N.am  223  SER223     -0.1936
     96  CA       -24.8020  -22.2330    5.2250 C.3   223  SER223      0.2055
     97  C        -24.4240  -23.5160    5.9600 C.2   223  SER223      0.2643
     98  O        -24.5340  -24.5970    5.3720 O.2   223  SER223     -0.2714
     99  CB       -23.6290  -21.8520    4.3240 C.3   223  SER223      0.2130
    100  OG       -22.5740  -21.3000    5.0990 O.3   223  SER223     -0.2179
    101  N        -23.9490  -23.4400    7.2000 N.am  224  SER224     -0.1949
    102  CA       -23.5910  -24.6470    7.9380 C.3   224  SER224      0.1924
    103  C        -24.8220  -25.2730    8.5730 C.2   224  SER224      0.2314
    104  O        -25.5220  -24.6290    9.3610 O.2   224  SER224     -0.2863
    105  CB       -22.5700  -24.3490    9.0330 C.3   224  SER224      0.2116
    106  OG       -22.4980  -25.4430    9.9360 O.3   224  SER224     -0.2180
    107  N        -24.1450  -25.5790   12.5030 N.3   227  ALA227     -0.1245
    108  CA       -24.4240  -24.2820   13.1240 C.3   227  ALA227      0.1562
    109  C        -25.9160  -23.9700   13.1350 C.2   227  ALA227      0.2260
    110  O        -26.4470  -23.4700   14.1310 O.2   227  ALA227     -0.2867
    111  CB       -23.6650  -23.1700   12.4030 C.3   227  ALA227      0.0290
    112  N        -28.0300  -23.3840   16.6470 N.3   231  ILE231     -0.1245
    113  CA       -28.7380  -22.1380   16.9380 C.3   231  ILE231      0.1561
    114  C        -30.2090  -22.4000   17.2410 C.2   231  ILE231      0.2260
    115  O        -30.7700  -21.8670   18.2080 O.2   231  ILE231     -0.2867
    116  CB       -28.5990  -21.1480   15.7660 C.3   231  ILE231      0.0252
    117  CG1      -27.1430  -20.9230   15.3790 C.3   231  ILE231      0.0019
    118  CG2      -29.2020  -19.8390   16.1430 C.3   231  ILE231      0.0019
    119  CD1      -26.2130  -20.7080   16.5460 C.3   231  ILE231      0.0001
    120  N        -27.0710   -8.9050   15.3060 N.3   263  LEU263     -0.1231
    121  CA       -26.5780  -10.2480   15.0160 C.3   263  LEU263      0.1693
    122  C        -26.2410  -10.3920   13.5310 C.2   263  LEU263      0.2592
    123  O        -25.1340  -10.8110   13.1760 O.2   263  LEU263     -0.2718
    124  CB       -27.6110  -11.2770   15.4610 C.3   263  LEU263      0.0284
    125  CG       -27.0810  -12.6340   15.9000 C.3   263  LEU263      0.0019
    126  CD1      -25.9780  -12.4840   16.9460 C.3   263  LEU263      0.0001
    127  CD2      -28.2220  -13.4410   16.4520 C.3   263  LEU263      0.0001
    128  N        -27.1590   -9.9870   12.6480 N.am  264  ASP264     -0.1960
    129  CA       -26.9840  -10.1270   11.1990 C.3   264  ASP264      0.1840
    130  C        -25.9900   -9.0890   10.6770 C.2   264  ASP264      0.2623
    131  O        -26.3090   -7.8970   10.5910 O.2   264  ASP264     -0.2715
    132  CB       -28.3390   -9.9850   10.5090 C.3   264  ASP264      0.1450
    133  CG       -28.2580  -10.0790    8.9940 C.2   264  ASP264      0.3671
    134  OD1      -27.1540  -10.2260    8.4360 O.co2 264  ASP264     -0.2456
    135  OD2      -29.3270   -9.9990    8.3460 O.co2 264  ASP264     -0.2456
    136  N        -24.8140   -9.5490   10.2420 N.am  265  SER265     -0.1936
    137  CA       -23.7660   -8.6180    9.8630 C.3   265  SER265      0.2055
    138  C        -24.0650   -7.9080    8.5470 C.2   265  SER265      0.2643
    139  O        -23.4510   -6.8710    8.2720 O.2   265  SER265     -0.2714
    140  CB       -22.4110   -9.3360    9.8060 C.3   265  SER265      0.2130
    141  OG       -22.2470  -10.0570    8.6010 O.3   265  SER265     -0.2179
    142  N        -25.0060   -8.4200    7.7440 N.am  266  ASP266     -0.1971
    143  CA       -25.4480   -7.6960    6.5500 C.3   266  ASP266      0.1709
    144  C        -26.1940   -6.4110    6.9170 C.2   266  ASP266      0.2293
    145  O        -26.2980   -5.4890    6.0970 O.2   266  ASP266     -0.2864
    146  CB       -26.3740   -8.5720    5.6750 C.3   266  ASP266      0.1436
    147  CG       -25.6630   -9.7870    5.0590 C.2   266  ASP266      0.3671
    148  OD1      -24.4300   -9.7610    4.8900 O.co2 266  ASP266     -0.2456
    149  OD2      -26.3650  -10.7770    4.7280 O.co2 266  ASP266     -0.2456
@<TRIPOS>BOND
     1    99   100    1
     2    99    96    1
     3    84    83    1
     4    84    85    1
     5   149   147   ar
     6    83    82    1
     7   148   147   ar
     8   147   146    1
     9    96    97    1
    10    96    95    1
    11    79    82    1
    12    79    80    1
    13    79    78    1
    14    98    97    2
    15    44    46   ar
    16    44    42   ar
    17    81    80    2
    18   146   143    1
    19    41    42   ar
    20    41    39   ar
    21    80    87   am
    22    86    85    1
    23    97   101   am
    24   145   144    2
    25    95    89   am
    26    46    45   ar
    27    42    40   ar
    28    90    89    2
    29   143   144    1
    30   143   142    1
    31    89    88    1
    32    87    88    1
    33    39    38   ar
    34   101   102    1
    35    88    91    1
    36    45    43   ar
    37    40    38   ar
    38    40    43   ar
    39   142   138   am
    40   102   103    1
    41   102   105    1
    42    38    37    1
    43   139   138    2
    44   135   133   ar
    45   134   133   ar
    46    35    36    2
    47    35    34    1
    48   138   137    1
    49   103   104    2
    50   141   140    1
    51    73    72    2
    52    91    93    1
    53    91    92    1
    54   133   132    1
    55   105   106    1
    56    70    71    1
    57    72    71    1
    58    34    37    1
    59    34    33    1
    60    71    74    1
    61    92    94    1
    62   140   137    1
    63   137   136    1
    64    28    27    2
    65    76    75    1
    66   136   130   am
    67   132   129    1
    68   131   130    2
    69    33    27   am
    70   130   129    1
    71    74    75    1
    72    27    26    1
    73    75    77    1
    74   129   128    1
    75    13    12    1
    76    13    14    1
    77    12     9    1
    78    16    14   ar
    79    26    29    1
    80    26    25    1
    81    11    10    2
    82    14    15   ar
    83    29    30    1
    84   111   108    1
    85   107   108    1
    86   128   122   am
    87    20    19    2
    88    10     9    1
    89     9     8    1
    90   108   109    1
    91   109   110    2
    92   123   122    2
    93    25    19   am
    94    32    30   am
    95   122   121    1
    96    30    31    2
    97    19    18    1
    98     8     3   am
    99    21    18    1
   100    21    22    1
   101    67    68    1
   102    67    64    1
   103    65    66    2
   104    65    64    1
   105    18    17    1
   106    23    22    1
   107   121   120    1
   108   121   124    1
   109    68    69    1
   110   117   116    1
   111   117   119    1
   112    64    63    1
   113   124   125    1
   114     3     4    2
   115     3     2    1
   116    22    24    1
   117   116   118    1
   118   116   113    1
   119   125   127    1
   120   125   126    1
   121     1     2    1
   122     1     7    1
   123   112   113    1
   124     2     5    1
   125    63    69    1
   126     7     6    1
   127     5     6    1
   128   113   114    1
   129   114   115    2
   130    54    52    1
   131    62    60    1
   132    53    52    1
   133    52    51    1
   134    61    60    1
   135    60    59    1
   136    51    48    1
   137    59    56    1
   138    56    55    1
   139    56    57    1
   140    48    49    1
   141    48    47    1
   142    50    49    2
   143    58    57    2
