@<TRIPOS>MOLECULE
tmp/5n64A00.pdb
 149 143 0 0 0
SMALL
GASTEIGER

@<TRIPOS>ATOM
      1  N        -20.5150  -12.5090   17.0310 N.3   166  PRO166     -0.2102
      2  CA       -21.0050  -13.8930   17.1420 C.3   166  PRO166      0.1504
      3  C        -20.7520  -14.7340   15.9030 C.2   166  PRO166      0.2575
      4  O        -20.6700  -15.9630   16.0180 O.2   166  PRO166     -0.2718
      5  CB       -22.5050  -13.7180   17.4130 C.3   166  PRO166      0.0282
      6  CG       -22.8310  -12.3540   16.9010 C.3   166  PRO166      0.0208
      7  CD       -21.6040  -11.5240   17.1360 C.3   166  PRO166      0.0893
      8  N        -20.6250  -14.1190   14.7220 N.am  167  GLU167     -0.1980
      9  CA       -20.3610  -14.9040   13.5180 C.3   167  GLU167      0.1602
     10  C        -18.9650  -15.5120   13.5370 C.2   167  GLU167      0.2287
     11  O        -18.7470  -16.5760   12.9480 O.2   167  GLU167     -0.2864
     12  CB       -20.5490  -14.0450   12.2660 C.3   167  GLU167      0.0415
     13  CG       -19.7760  -12.7330   12.2650 C.3   167  GLU167      0.1163
     14  CD       -20.6400  -11.5540   12.6620 C.2   167  GLU167      0.3649
     15  OE1      -21.4850  -11.7130   13.5660 O.co2 167  GLU167     -0.2457
     16  OE2      -20.4830  -10.4710   12.0610 O.co2 167  GLU167     -0.2457
     17  N        -19.0970  -18.6330   15.8080 N.3   170  LEU170     -0.1231
     18  CA       -19.7630  -19.7130   15.0930 C.3   170  LEU170      0.1693
     19  C        -18.9380  -20.2370   13.9260 C.2   170  LEU170      0.2592
     20  O        -19.3810  -21.1740   13.2530 O.2   170  LEU170     -0.2718
     21  CB       -21.1330  -19.2560   14.5860 C.3   170  LEU170      0.0284
     22  CG       -22.2740  -19.2650   15.6030 C.3   170  LEU170      0.0019
     23  CD1      -23.6120  -19.1240   14.8920 C.3   170  LEU170      0.0001
     24  CD2      -22.2390  -20.5300   16.4490 C.3   170  LEU170      0.0001
     25  N        -17.7650  -19.6510   13.6740 N.am  171  ASN171     -0.1960
     26  CA       -16.8310  -20.0960   12.6400 C.3   171  ASN171      0.1819
     27  C        -17.3780  -19.8840   11.2300 C.2   171  ASN171      0.2621
     28  O        -17.0040  -20.6020   10.2990 O.2   171  ASN171     -0.2715
     29  CB       -16.4270  -21.5630   12.8360 C.3   171  ASN171      0.1195
     30  CG       -15.0260  -21.8530   12.3360 C.2   171  ASN171      0.2630
     31  OD1      -14.1290  -21.0110   12.4410 O.2   171  ASN171     -0.2716
     32  ND2      -14.8300  -23.0450   11.7810 N.am  171  ASN171     -0.0877
     33  N        -18.2570  -18.9000   11.0560 N.am  172  TRP172     -0.1974
     34  CA       -18.7040  -18.5250    9.7200 C.3   172  TRP172      0.1640
     35  C        -17.5310  -17.9610    8.9340 C.2   172  TRP172      0.2290
     36  O        -16.8980  -16.9890    9.3580 O.2   172  TRP172     -0.2864
     37  CB       -19.8370  -17.4940    9.7950 C.3   172  TRP172      0.0576
     38  CG       -20.4980  -17.1820    8.4570 C.ar  172  TRP172      0.0006
     39  CD1      -20.7050  -18.0500    7.4210 C.ar  172  TRP172      0.0946
     40  CD2      -21.0180  -15.9100    8.0190 C.ar  172  TRP172      0.0152
     41  NE1      -21.3170  -17.4030    6.3720 N.ar  172  TRP172     -0.2442
     42  CE2      -21.5230  -16.0920    6.7120 C.ar  172  TRP172      0.0810
     43  CE3      -21.1040  -14.6400    8.6040 C.ar  172  TRP172      0.0012
     44  CZ2      -22.1070  -15.0530    5.9830 C.ar  172  TRP172      0.0191
     45  CZ3      -21.6880  -13.6090    7.8780 C.ar  172  TRP172      0.0001
     46  CH2      -22.1790  -13.8220    6.5800 C.ar  172  TRP172      0.0015
     47  N        -22.1510  -16.9250   23.6490 N.3   207  LEU207     -0.1245
     48  CA       -23.3150  -16.7940   22.7780 C.3   207  LEU207      0.1561
     49  C        -24.5980  -16.7030   23.5940 C.2   207  LEU207      0.2260
     50  O        -25.5420  -16.0040   23.2070 O.2   207  LEU207     -0.2867
     51  CB       -23.3860  -17.9690   21.8070 C.3   207  LEU207      0.0270
     52  CG       -24.0690  -17.6820   20.4690 C.3   207  LEU207      0.0019
     53  CD1      -23.0890  -17.0190   19.5060 C.3   207  LEU207      0.0001
     54  CD2      -24.6570  -18.9490   19.8680 C.3   207  LEU207      0.0001
     55  N        -27.2140  -13.6280   23.0770 N.3   211  LEU211     -0.1245
     56  CA       -28.5940  -13.8110   22.6400 C.3   211  LEU211      0.1561
     57  C        -29.5890  -13.3670   23.7020 C.2   211  LEU211      0.2260
     58  O        -30.7100  -12.9720   23.3690 O.2   211  LEU211     -0.2867
     59  CB       -28.8470  -15.2700   22.2630 C.3   211  LEU211      0.0270
     60  CG       -28.0790  -15.8280   21.0630 C.3   211  LEU211      0.0019
     61  CD1      -28.8330  -17.0010   20.4520 C.3   211  LEU211      0.0001
     62  CD2      -27.8090  -14.7460   20.0240 C.3   211  LEU211      0.0001
     63  N        -32.5900  -15.3320   16.7890 N.3   217  PRO217     -0.2116
     64  CA       -32.8460  -14.7590   15.4630 C.3   217  PRO217      0.1372
     65  C        -34.2240  -15.1100   14.9270 C.2   217  PRO217      0.2244
     66  O        -34.8180  -16.1330   15.2780 O.2   217  PRO217     -0.2868
     67  CB       -31.7460  -15.3760   14.5930 C.3   217  PRO217      0.0268
     68  CG       -31.3910  -16.6350   15.2810 C.3   217  PRO217      0.0207
     69  CD       -31.5280  -16.3520   16.7480 C.3   217  PRO217      0.0892
     70  N        -33.1710  -14.0460    9.3280 N.3   221  LEU221     -0.1245
     71  CA       -31.7660  -14.3870    9.5160 C.3   221  LEU221      0.1561
     72  C        -31.5280  -15.8830    9.3510 C.2   221  LEU221      0.2260
     73  O        -30.4990  -16.2930    8.8020 O.2   221  LEU221     -0.2867
     74  CB       -31.2910  -13.9190   10.8930 C.3   221  LEU221      0.0270
     75  CG       -29.8490  -14.2750   11.2540 C.3   221  LEU221      0.0019
     76  CD1      -28.9220  -13.8250   10.1470 C.3   221  LEU221      0.0001
     77  CD2      -29.4320  -13.6420   12.5710 C.3   221  LEU221      0.0001
     78  N        -30.7090  -17.4520    5.9420 N.3   224  LYS224     -0.1231
     79  CA       -29.4280  -17.1060    5.3460 C.3   224  LYS224      0.1693
     80  C        -28.2620  -17.8760    5.9530 C.2   224  LYS224      0.2592
     81  O        -27.1110  -17.6170    5.5870 O.2   224  LYS224     -0.2718
     82  CB       -29.1810  -15.5970    5.4690 C.3   224  LYS224      0.0285
     83  CG       -30.2230  -14.7450    4.7560 C.3   224  LYS224      0.0035
     84  CD       -29.8290  -13.2730    4.7130 C.3   224  LYS224      0.0206
     85  CE       -29.8560  -12.6430    6.0930 C.3   224  LYS224      0.1093
     86  NZ       -29.4010  -11.2250    6.0560 N.3   224  LYS224     -0.1314
     87  N        -28.5230  -18.8150    6.8580 N.am  225  ILE225     -0.1966
     88  CA       -27.4710  -19.5830    7.5170 C.3   225  ILE225      0.1727
     89  C        -27.2640  -20.8820    6.7490 C.2   225  ILE225      0.2617
     90  O        -28.1880  -21.6940    6.6220 O.2   225  ILE225     -0.2715
     91  CB       -27.8210  -19.8570    8.9860 C.3   225  ILE225      0.0290
     92  CG1      -28.0230  -18.5380    9.7350 C.3   225  ILE225      0.0022
     93  CG2      -26.7310  -20.6980    9.6480 C.3   225  ILE225      0.0023
     94  CD1      -28.1960  -18.7030   11.2250 C.3   225  ILE225      0.0001
     95  N        -26.0470  -21.0840    6.2430 N.am  226  SER226     -0.1936
     96  CA       -25.7830  -22.2180    5.3640 C.3   226  SER226      0.2055
     97  C        -25.5580  -23.5170    6.1300 C.2   226  SER226      0.2643
     98  O        -25.8250  -24.5980    5.5930 O.2   226  SER226     -0.2714
     99  CB       -24.5750  -21.9170    4.4780 C.3   226  SER226      0.2130
    100  OG       -23.4800  -21.4700    5.2550 O.3   226  SER226     -0.2179
    101  N        -25.0760  -23.4410    7.3680 N.am  227  SER227     -0.1949
    102  CA       -24.7470  -24.6360    8.1380 C.3   227  SER227      0.1924
    103  C        -26.0160  -25.2530    8.7150 C.2   227  SER227      0.2314
    104  O        -26.7600  -24.5870    9.4420 O.2   227  SER227     -0.2863
    105  CB       -23.7610  -24.2960    9.2530 C.3   227  SER227      0.2116
    106  OG       -23.5870  -25.3910   10.1380 O.3   227  SER227     -0.2180
    107  N        -25.5660  -25.6940   12.6330 N.3   230  ALA230     -0.1245
    108  CA       -25.7420  -24.4110   13.3050 C.3   230  ALA230      0.1562
    109  C        -27.1960  -23.9570   13.2580 C.2   230  ALA230      0.2260
    110  O        -27.7070  -23.3810   14.2260 O.2   230  ALA230     -0.2867
    111  CB       -24.8300  -23.3600   12.6740 C.3   230  ALA230      0.0290
    112  N        -29.4700  -23.4690   16.7730 N.3   234  ILE234     -0.1245
    113  CA       -30.0830  -22.1690   17.0330 C.3   234  ILE234      0.1561
    114  C        -31.5970  -22.3000   17.1410 C.2   234  ILE234      0.2260
    115  O        -32.2220  -21.7270   18.0420 O.2   234  ILE234     -0.2867
    116  CB       -29.6790  -21.1710   15.9340 C.3   234  ILE234      0.0252
    117  CG1      -28.2320  -20.7190   16.1300 C.3   234  ILE234      0.0019
    118  CG2      -30.6210  -19.9900   15.9160 C.3   234  ILE234      0.0019
    119  CD1      -27.6440  -20.0360   14.9200 C.3   234  ILE234      0.0001
    120  N        -27.5520   -8.9510   15.3960 N.3   266  LEU266     -0.1231
    121  CA       -27.1040  -10.2940   15.0350 C.3   266  LEU266      0.1693
    122  C        -26.7930  -10.3830   13.5470 C.2   266  LEU266      0.2592
    123  O        -25.7050  -10.8160   13.1500 O.2   266  LEU266     -0.2718
    124  CB       -28.1750  -11.3140   15.4240 C.3   266  LEU266      0.0284
    125  CG       -27.7200  -12.5670   16.1710 C.3   266  LEU266      0.0019
    126  CD1      -26.7760  -12.1970   17.3010 C.3   266  LEU266      0.0001
    127  CD2      -28.9250  -13.3250   16.7100 C.3   266  LEU266      0.0001
    128  N        -27.7440   -9.9750   12.7100 N.am  267  ASP267     -0.1960
    129  CA       -27.5860  -10.0200   11.2610 C.3   267  ASP267      0.1840
    130  C        -26.5370   -8.9970   10.8390 C.2   267  ASP267      0.2623
    131  O        -26.7890   -7.7870   10.8730 O.2   267  ASP267     -0.2715
    132  CB       -28.9320   -9.7470   10.5940 C.3   267  ASP267      0.1450
    133  CG       -28.9160   -9.9820    9.0920 C.2   267  ASP267      0.3671
    134  OD1      -27.8300  -10.2130    8.5180 O.co2 267  ASP267     -0.2456
    135  OD2      -30.0050   -9.9380    8.4820 O.co2 267  ASP267     -0.2456
    136  N        -25.3560   -9.4780   10.4400 N.am  268  SER268     -0.1936
    137  CA       -24.2840   -8.5730   10.0430 C.3   268  SER268      0.2055
    138  C        -24.5990   -7.8310    8.7490 C.2   268  SER268      0.2643
    139  O        -23.9630   -6.8090    8.4710 O.2   268  SER268     -0.2714
    140  CB       -22.9640   -9.3380    9.9090 C.3   268  SER268      0.2130
    141  OG       -23.1200  -10.5120    9.1300 O.3   268  SER268     -0.2179
    142  N        -25.5640   -8.3130    7.9590 N.am  269  ASP269     -0.1971
    143  CA       -25.9940   -7.5630    6.7820 C.3   269  ASP269      0.1709
    144  C        -26.7000   -6.2700    7.1700 C.2   269  ASP269      0.2293
    145  O        -26.6810   -5.2990    6.4050 O.2   269  ASP269     -0.2864
    146  CB       -26.9230   -8.4120    5.9100 C.3   269  ASP269      0.1436
    147  CG       -26.2550   -9.6660    5.3830 C.2   269  ASP269      0.3671
    148  OD1      -25.0130   -9.6760    5.2510 O.co2 269  ASP269     -0.2456
    149  OD2      -26.9760  -10.6430    5.0970 O.co2 269  ASP269     -0.2456
@<TRIPOS>BOND
     1    99   100    1
     2    99    96    1
     3    84    83    1
     4    84    85    1
     5    83    82    1
     6   149   147   ar
     7   148   147   ar
     8    79    82    1
     9    79    78    1
    10    79    80    1
    11    96    97    1
    12    96    95    1
    13   147   146    1
    14    81    80    2
    15    98    97    2
    16   146   143    1
    17    80    87   am
    18    44    46   ar
    19    44    42   ar
    20    86    85    1
    21    97   101   am
    22    95    89   am
    23    41    42   ar
    24    41    39   ar
    25   145   144    2
    26    46    45   ar
    27    90    89    2
    28    42    40   ar
    29    89    88    1
    30   143   144    1
    31   143   142    1
    32    87    88    1
    33   101   102    1
    34    39    38   ar
    35    88    91    1
    36    45    43   ar
    37   142   138   am
    38    40    38   ar
    39    40    43   ar
    40   102   103    1
    41   102   105    1
    42    38    37    1
    43   139   138    2
    44   135   133   ar
    45   134   133   ar
    46   103   104    2
    47   138   137    1
    48    73    72    2
    49    35    36    2
    50    35    34    1
    51    91    93    1
    52    91    92    1
    53   133   132    1
    54   141   140    1
    55   105   106    1
    56    70    71    1
    57    72    71    1
    58    71    74    1
    59    34    37    1
    60    34    33    1
    61    92    94    1
    62   140   137    1
    63   137   136    1
    64    76    75    1
    65    28    27    2
    66   136   130   am
    67   132   129    1
    68   130   131    2
    69   130   129    1
    70    74    75    1
    71    33    27   am
    72    27    26    1
    73    75    77    1
    74   129   128    1
    75    32    30   am
    76    16    14   ar
    77    13    12    1
    78    13    14    1
    79    12     9    1
    80    30    31    2
    81    30    29    1
    82   107   108    1
    83    26    29    1
    84    26    25    1
    85    14    15   ar
    86   111   108    1
    87   128   122   am
    88    11    10    2
    89   123   122    2
    90    20    19    2
    91   109   108    1
    92   109   110    2
    93     9    10    1
    94     9     8    1
    95   122   121    1
    96    25    19   am
    97    19    18    1
    98    21    18    1
    99    21    22    1
   100    67    68    1
   101    67    64    1
   102     8     3   am
   103    23    22    1
   104   119   117    1
   105    65    66    2
   106    65    64    1
   107   121   120    1
   108   121   124    1
   109    18    17    1
   110    68    69    1
   111   124   125    1
   112    64    63    1
   113    22    24    1
   114     3     4    2
   115     3     2    1
   116   118   116    1
   117   116   117    1
   118   116   113    1
   119   125   127    1
   120   125   126    1
   121    69    63    1
   122   112   113    1
   123     6     7    1
   124     6     5    1
   125     1     7    1
   126     1     2    1
   127   113   114    1
   128   114   115    2
   129     2     5    1
   130    53    52    1
   131    54    52    1
   132    62    60    1
   133    61    60    1
   134    52    51    1
   135    60    59    1
   136    51    48    1
   137    59    56    1
   138    56    55    1
   139    56    57    1
   140    48    49    1
   141    48    47    1
   142    50    49    2
   143    58    57    2
