@<TRIPOS>MOLECULE
tmp/5n65A01.pdb
 144 133 0 0 0
SMALL
GASTEIGER

@<TRIPOS>ATOM
      1  N         27.3870    7.4450  -21.7140 N.3    26  VAL26      -0.1245
      2  CA        25.9560    7.5730  -21.9720 C.3    26  VAL26       0.1561
      3  C         25.2110    7.7770  -20.6570 C.2    26  VAL26       0.2260
      4  O         24.2170    8.5130  -20.6020 O.2    26  VAL26      -0.2867
      5  CB        25.4260    6.3440  -22.7410 C.3    26  VAL26       0.0252
      6  CG1       23.9100    6.2190  -22.6280 C.3    26  VAL26       0.0019
      7  CG2       25.8370    6.4270  -24.2040 C.3    26  VAL26       0.0019
      8  N         27.5230    3.1950  -18.3840 N.3    34  VAL34      -0.1245
      9  CA        27.3860    2.6620  -19.7350 C.3    34  VAL34       0.1561
     10  C         28.0430    3.6140  -20.7240 C.2    34  VAL34       0.2260
     11  O         27.8550    4.8330  -20.6410 O.2    34  VAL34      -0.2867
     12  CB        25.9060    2.4360  -20.1050 C.3    34  VAL34       0.0252
     13  CG1       25.7820    1.9230  -21.5290 C.3    34  VAL34       0.0019
     14  CG2       25.2610    1.4670  -19.1290 C.3    34  VAL34       0.0019
     15  N         26.3880   -0.8330  -26.7080 N.3    47  ALA47      -0.1245
     16  CA        26.4920   -0.2240  -25.3910 C.3    47  ALA47       0.1562
     17  C         27.2540   -1.1730  -24.4780 C.2    47  ALA47       0.2260
     18  O         26.8970   -2.3510  -24.3640 O.2    47  ALA47      -0.2867
     19  CB        25.1130    0.0820  -24.8060 C.3    47  ALA47       0.0290
     20  N         28.4110   -1.8650  -20.6560 N.3    49  LYS49      -0.1245
     21  CA        28.1040   -1.5410  -19.2690 C.3    49  LYS49       0.1561
     22  C         29.1820   -2.1290  -18.3740 C.2    49  LYS49       0.2260
     23  O         29.4170   -3.3420  -18.3970 O.2    49  LYS49      -0.2867
     24  CB        26.7300   -2.0770  -18.8670 C.3    49  LYS49       0.0271
     25  CG        26.3740   -1.8180  -17.4110 C.3    49  LYS49       0.0035
     26  CD        25.0330   -2.4300  -17.0390 C.3    49  LYS49       0.0206
     27  CE        24.6120   -2.0280  -15.6320 C.3    49  LYS49       0.1093
     28  NZ        23.2670   -2.5650  -15.2860 N.3    49  LYS49      -0.1314
     29  N         20.6560  -11.8030  -18.1280 N.3    71  LEU71      -0.1245
     30  CA        20.9370  -11.3260  -19.4780 C.3    71  LEU71       0.1561
     31  C         21.4970  -12.4340  -20.3590 C.2    71  LEU71       0.2260
     32  O         21.3680  -12.3690  -21.5860 O.2    71  LEU71      -0.2867
     33  CB        21.8930  -10.1350  -19.4350 C.3    71  LEU71       0.0270
     34  CG        21.2950   -8.8710  -18.8170 C.3    71  LEU71       0.0019
     35  CD1       22.3450   -7.7840  -18.6390 C.3    71  LEU71       0.0001
     36  CD2       20.1440   -8.3650  -19.6710 C.3    71  LEU71       0.0001
     37  N         16.0460   -7.4410  -24.3240 N.3    80  ILE80      -0.1245
     38  CA        17.4710   -7.1330  -24.3530 C.3    80  ILE80       0.1561
     39  C         18.2770   -8.4050  -24.1170 C.2    80  ILE80       0.2260
     40  O         17.9030   -9.2690  -23.3100 O.2    80  ILE80      -0.2867
     41  CB        17.8030   -6.0450  -23.3170 C.3    80  ILE80       0.0252
     42  CG1       19.2810   -5.6680  -23.3810 C.3    80  ILE80       0.0019
     43  CG2       17.4300   -6.5000  -21.9100 C.3    80  ILE80       0.0019
     44  CD1       19.6700   -4.5790  -22.3980 C.3    80  ILE80       0.0001
     45  N         22.5850  -10.2700  -24.5440 N.3    82  LEU82      -0.1245
     46  CA        24.0240  -10.0480  -24.4950 C.3    82  LEU82       0.1561
     47  C         24.6450  -10.3180  -25.8570 C.2    82  LEU82       0.2260
     48  O         24.4380  -11.3880  -26.4370 O.2    82  LEU82      -0.2867
     49  CB        24.6880  -10.9470  -23.4510 C.3    82  LEU82       0.0270
     50  CG        24.6000  -10.5470  -21.9800 C.3    82  LEU82       0.0019
     51  CD1       25.3990  -11.5210  -21.1300 C.3    82  LEU82       0.0001
     52  CD2       25.0970   -9.1260  -21.7760 C.3    82  LEU82       0.0001
     53  N         29.3550   -5.8780  -19.6840 N.3   100  LEU100     -0.1231
     54  CA        28.2900   -6.4600  -20.4860 C.3   100  LEU100      0.1693
     55  C         28.1020   -5.6230  -21.7430 C.2   100  LEU100      0.2592
     56  O         28.1640   -4.3910  -21.6900 O.2   100  LEU100     -0.2718
     57  CB        26.9810   -6.5280  -19.6910 C.3   100  LEU100      0.0284
     58  CG        27.0940   -7.1450  -18.2940 C.3   100  LEU100      0.0019
     59  CD1       25.8510   -6.8450  -17.4710 C.3   100  LEU100      0.0001
     60  CD2       27.3350   -8.6470  -18.3730 C.3   100  LEU100      0.0001
     61  N         27.8810   -6.2920  -22.8730 N.am  101  VAL101     -0.1966
     62  CA        27.7590   -5.6350  -24.1700 C.3   101  VAL101      0.1727
     63  C         26.4160   -6.0100  -24.7790 C.2   101  VAL101      0.2617
     64  O         26.0410   -7.1880  -24.7940 O.2   101  VAL101     -0.2715
     65  CB        28.9120   -6.0180  -25.1160 C.3   101  VAL101      0.0290
     66  CG1       28.7920   -5.2570  -26.4290 C.3   101  VAL101      0.0023
     67  CG2       30.2540   -5.7450  -24.4550 C.3   101  VAL101      0.0023
     68  N         25.6970   -5.0080  -25.2790 N.am  102  THR102     -0.1937
     69  CA        24.4180   -5.2210  -25.9370 C.3   102  THR102      0.2028
     70  C         24.3110   -4.2790  -27.1300 C.2   102  THR102      0.2642
     71  O         25.0780   -3.3230  -27.2640 O.2   102  THR102     -0.2714
     72  CB        23.2460   -5.0020  -24.9700 C.3   102  THR102      0.1808
     73  OG1       22.0540   -5.5710  -25.5210 O.3   102  THR102     -0.2208
     74  CG2       23.0280   -3.5190  -24.7350 C.3   102  THR102      0.0379
     75  N         23.3450   -4.5640  -28.0020 N.am  103  HIS103     -0.1959
     76  CA        23.1330   -3.7400  -29.1850 C.3   103  HIS103      0.1787
     77  C         22.6390   -2.3550  -28.7860 C.2   103  HIS103      0.2620
     78  O         21.7080   -2.2240  -27.9870 O.2   103  HIS103     -0.2715
     79  CB        22.1310   -4.4090  -30.1240 C.3   103  HIS103      0.0785
     80  CG        21.9650   -3.7030  -31.4350 C.ar  103  HIS103      0.0821
     81  ND1       20.7300   -3.4210  -31.9800 N.ar  103  HIS103     -0.2267
     82  CD2       22.8810   -3.2220  -32.3100 C.ar  103  HIS103      0.1154
     83  CE1       20.8920   -2.7970  -33.1340 C.ar  103  HIS103      0.1986
     84  NE2       22.1870   -2.6640  -33.3570 N.ar  103  HIS103     -0.2212
     85  N         23.2570   -1.3180  -29.3490 N.am  104  LEU104     -0.1963
     86  CA        22.8950    0.0470  -28.9900 C.3   104  LEU104      0.1728
     87  C         21.5250    0.4020  -29.5560 C.2   104  LEU104      0.2616
     88  O         21.2660    0.2210  -30.7500 O.2   104  LEU104     -0.2715
     89  CB        23.9460    1.0300  -29.5010 C.3   104  LEU104      0.0311
     90  CG        23.7860    2.4800  -29.0380 C.3   104  LEU104      0.0022
     91  CD1       23.9330    2.5760  -27.5270 C.3   104  LEU104      0.0001
     92  CD2       24.7890    3.3850  -29.7380 C.3   104  LEU104      0.0001
     93  N         20.6470    0.9050  -28.6940 N.am  105  MET105     -0.1977
     94  CA        19.3240    1.3660  -29.0890 C.3   105  MET105      0.1605
     95  C         19.2780    2.8850  -29.0040 C.2   105  MET105      0.2287
     96  O         19.8010    3.4790  -28.0550 O.2   105  MET105     -0.2864
     97  CB        18.2390    0.7480  -28.2050 C.3   105  MET105      0.0413
     98  CG        18.2640   -0.7730  -28.1740 C.3   105  MET105      0.0598
     99  SD        17.8300   -1.5330  -29.7490 S.3   105  MET105     -0.1393
    100  CE        16.0540   -1.2960  -29.7670 C.3   105  MET105      0.0692
    101  N         10.2290    4.2470  -20.2720 N.3   150  SER150     -0.1202
    102  CA        11.6800    4.3930  -20.2170 C.3   150  SER150      0.2020
    103  C         12.3990    3.0500  -20.1730 C.2   150  SER150      0.2618
    104  O         13.6100    3.0020  -20.4100 O.2   150  SER150     -0.2717
    105  CB        12.0850    5.2460  -19.0160 C.3   150  SER150      0.2103
    106  OG        11.6970    4.6320  -17.8010 O.3   150  SER150     -0.2182
    107  N         11.6880    1.9620  -19.8730 N.am  151  ASN151     -0.1974
    108  CA        12.2530    0.6210  -19.9160 C.3   151  ASN151      0.1688
    109  C         11.9310   -0.0990  -21.2230 C.2   151  ASN151      0.2292
    110  O         11.9720   -1.3330  -21.2730 O.2   151  ASN151     -0.2864
    111  CB        11.7620   -0.2000  -18.7230 C.3   151  ASN151      0.1181
    112  CG        12.3440    0.2810  -17.4060 C.2   151  ASN151      0.2629
    113  OD1       13.4030    0.9090  -17.3720 O.2   151  ASN151     -0.2716
    114  ND2       11.6520   -0.0140  -16.3110 N.am  151  ASN151     -0.0877
    115  N         12.9750    0.1660  -25.3040 N.3   153  ALA153     -0.1245
    116  CA        13.8160    0.7780  -26.3220 C.3   153  ALA153      0.1562
    117  C         13.2870    0.4720  -27.7170 C.2   153  ALA153      0.2260
    118  O         12.7330   -0.6000  -27.9720 O.2   153  ALA153     -0.2867
    119  CB        15.2620    0.2940  -26.2020 C.3   153  ALA153      0.0290
    120  N         12.4470   -3.4170  -27.9000 N.3   161  LYS161     -0.1245
    121  CA        12.9990   -4.3680  -26.9470 C.3   161  LYS161      0.1561
    122  C         12.6140   -3.9670  -25.5310 C.2   161  LYS161      0.2260
    123  O         12.6390   -2.7830  -25.1830 O.2   161  LYS161     -0.2867
    124  CB        14.5250   -4.4400  -27.0320 C.3   161  LYS161      0.0271
    125  CG        15.0900   -4.9400  -28.3420 C.3   161  LYS161      0.0035
    126  CD        16.6000   -5.0150  -28.2270 C.3   161  LYS161      0.0206
    127  CE        17.2430   -5.6390  -29.4430 C.3   161  LYS161      0.1093
    128  NZ        18.6670   -5.9710  -29.1630 N.3   161  LYS161     -0.1314
    129  N         13.6610   -3.6980  -21.7840 N.3   163  LEU163     -0.1231
    130  CA        14.9480   -3.5060  -21.1290 C.3   163  LEU163      0.1693
    131  C         14.9100   -3.9820  -19.6800 C.2   163  LEU163      0.2592
    132  O         13.8570   -4.2980  -19.1210 O.2   163  LEU163     -0.2718
    133  CB        15.3640   -2.0320  -21.1760 C.3   163  LEU163      0.0284
    134  CG        15.4480   -1.3470  -22.5390 C.3   163  LEU163      0.0019
    135  CD1       15.8520    0.1120  -22.3780 C.3   163  LEU163      0.0001
    136  CD2       16.4310   -2.0820  -23.4270 C.3   163  LEU163      0.0001
    137  N         16.0910   -4.0250  -19.0740 N.am  164  ASP164     -0.1974
    138  CA        16.2140   -4.2880  -17.6480 C.3   164  ASP164      0.1709
    139  C         16.1620   -2.9720  -16.8800 C.2   164  ASP164      0.2293
    140  O         16.1610   -2.9550  -15.6500 O.2   164  ASP164     -0.2864
    141  CB        17.5120   -5.0400  -17.3430 C.3   164  ASP164      0.1436
    142  CG        18.7440   -4.3040  -17.8380 C.2   164  ASP164      0.3671
    143  OD1       18.6020   -3.4620  -18.7490 O.co2 164  ASP164     -0.2456
    144  OD2       19.8520   -4.5650  -17.3190 O.co2 164  ASP164     -0.2456
@<TRIPOS>BOND
     1    84    83   ar
     2    84    82   ar
     3    83    81   ar
     4    82    80   ar
     5    81    80   ar
     6    80    79    1
     7    88    87    2
     8    79    76    1
     9   100    99    1
    10    99    98    1
    11    92    90    1
    12    87    86    1
    13    87    93   am
    14    89    90    1
    15    89    86    1
    16   127   128    1
    17   127   126    1
    18    85    86    1
    19    85    77   am
    20    76    77    1
    21    76    75    1
    22    94    95    1
    23    94    93    1
    24    94    97    1
    25    90    91    1
    26    95    96    2
    27    77    78    2
    28   125   126    1
    29   125   124    1
    30    97    98    1
    31    75    70   am
    32   118   117    2
    33   120   121    1
    34   117   116    1
    35    71    70    2
    36    70    69    1
    37   124   121    1
    38   121   122    1
    39    15    16    1
    40    48    47    2
    41    66    65    1
    42   116   119    1
    43   116   115    1
    44    69    68    1
    45    69    72    1
    46    47    46    1
    47   122   123    2
    48    73    72    1
    49    16    19    1
    50    16    17    1
    51    68    63   am
    52    65    67    1
    53    65    62    1
    54    72    74    1
    55    64    63    2
    56    63    62    1
    57    45    46    1
    58    46    49    1
    59    17    18    2
    60    38    37    1
    61    38    39    1
    62    38    41    1
    63     7     5    1
    64    62    61    1
    65    39    40    2
    66    49    50    1
    67   136   134    1
    68    42    41    1
    69    42    44    1
    70    41    43    1
    71    61    55   am
    72     5     6    1
    73     5     2    1
    74   134   135    1
    75   134   133    1
    76    50    52    1
    77    50    51    1
    78     2     1    1
    79     2     3    1
    80   129   130    1
    81    55    56    2
    82    55    54    1
    83    32    31    2
    84    13    12    1
    85   110   109    2
    86   109   108    1
    87   133   130    1
    88   130   131    1
    89    10    11    2
    90    10     9    1
    91     3     4    2
    92    20    21    1
    93    54    57    1
    94    54    53    1
    95   104   103    2
    96    31    30    1
    97   101   102    1
    98   102   103    1
    99   102   105    1
   100   103   107   am
   101    12     9    1
   102    12    14    1
   103   108   107    1
   104   108   111    1
   105     9     8    1
   106    57    58    1
   107   131   132    2
   108   131   137   am
   109    36    34    1
   110    30    33    1
   111    30    29    1
   112    33    34    1
   113    21    24    1
   114    21    22    1
   115   137   138    1
   116   105   106    1
   117    24    25    1
   118    34    35    1
   119   143   142   ar
   120   111   112    1
   121    23    22    2
   122    60    58    1
   123    58    59    1
   124   142   141    1
   125   142   144   ar
   126   138   141    1
   127   138   139    1
   128    25    26    1
   129   112   113    2
   130   112   114   am
   131    26    27    1
   132   139   140    2
   133    27    28    1
