@<TRIPOS>MOLECULE
tmp/5n65A00.pdb
 165 158 0 0 0
SMALL
GASTEIGER

@<TRIPOS>ATOM
      1  N         -2.3000   -2.1550   -9.2400 N.3   172  PRO172     -0.2102
      2  CA        -2.8160   -1.7710   -7.9120 C.3   172  PRO172      0.1504
      3  C         -2.4850   -2.7580   -6.8010 C.2   172  PRO172      0.2575
      4  O         -2.3600   -2.3350   -5.6450 O.2   172  PRO172     -0.2718
      5  CB        -4.3340   -1.6690   -8.1450 C.3   172  PRO172      0.0282
      6  CG        -4.5880   -2.4060   -9.4350 C.3   172  PRO172      0.0208
      7  CD        -3.3610   -2.2370  -10.2570 C.3   172  PRO172      0.0893
      8  N         -2.3320   -4.0520   -7.1010 N.am  173  GLU173     -0.1980
      9  CA        -1.9900   -4.9990   -6.0430 C.3   173  GLU173      0.1602
     10  C         -0.5530   -4.8350   -5.5650 C.2   173  GLU173      0.2287
     11  O         -0.2490   -5.1970   -4.4230 O.2   173  GLU173     -0.2864
     12  CB        -2.2340   -6.4400   -6.5050 C.3   173  GLU173      0.0415
     13  CG        -1.4740   -6.8510   -7.7490 C.3   173  GLU173      0.1163
     14  CD        -2.2700   -6.6310   -9.0220 C.2   173  GLU173      0.3649
     15  OE1       -3.1720   -5.7650   -9.0270 O.co2 173  GLU173     -0.2457
     16  OE2       -2.0000   -7.3350  -10.0180 O.co2 173  GLU173     -0.2457
     17  N         -0.6080   -1.8250   -3.1410 N.3   176  LEU176     -0.1231
     18  CA        -1.1310   -2.2070   -1.8370 C.3   176  LEU176      0.1693
     19  C         -0.2900   -3.2770   -1.1510 C.2   176  LEU176      0.2592
     20  O         -0.7090   -3.8060   -0.1160 O.2   176  LEU176     -0.2718
     21  CB        -2.5720   -2.6940   -1.9720 C.3   176  LEU176      0.0284
     22  CG        -3.6280   -1.6560   -2.3440 C.3   176  LEU176      0.0019
     23  CD1       -4.9790   -2.3320   -2.4380 C.3   176  LEU176      0.0001
     24  CD2       -3.6600   -0.5300   -1.3230 C.3   176  LEU176      0.0001
     25  N          0.8660   -3.6230   -1.7170 N.am  177  ASN177     -0.1960
     26  CA         1.8370   -4.5120   -1.0820 C.3   177  ASN177      0.1819
     27  C          1.2940   -5.9290   -0.8880 C.2   177  ASN177      0.2621
     28  O          1.6770   -6.6160    0.0610 O.2   177  ASN177     -0.2715
     29  CB         2.3140   -3.9360    0.2590 C.3   177  ASN177      0.1195
     30  CG         3.6800   -4.4520    0.6690 C.2   177  ASN177      0.2630
     31  OD1        4.6030   -4.5170   -0.1420 O.2   177  ASN177     -0.2716
     32  ND2        3.8110   -4.8300    1.9360 N.am  177  ASN177     -0.0877
     33  N          0.4050   -6.3840   -1.7730 N.am  178  TRP178     -0.1974
     34  CA        -0.0490   -7.7680   -1.7090 C.3   178  TRP178      0.1640
     35  C          1.1260   -8.7040   -1.9660 C.2   178  TRP178      0.2290
     36  O          1.9390   -8.4740   -2.8640 O.2   178  TRP178     -0.2864
     37  CB        -1.1660   -8.0270   -2.7250 C.3   178  TRP178      0.0576
     38  CG        -1.7360   -9.4240   -2.6350 C.ar  178  TRP178      0.0006
     39  CD1       -1.9110  -10.1700   -1.4990 C.ar  178  TRP178      0.0946
     40  CD2       -2.1770  -10.2480   -3.7240 C.ar  178  TRP178      0.0152
     41  NE1       -2.4450  -11.3970   -1.8140 N.ar  178  TRP178     -0.2442
     42  CE2       -2.6160  -11.4720   -3.1720 C.ar  178  TRP178      0.0810
     43  CE3       -2.2480  -10.0700   -5.1110 C.ar  178  TRP178      0.0012
     44  CZ2       -3.1160  -12.5110   -3.9590 C.ar  178  TRP178      0.0191
     45  CZ3       -2.7490  -11.1050   -5.8920 C.ar  178  TRP178      0.0001
     46  CH2       -3.1740  -12.3100   -5.3140 C.ar  178  TRP178      0.0015
     47  N         -3.7090    5.3770   -6.4150 N.3   213  LEU213     -0.1245
     48  CA        -4.8250    4.4580   -6.2210 C.3   213  LEU213      0.1561
     49  C         -6.1570    5.1680   -6.4220 C.2   213  LEU213      0.2260
     50  O         -7.1250    4.5660   -6.9040 O.2   213  LEU213     -0.2867
     51  CB        -4.7540    3.8290   -4.8290 C.3   213  LEU213      0.0270
     52  CG        -3.5530    2.9190   -4.5720 C.3   213  LEU213      0.0019
     53  CD1       -3.2790    2.7820   -3.0790 C.3   213  LEU213      0.0001
     54  CD2       -3.7940    1.5590   -5.1940 C.3   213  LEU213      0.0001
     55  N         -6.9030    5.3390  -10.2020 N.3   216  ILE216     -0.1231
     56  CA        -7.2120    4.0300  -10.7760 C.3   216  ILE216      0.1692
     57  C         -8.6540    3.6430  -10.4740 C.2   216  ILE216      0.2591
     58  O         -9.3970    3.2010  -11.3600 O.2   216  ILE216     -0.2718
     59  CB        -6.2230    2.9730  -10.2550 C.3   216  ILE216      0.0266
     60  CG1       -4.8310    3.2130  -10.8420 C.3   216  ILE216      0.0019
     61  CG2       -6.7160    1.5710  -10.5720 C.3   216  ILE216      0.0020
     62  CD1       -3.7300    2.4280  -10.1530 C.3   216  ILE216      0.0001
     63  N         -9.0730    3.8100   -9.2150 N.am  217  LEU217     -0.1980
     64  CA       -10.4340    3.4440   -8.8330 C.3   217  LEU217      0.1596
     65  C        -11.4720    4.2890   -9.5570 C.2   217  LEU217      0.2287
     66  O        -12.5890    3.8210   -9.7960 O.2   217  LEU217     -0.2864
     67  CB       -10.6200    3.5760   -7.3220 C.3   217  LEU217      0.0297
     68  CG        -9.8240    2.6220   -6.4330 C.3   217  LEU217      0.0022
     69  CD1      -10.1440    2.8780   -4.9680 C.3   217  LEU217      0.0001
     70  CD2      -10.1060    1.1770   -6.8030 C.3   217  LEU217      0.0001
     71  N        -13.6980   -2.0950   -5.9400 N.3   223  PRO223     -0.2116
     72  CA       -13.7010   -3.5600   -6.0270 C.3   223  PRO223      0.1372
     73  C        -15.1060   -4.1400   -5.9470 C.2   223  PRO223      0.2244
     74  O        -15.9500   -3.6840   -5.1710 O.2   223  PRO223     -0.2868
     75  CB       -12.8520   -3.9840   -4.8240 C.3   223  PRO223      0.0268
     76  CG       -11.9380   -2.8450   -4.6060 C.3   223  PRO223      0.0207
     77  CD       -12.7090   -1.6070   -4.9630 C.3   223  PRO223      0.0892
     78  N        -14.2260   -9.7650   -6.0000 N.3   227  LEU227     -0.1245
     79  CA       -12.8380   -9.4460   -5.6850 C.3   227  LEU227      0.1561
     80  C        -12.6370   -9.2400   -4.1860 C.2   227  LEU227      0.2260
     81  O        -11.6030   -9.6350   -3.6330 O.2   227  LEU227     -0.2867
     82  CB       -12.3990   -8.2080   -6.4670 C.3   227  LEU227      0.0270
     83  CG       -11.0110   -7.6460   -6.1590 C.3   227  LEU227      0.0019
     84  CD1       -9.9470   -8.7160   -6.3290 C.3   227  LEU227      0.0001
     85  CD2      -10.7110   -6.4430   -7.0390 C.3   227  LEU227      0.0001
     86  N        -11.6060  -12.2120   -2.0330 N.3   230  LYS230     -0.1231
     87  CA       -10.2600  -12.7540   -2.1390 C.3   230  LYS230      0.1693
     88  C         -9.2240  -11.8950   -1.4280 C.2   230  LYS230      0.2592
     89  O         -8.0220  -12.1320   -1.5810 O.2   230  LYS230     -0.2718
     90  CB        -9.8890  -12.9280   -3.6120 C.3   230  LYS230      0.0285
     91  CG       -10.8560  -13.8330   -4.3700 C.3   230  LYS230      0.0035
     92  CD       -10.3700  -14.1580   -5.7750 C.3   230  LYS230      0.0206
     93  CE       -10.5760  -12.9960   -6.7270 C.3   230  LYS230      0.1093
     94  NZ       -10.1760  -13.3610   -8.1160 N.3   230  LYS230     -0.1314
     95  N         -9.6620  -10.9090   -0.6530 N.am  231  ILE231     -0.1966
     96  CA        -8.7700  -10.0090    0.0690 C.3   231  ILE231      0.1727
     97  C         -8.6490  -10.5220    1.4990 C.2   231  ILE231      0.2617
     98  O         -9.6280  -10.5340    2.2550 O.2   231  ILE231     -0.2715
     99  CB        -9.2740   -8.5600    0.0270 C.3   231  ILE231      0.0290
    100  CG1       -9.2700   -8.0460   -1.4140 C.3   231  ILE231      0.0022
    101  CG2       -8.4210   -7.6740    0.9240 C.3   231  ILE231      0.0023
    102  CD1       -9.9270   -6.6950   -1.5890 C.3   231  ILE231      0.0001
    103  N         -7.4400  -10.9430    1.8720 N.am  232  SER232     -0.1936
    104  CA        -7.2160  -11.5490    3.1780 C.3   232  SER232      0.2055
    105  C         -7.0040  -10.5190    4.2780 C.2   232  SER232      0.2643
    106  O         -7.2370  -10.8290    5.4520 O.2   232  SER232     -0.2714
    107  CB        -6.0110  -12.4880    3.1200 C.3   232  SER232      0.2130
    108  OG        -4.8480  -11.7870    2.7180 O.3   232  SER232     -0.2179
    109  N         -6.5790   -9.3070    3.9300 N.am  233  SER233     -0.1949
    110  CA        -6.2720   -8.2840    4.9240 C.3   233  SER233      0.1924
    111  C         -7.5620   -7.7020    5.4900 C.2   233  SER233      0.2314
    112  O         -8.3900   -7.1720    4.7390 O.2   233  SER233     -0.2863
    113  CB        -5.4140   -7.1840    4.3030 C.3   233  SER233      0.2116
    114  OG        -5.2160   -6.1120    5.2110 O.3   233  SER233     -0.2180
    115  N         -7.4480   -3.7540    5.0260 N.3   236  ALA236     -0.1245
    116  CA        -7.7120   -3.3720    3.6430 C.3   236  ALA236      0.1562
    117  C         -9.1750   -3.6000    3.2890 C.2   236  ALA236      0.2260
    118  O         -9.8340   -2.7250    2.7160 O.2   236  ALA236     -0.2867
    119  CB        -6.7990   -4.1540    2.6970 C.3   236  ALA236      0.0290
    120  N        -11.9210   -0.6250    2.2000 N.3   240  ILE240     -0.1245
    121  CA       -12.5380   -0.6350    0.8770 C.3   240  ILE240      0.1561
    122  C        -14.0540   -0.5470    0.9930 C.2   240  ILE240      0.2260
    123  O        -14.7120    0.1580    0.2170 O.2   240  ILE240     -0.2867
    124  CB       -12.0970   -1.8870    0.0960 C.3   240  ILE240      0.0252
    125  CG1      -10.5980   -1.8170   -0.2040 C.3   240  ILE240      0.0019
    126  CG2      -12.8940   -2.0280   -1.1890 C.3   240  ILE240      0.0019
    127  CD1      -10.0020   -3.1350   -0.6600 C.3   240  ILE240      0.0001
    128  N        -15.5770    2.9900    1.5070 N.3   243  LEU243     -0.1245
    129  CA       -15.5250    3.9530    0.4140 C.3   243  LEU243      0.1561
    130  C        -16.8670    4.0540   -0.2970 C.2   243  LEU243      0.2260
    131  O        -17.5840    3.0600   -0.4550 O.2   243  LEU243     -0.2867
    132  CB       -14.4490    3.5590   -0.5980 C.3   243  LEU243      0.0270
    133  CG       -12.9870    3.5480   -0.1580 C.3   243  LEU243      0.0019
    134  CD1      -12.1160    2.9460   -1.2520 C.3   243  LEU243      0.0001
    135  CD2      -12.5240    4.9530    0.1890 C.3   243  LEU243      0.0001
    136  N         -9.3300   -4.7280  -12.4410 N.3   272  LEU272     -0.1231
    137  CA        -8.8240   -4.6320  -11.0780 C.3   272  LEU272      0.1693
    138  C         -8.3790   -5.9950  -10.5620 C.2   272  LEU272      0.2592
    139  O         -7.3070   -6.1230   -9.9580 O.2   272  LEU272     -0.2718
    140  CB        -9.8890   -4.0310  -10.1630 C.3   272  LEU272      0.0284
    141  CG        -9.3690   -3.4400   -8.8530 C.3   272  LEU272      0.0019
    142  CD1       -8.2060   -2.5000   -9.1250 C.3   272  LEU272      0.0001
    143  CD2      -10.4820   -2.7080   -8.1230 C.3   272  LEU272      0.0001
    144  N         -9.1830   -7.0280  -10.8090 N.am  273  ASP273     -0.1960
    145  CA        -8.8860   -8.3840  -10.3540 C.3   273  ASP273      0.1840
    146  C         -7.8160   -8.9890  -11.2560 C.2   273  ASP273      0.2623
    147  O         -8.0620   -9.2430  -12.4400 O.2   273  ASP273     -0.2715
    148  CB       -10.1600   -9.2240  -10.3620 C.3   273  ASP273      0.1450
    149  CG       -10.0110  -10.5290   -9.6020 C.2   273  ASP273      0.3671
    150  OD1       -8.8680  -10.9530   -9.3290 O.co2 273  ASP273     -0.2456
    151  OD2      -11.0520  -11.1420   -9.2850 O.co2 273  ASP273     -0.2456
    152  N         -6.6290   -9.2360  -10.6960 N.am  274  SER274     -0.1936
    153  CA        -5.5210   -9.7490  -11.4940 C.3   274  SER274      0.2055
    154  C         -5.7660  -11.1680  -11.9920 C.2   274  SER274      0.2643
    155  O         -5.1310  -11.5870  -12.9650 O.2   274  SER274     -0.2714
    156  CB        -4.2210   -9.6970  -10.6910 C.3   274  SER274      0.2130
    157  OG        -4.2940  -10.5260   -9.5440 O.3   274  SER274     -0.2179
    158  N         -6.6620  -11.9180  -11.3480 N.am  275  ASP275     -0.1971
    159  CA        -6.9940  -13.2500  -11.8350 C.3   275  ASP275      0.1709
    160  C         -7.8290  -13.2060  -13.1050 C.2   275  ASP275      0.2293
    161  O         -7.8850  -14.2040  -13.8300 O.2   275  ASP275     -0.2864
    162  CB        -7.7410  -14.0420  -10.7610 C.3   275  ASP275      0.1436
    163  CG        -6.9300  -14.2150   -9.4930 C.2   275  ASP275      0.3671
    164  OD1       -5.6870  -14.2880   -9.5820 O.co2 275  ASP275     -0.2456
    165  OD2       -7.5350  -14.2740   -8.4020 O.co2 275  ASP275     -0.2456
@<TRIPOS>BOND
     1   161   160    2
     2   160   159    1
     3   155   154    2
     4   136   137    1
     5   147   146    2
     6   154   153    1
     7   154   158   am
     8   159   158    1
     9   159   162    1
    10   153   152    1
    11   153   156    1
    12    58    57    2
    13   146   152   am
    14   146   145    1
    15   137   138    1
    16   137   140    1
    17    60    59    1
    18    60    62    1
    19   144   138   am
    20   144   145    1
    21    56    57    1
    22    56    59    1
    23    56    55    1
    24   162   163    1
    25   156   157    1
    26    61    59    1
    27   138   139    2
    28    57    63   am
    29   148   145    1
    30   148   149    1
    31     7     6    1
    32     7     1    1
    33   140   141    1
    34    16    14   ar
    35    66    65    2
    36   149   150   ar
    37   149   151   ar
    38   164   163   ar
    39    65    64    1
    40   163   165   ar
    41     6     5    1
    42     1     2    1
    43    63    64    1
    44   142   141    1
    45    15    14   ar
    46    14    13    1
    47   141   143    1
    48    64    67    1
    49     5     2    1
    50    94    93    1
    51     2     3    1
    52    13    12    1
    53    67    68    1
    54     8     3   am
    55     8     9    1
    56    85    83    1
    57    50    49    2
    58    70    68    1
    59     3     4    2
    60    93    92    1
    61    12     9    1
    62    82    83    1
    63    82    79    1
    64    68    69    1
    65    49    48    1
    66    47    48    1
    67    84    83    1
    68    48    51    1
    69     9    10    1
    70    72    73    1
    71    72    71    1
    72    72    75    1
    73    78    79    1
    74    73    74    2
    75    71    77    1
    76    45    46   ar
    77    45    43   ar
    78    92    91    1
    79    79    80    1
    80    10    11    2
    81    46    44   ar
    82    54    52    1
    83    43    40   ar
    84    77    76    1
    85    51    52    1
    86    75    76    1
    87    52    53    1
    88    91    90    1
    89    80    81    2
    90    44    42   ar
    91    40    42   ar
    92    40    38   ar
    93    90    87    1
    94    42    41   ar
    95    17    18    1
    96    36    35    2
    97    37    38    1
    98    37    34    1
    99    38    39   ar
   100    23    22    1
   101    22    21    1
   102    22    24    1
   103    87    86    1
   104    87    88    1
   105    21    18    1
   106    35    34    1
   107    18    19    1
   108    41    39   ar
   109    33    34    1
   110    33    27   am
   111    25    19   am
   112    25    26    1
   113   102   100    1
   114    89    88    2
   115    88    95   am
   116   100    99    1
   117   134   133    1
   118   126   124    1
   119    19    20    2
   120    26    27    1
   121    26    29    1
   122    27    28    2
   123   127   125    1
   124    95    96    1
   125   132   133    1
   126   132   129    1
   127   131   130    2
   128   130   129    1
   129   125   124    1
   130   133   135    1
   131    31    30    2
   132    99    96    1
   133    99   101    1
   134    96    97    1
   135   124   121    1
   136   123   122    2
   137    29    30    1
   138   129   128    1
   139    30    32   am
   140   121   122    1
   141   121   120    1
   142    97   103   am
   143    97    98    2
   144   103   104    1
   145   119   116    1
   146   118   117    2
   147   108   107    1
   148   107   104    1
   149   104   105    1
   150   117   116    1
   151   116   115    1
   152   109   105   am
   153   109   110    1
   154   105   106    2
   155   113   110    1
   156   113   114    1
   157   112   111    2
   158   110   111    1
