@<TRIPOS>MOLECULE
tmp/5n66A00.pdb
 177 171 0 0 0
SMALL
GASTEIGER

@<TRIPOS>ATOM
      1  N        -20.6110  -12.7530   17.1880 N.3   170  PRO170     -0.2102
      2  CA       -21.1690  -14.1120   17.2350 C.3   170  PRO170      0.1504
      3  C        -20.9380  -14.9120   15.9640 C.2   170  PRO170      0.2575
      4  O        -20.8220  -16.1410   16.0370 O.2   170  PRO170     -0.2718
      5  CB       -22.6630  -13.8710   17.4900 C.3   170  PRO170      0.0282
      6  CG       -22.9100  -12.4610   17.0470 C.3   170  PRO170      0.0208
      7  CD       -21.6500  -11.7190   17.3660 C.3   170  PRO170      0.0893
      8  N        -20.8680  -14.2610   14.7990 N.am  171  GLU171     -0.1980
      9  CA       -20.5720  -14.9950   13.5730 C.3   171  GLU171      0.1602
     10  C        -19.1550  -15.5530   13.5680 C.2   171  GLU171      0.2287
     11  O        -18.8840  -16.5120   12.8390 O.2   171  GLU171     -0.2864
     12  CB       -20.7920  -14.1080   12.3430 C.3   171  GLU171      0.0415
     13  CG       -20.0170  -12.8020   12.3450 C.3   171  GLU171      0.1163
     14  CD       -20.8080  -11.6530   12.9380 C.2   171  GLU171      0.3649
     15  OE1      -21.7370  -11.9120   13.7300 O.co2 171  GLU171     -0.2457
     16  OE2      -20.5030  -10.4880   12.6050 O.co2 171  GLU171     -0.2457
     17  N        -19.4110  -18.8500   15.9970 N.3   174  LEU174     -0.1231
     18  CA       -19.9290  -20.0160   15.2960 C.3   174  LEU174      0.1693
     19  C        -19.1130  -20.3850   14.0720 C.2   174  LEU174      0.2592
     20  O        -19.5040  -21.3110   13.3470 O.2   174  LEU174     -0.2718
     21  CB       -21.3700  -19.7860   14.8690 C.3   174  LEU174      0.0284
     22  CG       -22.4020  -19.8750   15.9770 C.3   174  LEU174      0.0019
     23  CD1      -23.7680  -19.7430   15.3100 C.3   174  LEU174      0.0001
     24  CD2      -22.2300  -21.1910   16.7780 C.3   174  LEU174      0.0001
     25  N        -18.0170  -19.6730   13.8170 N.am  175  ASN175     -0.1960
     26  CA       -17.0880  -20.0230   12.7490 C.3   175  ASN175      0.1819
     27  C        -17.7430  -19.8860   11.3760 C.2   175  ASN175      0.2621
     28  O        -17.6150  -20.7520   10.5070 O.2   175  ASN175     -0.2715
     29  CB       -16.5270  -21.4310   12.9650 C.3   175  ASN175      0.1195
     30  CG       -15.6130  -21.5120   14.1720 C.2   175  ASN175      0.2630
     31  OD1      -14.3930  -21.4610   14.0340 O.2   175  ASN175     -0.2716
     32  ND2      -16.1960  -21.6320   15.3640 N.am  175  ASN175     -0.0877
     33  N        -18.4530  -18.7760   11.1860 N.am  176  TRP176     -0.1974
     34  CA       -18.8940  -18.4060    9.8500 C.3   176  TRP176      0.1640
     35  C        -17.7020  -17.9110    9.0450 C.2   176  TRP176      0.2290
     36  O        -16.8910  -17.1160    9.5290 O.2   176  TRP176     -0.2864
     37  CB       -19.9780  -17.3270    9.9030 C.3   176  TRP176      0.0576
     38  CG       -20.5560  -17.0100    8.5460 C.ar  176  TRP176      0.0006
     39  CD1      -20.6480  -17.8580    7.4800 C.ar  176  TRP176      0.0946
     40  CD2      -21.1010  -15.7570    8.1060 C.ar  176  TRP176      0.0152
     41  NE1      -21.2230  -17.2170    6.4090 N.ar  176  TRP176     -0.2442
     42  CE2      -21.5090  -15.9260    6.7660 C.ar  176  TRP176      0.0810
     43  CE3      -21.2860  -14.5100    8.7140 C.ar  176  TRP176      0.0012
     44  CZ2      -22.0900  -14.9000    6.0260 C.ar  176  TRP176      0.0191
     45  CZ3      -21.8650  -13.4920    7.9740 C.ar  176  TRP176      0.0001
     46  CH2      -22.2580  -13.6940    6.6460 C.ar  176  TRP176      0.0015
     47  N        -22.1710  -17.4010   23.8040 N.3   211  LEU211     -0.1245
     48  CA       -23.3870  -17.2060   23.0230 C.3   211  LEU211      0.1561
     49  C        -24.6220  -17.1360   23.9100 C.2   211  LEU211      0.2260
     50  O        -25.5770  -16.4200   23.5870 O.2   211  LEU211     -0.2867
     51  CB       -23.5370  -18.3260   21.9940 C.3   211  LEU211      0.0270
     52  CG       -22.4010  -18.4430   20.9760 C.3   211  LEU211      0.0019
     53  CD1      -22.6480  -19.6020   20.0320 C.3   211  LEU211      0.0001
     54  CD2      -22.2340  -17.1450   20.2030 C.3   211  LEU211      0.0001
     55  N        -24.7990  -13.6890   25.1360 N.3   214  ILE214     -0.1231
     56  CA       -25.1490  -12.7640   24.0600 C.3   214  ILE214      0.1692
     57  C        -26.6470  -12.8080   23.7890 C.2   214  ILE214      0.2591
     58  O        -27.3060  -11.7670   23.6700 O.2   214  ILE214     -0.2718
     59  CB       -24.3360  -13.0820   22.7910 C.3   214  ILE214      0.0266
     60  CG1      -22.8630  -12.7180   22.9910 C.3   214  ILE214      0.0019
     61  CG2      -24.9100  -12.3520   21.5930 C.3   214  ILE214      0.0020
     62  CD1      -21.9750  -13.1250   21.8340 C.3   214  ILE214      0.0001
     63  N        -27.2090  -14.0180   23.6990 N.am  215  LEU215     -0.1980
     64  CA       -28.6220  -14.1710   23.3770 C.3   215  LEU215      0.1596
     65  C        -29.5340  -13.6530   24.4770 C.2   215  LEU215      0.2287
     66  O        -30.6760  -13.2800   24.1910 O.2   215  LEU215     -0.2864
     67  CB       -28.9470  -15.6370   23.1020 C.3   215  LEU215      0.0297
     68  CG       -28.5150  -16.1760   21.7410 C.3   215  LEU215      0.0022
     69  CD1      -29.3450  -17.3920   21.4060 C.3   215  LEU215      0.0001
     70  CD2      -28.6590  -15.1170   20.6640 C.3   215  LEU215      0.0001
     71  N        -32.5960  -15.2910   17.4990 N.3   221  PRO221     -0.2116
     72  CA       -32.5600  -14.8800   16.0910 C.3   221  PRO221      0.1372
     73  C        -33.9300  -15.0080   15.4410 C.2   221  PRO221      0.2244
     74  O        -34.6800  -15.9510   15.7050 O.2   221  PRO221     -0.2868
     75  CB       -31.5490  -15.8460   15.4660 C.3   221  PRO221      0.0268
     76  CG       -30.6550  -16.2210   16.5970 C.3   221  PRO221      0.0207
     77  CD       -31.5330  -16.2610   17.8180 C.3   221  PRO221      0.0892
     78  N        -33.0400  -13.8040    9.9540 N.3   225  LEU225     -0.1245
     79  CA       -31.6640  -14.2370   10.1760 C.3   225  LEU225      0.1561
     80  C        -31.5260  -15.7470   10.0200 C.2   225  LEU225      0.2260
     81  O        -30.5010  -16.2350    9.5300 O.2   225  LEU225     -0.2867
     82  CB       -31.1940  -13.7920   11.5610 C.3   225  LEU225      0.0270
     83  CG       -29.7960  -14.2400   11.9930 C.3   225  LEU225      0.0019
     84  CD1      -28.7560  -13.7990   10.9800 C.3   225  LEU225      0.0001
     85  CD2      -29.4600  -13.6980   13.3720 C.3   225  LEU225      0.0001
     86  N        -30.6940  -17.0420    6.5760 N.3   228  LYS228     -0.1231
     87  CA       -29.3860  -16.7360    6.0130 C.3   228  LYS228      0.1693
     88  C        -28.2600  -17.5440    6.6470 C.2   228  LYS228      0.2592
     89  O        -27.0860  -17.2640    6.3850 O.2   228  LYS228     -0.2718
     90  CB       -29.1010  -15.2370    6.1420 C.3   228  LYS228      0.0285
     91  CG       -30.1780  -14.3650    5.5110 C.3   228  LYS228      0.0035
     92  CD       -29.7420  -12.9140    5.3830 C.3   228  LYS228      0.0206
     93  CE       -29.6190  -12.2410    6.7370 C.3   228  LYS228      0.1093
     94  NZ       -29.3290  -10.7880    6.5890 N.3   228  LYS228     -0.1314
     95  N        -28.5870  -18.5410    7.4600 N.am  229  ILE229     -0.1966
     96  CA       -27.5920  -19.3850    8.1100 C.3   229  ILE229      0.1727
     97  C        -27.4440  -20.6610    7.2930 C.2   229  ILE229      0.2617
     98  O        -28.3930  -21.4460    7.1720 O.2   229  ILE229     -0.2715
     99  CB       -27.9810  -19.6860    9.5640 C.3   229  ILE229      0.0290
    100  CG1      -27.9820  -18.3880   10.3740 C.3   229  ILE229      0.0022
    101  CG2      -27.0300  -20.7060   10.1680 C.3   229  ILE229      0.0023
    102  CD1      -28.6830  -18.4920   11.7000 C.3   229  ILE229      0.0001
    103  N        -26.2510  -20.8690    6.7290 N.am  230  SER230     -0.1936
    104  CA       -26.0370  -21.9850    5.8150 C.3   230  SER230      0.2055
    105  C        -25.7490  -23.2900    6.5450 C.2   230  SER230      0.2643
    106  O        -26.1140  -24.3620    6.0490 O.2   230  SER230     -0.2714
    107  CB       -24.8900  -21.6620    4.8540 C.3   230  SER230      0.2130
    108  OG       -23.7040  -21.3470    5.5630 O.3   230  SER230     -0.2179
    109  N        -25.1040  -23.2290    7.7060 N.am  231  SER231     -0.1949
    110  CA       -24.7650  -24.4400    8.4440 C.3   231  SER231      0.1924
    111  C        -26.0140  -25.0290    9.0910 C.2   231  SER231      0.2314
    112  O        -26.6290  -24.3960    9.9560 O.2   231  SER231     -0.2863
    113  CB       -23.7080  -24.1330    9.5020 C.3   231  SER231      0.2116
    114  OG       -23.4650  -25.2650   10.3190 O.3   231  SER231     -0.2180
    115  N        -25.4040  -25.3910   12.9560 N.3   234  ALA234     -0.1245
    116  CA       -25.6560  -24.1760   13.7230 C.3   234  ALA234      0.1562
    117  C        -27.1260  -23.7820   13.6660 C.2   234  ALA234      0.2260
    118  O        -27.6860  -23.3130   14.6630 O.2   234  ALA234     -0.2867
    119  CB       -24.7730  -23.0390   13.2110 C.3   234  ALA234      0.0290
    120  N        -28.8880  -25.9300   16.2090 N.3   237  TYR237     -0.1227
    121  CA       -28.5660  -25.5690   17.5850 C.3   237  TYR237      0.1736
    122  C        -29.2270  -24.2590   17.9920 C.2   237  TYR237      0.2595
    123  O        -29.5980  -24.0900   19.1590 O.2   237  TYR237     -0.2718
    124  CB       -27.0530  -25.4800   17.7710 C.3   237  TYR237      0.0548
    125  CG       -26.6500  -24.9510   19.1260 C.ar  237  TYR237     -0.0200
    126  CD1      -26.8020  -25.7270   20.2680 C.ar  237  TYR237     -0.0009
    127  CD2      -26.1240  -23.6740   19.2660 C.ar  237  TYR237     -0.0009
    128  CE1      -26.4380  -25.2460   21.5120 C.ar  237  TYR237      0.0417
    129  CE2      -25.7580  -23.1840   20.5050 C.ar  237  TYR237      0.0417
    130  CZ       -25.9170  -23.9740   21.6250 C.ar  237  TYR237      0.1957
    131  OH       -25.5530  -23.4900   22.8600 O.3   237  TYR237     -0.2866
    132  N        -29.3820  -23.3250   17.0520 N.am  238  ILE238     -0.1980
    133  CA       -30.0880  -22.0830   17.3480 C.3   238  ILE238      0.1595
    134  C        -31.5650  -22.3580   17.5940 C.2   238  ILE238      0.2287
    135  O        -32.1790  -21.7770   18.4980 O.2   238  ILE238     -0.2864
    136  CB       -29.8760  -21.0710   16.2090 C.3   238  ILE238      0.0276
    137  CG1      -28.4170  -20.6170   16.1770 C.3   238  ILE238      0.0022
    138  CG2      -30.8090  -19.8810   16.3630 C.3   238  ILE238      0.0022
    139  CD1      -28.0010  -20.0110   14.8650 C.3   238  ILE238      0.0001
    140  N        -32.2060  -23.7800   21.2620 N.3   241  LEU241     -0.1245
    141  CA       -32.2010  -22.9030   22.4230 C.3   241  LEU241      0.1561
    142  C        -33.5900  -22.3250   22.6530 C.2   241  LEU241      0.2260
    143  O        -34.2930  -21.9660   21.7030 O.2   241  LEU241     -0.2867
    144  CB       -31.1900  -21.7720   22.2340 C.3   241  LEU241      0.0270
    145  CG       -29.7260  -22.1960   22.1280 C.3   241  LEU241      0.0019
    146  CD1      -28.8590  -21.0280   21.6970 C.3   241  LEU241      0.0001
    147  CD2      -29.2430  -22.7620   23.4530 C.3   241  LEU241      0.0001
    148  N        -27.3570   -9.1480   15.8700 N.3   270  LEU270     -0.1231
    149  CA       -26.9160  -10.4580   15.4010 C.3   270  LEU270      0.1693
    150  C        -26.7350  -10.4700   13.8890 C.2   270  LEU270      0.2592
    151  O        -25.7090  -10.9340   13.3770 O.2   270  LEU270     -0.2718
    152  CB       -27.9150  -11.5340   15.8260 C.3   270  LEU270      0.0284
    153  CG       -27.9110  -11.9520   17.2950 C.3   270  LEU270      0.0019
    154  CD1      -28.9290  -13.0540   17.5240 C.3   270  LEU270      0.0001
    155  CD2      -26.5250  -12.4050   17.7190 C.3   270  LEU270      0.0001
    156  N        -27.7250   -9.9670   13.1570 N.am  271  ASP271     -0.1960
    157  CA       -27.6700   -9.9470   11.6980 C.3   271  ASP271      0.1840
    158  C        -26.5810   -8.9750   11.2620 C.2   271  ASP271      0.2623
    159  O        -26.7650   -7.7570   11.2980 O.2   271  ASP271     -0.2715
    160  CB       -29.0270   -9.5560   11.1220 C.3   271  ASP271      0.1450
    161  CG       -29.1750   -9.9400    9.6620 C.2   271  ASP271      0.3671
    162  OD1      -28.1440  -10.0790    8.9700 O.co2 271  ASP271     -0.2456
    163  OD2      -30.3270  -10.1020    9.2060 O.co2 271  ASP271     -0.2456
    164  N        -25.4330   -9.5150   10.8460 N.am  272  SER272     -0.1936
    165  CA       -24.3270   -8.6690   10.4160 C.3   272  SER272      0.2055
    166  C        -24.6460   -7.9010    9.1390 C.2   272  SER272      0.2643
    167  O        -23.9710   -6.9090    8.8450 O.2   272  SER272     -0.2714
    168  CB       -23.0650   -9.5100   10.2210 C.3   272  SER272      0.2130
    169  OG       -23.2670  -10.5090    9.2380 O.3   272  SER272     -0.2179
    170  N        -25.6520   -8.3320    8.3730 N.am  273  ASP273     -0.1971
    171  CA       -26.0620   -7.5700    7.2000 C.3   273  ASP273      0.1709
    172  C        -26.7540   -6.2680    7.5730 C.2   273  ASP273      0.2293
    173  O        -26.7760   -5.3370    6.7620 O.2   273  ASP273     -0.2864
    174  CB       -26.9860   -8.4080    6.3180 C.3   273  ASP273      0.1436
    175  CG       -26.2670   -9.5650    5.6630 C.2   273  ASP273      0.3671
    176  OD1      -25.0530   -9.4370    5.4020 O.co2 273  ASP273     -0.2456
    177  OD2      -26.9150  -10.6010    5.4080 O.co2 273  ASP273     -0.2456
@<TRIPOS>BOND
     1   107   108    1
     2   107   104    1
     3    92    91    1
     4    92    93    1
     5   176   175   ar
     6   177   175   ar
     7    91    90    1
     8   175   174    1
     9   104   105    1
    10   104   103    1
    11    87    90    1
    12    87    86    1
    13    87    88    1
    14    44    46   ar
    15    44    42   ar
    16   106   105    2
    17   174   171    1
    18    89    88    2
    19    41    42   ar
    20    41    39   ar
    21   105   109   am
    22    94    93    1
    23    46    45   ar
    24    88    95   am
    25   103    97   am
    26   173   172    2
    27    42    40   ar
    28    98    97    2
    29   171   172    1
    30   171   170    1
    31    97    96    1
    32    95    96    1
    33    39    38   ar
    34   109   110    1
    35    45    43   ar
    36    40    38   ar
    37    40    43   ar
    38    96    99    1
    39   170   166   am
    40   110   111    1
    41   110   113    1
    42    38    37    1
    43   167   166    2
    44   162   161   ar
    45    35    36    2
    46    35    34    1
    47   111   112    2
    48   166   165    1
    49   163   161   ar
    50   169   168    1
    51   113   114    1
    52    81    80    2
    53    99   101    1
    54    99   100    1
    55   161   160    1
    56    34    37    1
    57    34    33    1
    58    78    79    1
    59    80    79    1
    60    79    82    1
    61   168   165    1
    62   100   102    1
    63   165   164    1
    64    28    27    2
    65   164   158   am
    66    84    83    1
    67   160   157    1
    68    33    27   am
    69   158   159    2
    70   158   157    1
    71    27    26    1
    72    82    83    1
    73   157   156    1
    74    83    85    1
    75    12    13    1
    76    12     9    1
    77    13    14    1
    78    16    14   ar
    79    26    29    1
    80    26    25    1
    81    11    10    2
    82    14    15   ar
    83   115   116    1
    84    29    30    1
    85   156   150   am
    86   119   116    1
    87    20    19    2
    88   151   150    2
    89    10     9    1
    90     9     8    1
    91   117   116    1
    92   117   118    2
    93    25    19   am
    94   150   149    1
    95    31    30    2
    96    19    18    1
    97    30    32   am
    98     8     3   am
    99   139   137    1
   100    21    18    1
   101    21    22    1
   102    18    17    1
   103    23    22    1
   104   149   152    1
   105   149   148    1
   106    73    74    2
   107    73    72    1
   108    75    72    1
   109    75    76    1
   110   152   153    1
   111     3     4    2
   112     3     2    1
   113    22    24    1
   114    72    71    1
   115   137   136    1
   116   120   121    1
   117   136   138    1
   118   136   133    1
   119    76    77    1
   120     6     7    1
   121     6     5    1
   122   132   133    1
   123   132   122   am
   124     1     2    1
   125     1     7    1
   126     2     5    1
   127   153   154    1
   128   153   155    1
   129   133   134    1
   130    71    77    1
   131   121   124    1
   132   121   122    1
   133   134   135    2
   134   124   125    1
   135   122   123    2
   136   125   127   ar
   137   125   126   ar
   138   127   129   ar
   139    53    52    1
   140    54    52    1
   141   126   128   ar
   142   129   130   ar
   143    70    68    1
   144    52    51    1
   145   140   141    1
   146    69    68    1
   147   128   130   ar
   148    61    59    1
   149   130   131    1
   150   146   145    1
   151   143   142    2
   152    68    67    1
   153    62    60    1
   154    51    48    1
   155   145   144    1
   156   145   147    1
   157   144   141    1
   158   141   142    1
   159    59    60    1
   160    59    56    1
   161    48    47    1
   162    48    49    1
   163    67    64    1
   164    64    63    1
   165    64    65    1
   166    50    49    2
   167    58    57    2
   168    63    57   am
   169    57    56    1
   170    56    55    1
   171    66    65    2
