@<TRIPOS>MOLECULE
tmp/5n67A00.pdb
 175 170 0 0 0
SMALL
GASTEIGER

@<TRIPOS>ATOM
      1  N        -20.2330  -12.6110   16.9540 N.3   165  PRO165     -0.2102
      2  CA       -20.7770  -13.9700   17.1010 C.3   165  PRO165      0.1504
      3  C        -20.5550  -14.8390   15.8670 C.2   165  PRO165      0.2575
      4  O        -20.3020  -16.0380   16.0180 O.2   165  PRO165     -0.2718
      5  CB       -22.2650  -13.7190   17.4040 C.3   165  PRO165      0.0282
      6  CG       -22.5310  -12.3100   16.9620 C.3   165  PRO165      0.0208
      7  CD       -21.2500  -11.5600   17.1160 C.3   165  PRO165      0.0893
      8  N        -20.5690  -14.2710   14.6560 N.am  166  GLU166     -0.1980
      9  CA       -20.3370  -15.1020   13.4800 C.3   166  GLU166      0.1602
     10  C        -18.9150  -15.6730   13.4600 C.2   166  GLU166      0.2287
     11  O        -18.6950  -16.7780   12.9290 O.2   166  GLU166     -0.2864
     12  CB       -20.6620  -14.3200   12.1970 C.3   166  GLU166      0.0415
     13  CG       -19.8350  -13.0720   11.9300 C.3   166  GLU166      0.1163
     14  CD       -20.4340  -11.7830   12.5140 C.2   166  GLU166      0.3649
     15  OE1      -21.2370  -11.8490   13.4730 O.co2 166  GLU166     -0.2457
     16  OE2      -20.0680  -10.7020   12.0070 O.co2 166  GLU166     -0.2457
     17  N        -19.0140  -18.6620   15.9230 N.3   169  LEU169     -0.1231
     18  CA       -19.7130  -19.7530   15.2590 C.3   169  LEU169      0.1693
     19  C        -18.9650  -20.2700   14.0330 C.2   169  LEU169      0.2592
     20  O        -19.4630  -21.1860   13.3650 O.2   169  LEU169     -0.2718
     21  CB       -21.1240  -19.2840   14.8830 C.3   169  LEU169      0.0284
     22  CG       -22.2470  -20.3200   14.8670 C.3   169  LEU169      0.0019
     23  CD1      -22.5030  -20.8720   16.2650 C.3   169  LEU169      0.0001
     24  CD2      -23.5120  -19.7060   14.2880 C.3   169  LEU169      0.0001
     25  N        -17.7980  -19.6940   13.7270 N.am  170  ASN170     -0.1960
     26  CA       -16.8310  -20.2010   12.7660 C.3   170  ASN170      0.1819
     27  C        -17.1980  -19.9160   11.3110 C.2   170  ASN170      0.2621
     28  O        -16.6930  -20.6040   10.4110 O.2   170  ASN170     -0.2715
     29  CB       -16.6090  -21.7100   12.9570 C.3   170  ASN170      0.1195
     30  CG       -15.2390  -22.1540   12.5080 C.2   170  ASN170      0.2630
     31  OD1      -14.2920  -21.3660   12.5290 O.2   170  ASN170     -0.2716
     32  ND2      -15.1230  -23.4100   12.0870 N.am  170  ASN170     -0.0877
     33  N        -18.0460  -18.9150   11.0400 N.am  171  TRP171     -0.1960
     34  CA       -18.4010  -18.5850    9.6610 C.3   171  TRP171      0.1771
     35  C        -17.1780  -18.1220    8.8910 C.2   171  TRP171      0.2619
     36  O        -16.4210  -17.2680    9.3560 O.2   171  TRP171     -0.2715
     37  CB       -19.4660  -17.4900    9.6170 C.3   171  TRP171      0.0590
     38  CG       -20.0260  -17.2150    8.2380 C.ar  171  TRP171      0.0006
     39  CD1      -20.1450  -18.1070    7.1870 C.ar  171  TRP171      0.0946
     40  CD2      -20.5530  -15.9760    7.7650 C.ar  171  TRP171      0.0152
     41  NE1      -20.7290  -17.4860    6.1090 N.ar  171  TRP171     -0.2442
     42  CE2      -20.9800  -16.1770    6.4330 C.ar  171  TRP171      0.0810
     43  CE3      -20.7040  -14.7070    8.3370 C.ar  171  TRP171      0.0012
     44  CZ2      -21.5490  -15.1530    5.6700 C.ar  171  TRP171      0.0191
     45  CZ3      -21.2660  -13.6960    7.5790 C.ar  171  TRP171      0.0001
     46  CH2      -21.6850  -13.9220    6.2650 C.ar  171  TRP171      0.0015
     47  N        -17.0210  -18.6500    7.6830 N.am  172  MET172     -0.1977
     48  CA       -15.8370  -18.3760    6.8800 C.3   172  MET172      0.1605
     49  C        -15.9130  -17.0360    6.1530 C.2   172  MET172      0.2287
     50  O        -14.8710  -16.4270    5.8920 O.2   172  MET172     -0.2864
     51  CB       -15.6280  -19.5370    5.8910 C.3   172  MET172      0.0413
     52  CG       -15.0350  -19.1580    4.5390 C.3   172  MET172      0.0598
     53  SD       -14.2640  -20.5310    3.6410 S.3   172  MET172     -0.1393
     54  CE       -13.1230  -19.6220    2.5930 C.3   172  MET172      0.0692
     55  N        -21.6640  -17.0270   23.4620 N.3   206  LEU206     -0.1245
     56  CA       -22.8470  -16.9420   22.6090 C.3   206  LEU206      0.1561
     57  C        -24.1220  -16.8560   23.4340 C.2   206  LEU206      0.2260
     58  O        -25.0710  -16.1600   23.0520 O.2   206  LEU206     -0.2867
     59  CB       -22.9100  -18.1590   21.6750 C.3   206  LEU206      0.0270
     60  CG       -21.8540  -18.1150   20.5730 C.3   206  LEU206      0.0019
     61  CD1      -21.8300  -19.4050   19.7630 C.3   206  LEU206      0.0001
     62  CD2      -22.1340  -16.9160   19.6760 C.3   206  LEU206      0.0001
     63  N        -26.8100  -13.8720   22.9620 N.3   210  LEU210     -0.1245
     64  CA       -28.1920  -14.1180   22.5660 C.3   210  LEU210      0.1561
     65  C        -29.1720  -13.6200   23.6220 C.2   210  LEU210      0.2260
     66  O        -30.2930  -13.2190   23.2890 O.2   210  LEU210     -0.2867
     67  CB       -28.4160  -15.6040   22.2930 C.3   210  LEU210      0.0270
     68  CG       -27.7350  -16.1460   21.0360 C.3   210  LEU210      0.0019
     69  CD1      -28.0960  -17.6060   20.7780 C.3   210  LEU210      0.0001
     70  CD2      -28.0900  -15.3040   19.8490 C.3   210  LEU210      0.0001
     71  N        -31.7880  -15.6520   16.5730 N.3   216  PRO216     -0.2116
     72  CA       -32.0130  -15.2660   15.1720 C.3   216  PRO216      0.1372
     73  C        -33.4370  -15.5360   14.7000 C.2   216  PRO216      0.2244
     74  O        -34.0250  -16.5810   14.9980 O.2   216  PRO216     -0.2868
     75  CB       -31.0290  -16.1470   14.3980 C.3   216  PRO216      0.0268
     76  CG       -30.0050  -16.5210   15.3520 C.3   216  PRO216      0.0207
     77  CD       -30.6460  -16.5600   16.7110 C.3   216  PRO216      0.0892
     78  N        -32.6120  -14.1870    9.2280 N.3   220  LEU220     -0.1245
     79  CA       -31.2100  -14.5500    9.3730 C.3   220  LEU220      0.1561
     80  C        -31.0000  -16.0420    9.1390 C.2   220  LEU220      0.2260
     81  O        -30.0230  -16.4370    8.4940 O.2   220  LEU220     -0.2867
     82  CB       -30.7100  -14.1240   10.7590 C.3   220  LEU220      0.0270
     83  CG       -29.2860  -14.5100   11.1910 C.3   220  LEU220      0.0019
     84  CD1      -28.2730  -14.1430   10.1270 C.3   220  LEU220      0.0001
     85  CD2      -28.9150  -13.8300   12.5020 C.3   220  LEU220      0.0001
     86  N        -30.2330  -17.3810    5.6750 N.3   223  LYS223     -0.1231
     87  CA       -28.9490  -17.0410    5.0710 C.3   223  LYS223      0.1693
     88  C        -27.7970  -17.8740    5.6130 C.2   223  LYS223      0.2592
     89  O        -26.6370  -17.6450    5.2360 O.2   223  LYS223     -0.2718
     90  CB       -28.6540  -15.5440    5.2760 C.3   223  LYS223      0.0285
     91  CG       -29.7190  -14.6530    4.6820 C.3   223  LYS223      0.0035
     92  CD       -29.3010  -13.1730    4.6720 C.3   223  LYS223      0.0206
     93  CE       -29.4200  -12.5300    6.0310 C.3   223  LYS223      0.1093
     94  NZ       -29.1760  -11.0500    5.9130 N.3   223  LYS223     -0.1314
     95  N        -28.0810  -18.8370    6.4830 N.am  224  ILE224     -0.1966
     96  CA       -27.0460  -19.5900    7.1780 C.3   224  ILE224      0.1727
     97  C        -26.8500  -20.9170    6.4480 C.2   224  ILE224      0.2617
     98  O        -27.7680  -21.7360    6.3840 O.2   224  ILE224     -0.2715
     99  CB       -27.4140  -19.7950    8.6560 C.3   224  ILE224      0.0290
    100  CG1      -27.3330  -18.4420    9.3910 C.3   224  ILE224      0.0022
    101  CG2      -26.5000  -20.8220    9.2830 C.3   224  ILE224      0.0023
    102  CD1      -27.7770  -18.4850   10.8240 C.3   224  ILE224      0.0001
    103  N        -25.6470  -21.1140    5.9020 N.am  225  SER225     -0.1936
    104  CA       -25.3280  -22.2670    5.0730 C.3   225  SER225      0.2055
    105  C        -25.0840  -23.5530    5.8600 C.2   225  SER225      0.2643
    106  O        -25.1550  -24.6290    5.2670 O.2   225  SER225     -0.2714
    107  CB       -24.0890  -21.9680    4.2360 C.3   225  SER225      0.2130
    108  OG       -23.0160  -21.6050    5.0730 O.3   225  SER225     -0.2179
    109  N        -24.7580  -23.4800    7.1510 N.am  226  SER226     -0.1949
    110  CA       -24.3870  -24.6650    7.9270 C.3   226  SER226      0.1924
    111  C        -25.6260  -25.2990    8.5490 C.2   226  SER226      0.2314
    112  O        -26.3570  -24.6470    9.3070 O.2   226  SER226     -0.2863
    113  CB       -23.3680  -24.3070    9.0120 C.3   226  SER226      0.2116
    114  OG       -23.3300  -25.2920   10.0440 O.3   226  SER226     -0.2180
    115  N        -25.6040  -27.7130   10.8160 N.3   228  SER228     -0.1202
    116  CA       -25.3930  -27.8210   12.2570 C.3   228  SER228      0.2020
    117  C        -25.6160  -26.4790   12.9550 C.2   228  SER228      0.2618
    118  O        -26.1970  -26.4210   14.0460 O.2   228  SER228     -0.2717
    119  CB       -23.9880  -28.3610   12.5430 C.3   228  SER228      0.2103
    120  OG       -22.9840  -27.5530   11.9560 O.3   228  SER228     -0.2182
    121  N        -25.1870  -25.3820   12.3270 N.am  229  ALA229     -0.1979
    122  CA       -25.3910  -24.0740   12.9350 C.3   229  ALA229      0.1597
    123  C        -26.8730  -23.7170   13.0060 C.2   229  ALA229      0.2287
    124  O        -27.3320  -23.1270   13.9960 O.2   229  ALA229     -0.2864
    125  CB       -24.6130  -23.0140   12.1520 C.3   229  ALA229      0.0319
    126  N        -28.4370  -25.8660   15.8340 N.3   232  TYR232     -0.1227
    127  CA       -28.0500  -25.3140   17.1250 C.3   232  TYR232      0.1736
    128  C        -28.9200  -24.1180   17.4820 C.2   232  TYR232      0.2595
    129  O        -29.5040  -24.0610   18.5690 O.2   232  TYR232     -0.2718
    130  CB       -26.5760  -24.9240   17.0990 C.3   232  TYR232      0.0548
    131  CG       -26.1100  -24.3340   18.3950 C.ar  232  TYR232     -0.0200
    132  CD1      -25.8270  -25.1480   19.4820 C.ar  232  TYR232     -0.0009
    133  CD2      -25.9530  -22.9620   18.5410 C.ar  232  TYR232     -0.0009
    134  CE1      -25.3970  -24.6140   20.6810 C.ar  232  TYR232      0.0417
    135  CE2      -25.5250  -22.4180   19.7390 C.ar  232  TYR232      0.0417
    136  CZ       -25.2480  -23.2490   20.8030 C.ar  232  TYR232      0.1957
    137  OH       -24.8220  -22.7210   22.0000 O.3   232  TYR232     -0.2866
    138  N        -29.0260  -23.1660   16.5530 N.am  233  ILE233     -0.1980
    139  CA       -29.8490  -21.9710   16.7380 C.3   233  ILE233      0.1595
    140  C        -31.2900  -22.3480   17.0650 C.2   233  ILE233      0.2287
    141  O        -31.8390  -21.9460   18.0980 O.2   233  ILE233     -0.2864
    142  CB       -29.7780  -21.0900   15.4790 C.3   233  ILE233      0.0276
    143  CG1      -28.4210  -20.3780   15.4210 C.3   233  ILE233      0.0022
    144  CG2      -30.9630  -20.1300   15.4190 C.3   233  ILE233      0.0022
    145  CD1      -28.1680  -19.6650   14.1200 C.3   233  ILE233      0.0001
    146  N        -27.1800   -9.0230   15.4150 N.3   265  LEU265     -0.1231
    147  CA       -26.6960  -10.3650   15.1500 C.3   265  LEU265      0.1693
    148  C        -26.3860  -10.5620   13.6670 C.2   265  LEU265      0.2592
    149  O        -25.3520  -11.1400   13.3150 O.2   265  LEU265     -0.2718
    150  CB       -27.7360  -11.3730   15.6430 C.3   265  LEU265      0.0284
    151  CG       -27.1930  -12.7210   16.0600 C.3   265  LEU265      0.0019
    152  CD1      -26.0440  -12.5300   17.0420 C.3   265  LEU265      0.0001
    153  CD2      -28.3110  -13.5520   16.6800 C.3   265  LEU265      0.0001
    154  N        -27.2590  -10.0710   12.7850 N.am  266  ASP266     -0.1960
    155  CA       -27.0950  -10.2080   11.3370 C.3   266  ASP266      0.1840
    156  C        -26.1050   -9.1610   10.8270 C.2   266  ASP266      0.2623
    157  O        -26.4210   -7.9660   10.8020 O.2   266  ASP266     -0.2715
    158  CB       -28.4510  -10.0500   10.6540 C.3   266  ASP266      0.1450
    159  CG       -28.3970  -10.2630    9.1480 C.2   266  ASP266      0.3671
    160  OD1      -27.2980  -10.3170    8.5600 O.co2 266  ASP266     -0.2456
    161  OD2      -29.4870  -10.3640    8.5400 O.co2 266  ASP266     -0.2456
    162  N        -24.9270   -9.6130   10.3640 N.am  267  SER267     -0.1936
    163  CA       -23.8770   -8.6890    9.9500 C.3   267  SER267      0.2055
    164  C        -24.1910   -7.9930    8.6330 C.2   267  SER267      0.2643
    165  O        -23.5930   -6.9480    8.3500 O.2   267  SER267     -0.2714
    166  CB       -22.5190   -9.4010    9.8610 C.3   267  SER267      0.2130
    167  OG       -22.5960  -10.6020    9.1210 O.3   267  SER267     -0.2179
    168  N        -25.1110   -8.5320    7.8290 N.am  268  ASP268     -0.1971
    169  CA       -25.6030   -7.8020    6.6600 C.3   268  ASP268      0.1709
    170  C        -26.3320   -6.5150    7.0350 C.2   268  ASP268      0.2293
    171  O        -26.4600   -5.6140    6.1900 O.2   268  ASP268     -0.2864
    172  CB       -26.5730   -8.6540    5.8350 C.3   268  ASP268      0.1436
    173  CG       -25.9110   -9.8750    5.2020 C.2   268  ASP268      0.3671
    174  OD1      -24.6790   -9.8770    5.0380 O.co2 268  ASP268     -0.2456
    175  OD2      -26.6560  -10.8180    4.8650 O.co2 268  ASP268     -0.2456
@<TRIPOS>BOND
     1    54    53    1
     2    53    52    1
     3   107   108    1
     4   107   104    1
     5    52    51    1
     6    92    91    1
     7    92    93    1
     8    91    90    1
     9   175   173   ar
    10   174   173   ar
    11    87    90    1
    12    87    88    1
    13    87    86    1
    14   104   105    1
    15   104   103    1
    16   173   172    1
    17    89    88    2
    18   106   105    2
    19    88    95   am
    20    44    46   ar
    21    44    42   ar
    22   172   169    1
    23   105   109   am
    24    51    48    1
    25    50    49    2
    26   103    97   am
    27    94    93    1
    28    41    42   ar
    29    41    39   ar
    30    49    48    1
    31   171   170    2
    32    46    45   ar
    33    98    97    2
    34    42    40   ar
    35    97    96    1
    36    95    96    1
    37   169   170    1
    38   169   168    1
    39    48    47    1
    40   109   110    1
    41    96    99    1
    42    39    38   ar
    43    45    43   ar
    44    47    35   am
    45    40    38   ar
    46    40    43   ar
    47   168   164   am
    48   110   111    1
    49   110   113    1
    50    38    37    1
    51   165   164    2
    52    81    80    2
    53   161   159   ar
    54   111   112    2
    55   160   159   ar
    56   164   163    1
    57    99   101    1
    58    99   100    1
    59    35    36    2
    60    35    34    1
    61   113   114    1
    62   167   166    1
    63    80    79    1
    64   159   158    1
    65    78    79    1
    66    79    82    1
    67   100   102    1
    68    37    34    1
    69    34    33    1
    70   166   163    1
    71   163   162    1
    72    84    83    1
    73   162   156   am
    74    28    27    2
    75   158   155    1
    76    82    83    1
    77   157   156    2
    78   115   116    1
    79   156   155    1
    80    33    27   am
    81    83    85    1
    82    27    26    1
    83   155   154    1
    84    13    12    1
    85    13    14    1
    86   120   119    1
    87    16    14   ar
    88    32    30   am
    89   125   122    1
    90    12     9    1
    91   116   119    1
    92   116   117    1
    93   121   122    1
    94   121   117   am
    95    30    31    2
    96    30    29    1
    97    14    15   ar
    98    26    29    1
    99    26    25    1
   100   154   148   am
   101    11    10    2
   102   122   123    1
   103   117   118    2
   104   123   124    2
   105   149   148    2
   106    20    19    2
   107    10     9    1
   108     9     8    1
   109   148   147    1
   110    25    19   am
   111    19    18    1
   112   145   143    1
   113    24    22    1
   114    75    72    1
   115    75    76    1
   116     8     3   am
   117    73    74    2
   118    73    72    1
   119    22    21    1
   120    22    23    1
   121    21    18    1
   122   147   146    1
   123   147   150    1
   124    72    71    1
   125    18    17    1
   126    76    77    1
   127   144   142    1
   128   143   142    1
   129   142   139    1
   130   150   151    1
   131   126   127    1
   132     3     4    2
   133     3     2    1
   134   151   153    1
   135   151   152    1
   136   138   139    1
   137   138   128   am
   138    71    77    1
   139   139   140    1
   140     1     2    1
   141     1     7    1
   142     6     7    1
   143     6     5    1
   144   140   141    2
   145   130   127    1
   146   130   131    1
   147     2     5    1
   148   127   128    1
   149   128   129    2
   150   131   133   ar
   151   131   132   ar
   152   133   135   ar
   153   132   134   ar
   154    62    60    1
   155   135   136   ar
   156    61    60    1
   157    70    68    1
   158    60    59    1
   159   134   136   ar
   160    69    68    1
   161   136   137    1
   162    68    67    1
   163    59    56    1
   164    67    64    1
   165    64    63    1
   166    64    65    1
   167    56    57    1
   168    56    55    1
   169    58    57    2
   170    66    65    2
