@<TRIPOS>MOLECULE
tmp/5n68A00.pdb
 175 170 0 0 0
SMALL
GASTEIGER

@<TRIPOS>ATOM
      1  N        -20.4490  -12.5460   17.0850 N.3   168  PRO168     -0.2102
      2  CA       -21.0220  -13.8970   17.1870 C.3   168  PRO168      0.1504
      3  C        -20.7700  -14.7460   15.9460 C.2   168  PRO168      0.2575
      4  O        -20.5230  -15.9560   16.0780 O.2   168  PRO168     -0.2718
      5  CB       -22.5160  -13.6200   17.4480 C.3   168  PRO168      0.0282
      6  CG       -22.7240  -12.1650   17.1030 C.3   168  PRO168      0.0208
      7  CD       -21.4250  -11.4860   17.3580 C.3   168  PRO168      0.0893
      8  N        -20.7620  -14.1540   14.7440 N.am  169  GLU169     -0.1980
      9  CA       -20.5920  -14.9980   13.5630 C.3   169  GLU169      0.1602
     10  C        -19.1880  -15.5940   13.5020 C.2   169  GLU169      0.2287
     11  O        -19.0060  -16.6940   12.9680 O.2   169  GLU169     -0.2864
     12  CB       -20.9390  -14.2350   12.2720 C.3   169  GLU169      0.0415
     13  CG       -20.1180  -12.9940   11.9310 C.3   169  GLU169      0.1163
     14  CD       -20.6480  -11.7240   12.5910 C.2   169  GLU169      0.3649
     15  OE1      -21.4500  -11.8100   13.5580 O.co2 169  GLU169     -0.2457
     16  OE2      -20.2580  -10.6320   12.1380 O.co2 169  GLU169     -0.2457
     17  N        -19.3420  -18.5080   15.9380 N.3   172  LEU172     -0.1231
     18  CA       -20.0130  -19.6390   15.3090 C.3   172  LEU172      0.1693
     19  C        -19.3130  -20.1060   14.0360 C.2   172  LEU172      0.2592
     20  O        -19.8370  -20.9900   13.3540 O.2   172  LEU172     -0.2718
     21  CB       -21.4770  -19.2700   15.0220 C.3   172  LEU172      0.0284
     22  CG       -22.5500  -20.3610   15.0560 C.3   172  LEU172      0.0019
     23  CD1      -22.6210  -20.9670   16.4430 C.3   172  LEU172      0.0001
     24  CD2      -23.9010  -19.7760   14.6580 C.3   172  LEU172      0.0001
     25  N        -18.1510  -19.5350   13.6870 N.am  173  ASN173     -0.1960
     26  CA       -17.2640  -20.1060   12.6670 C.3   173  ASN173      0.1819
     27  C        -17.7490  -19.8660   11.2410 C.2   173  ASN173      0.2621
     28  O        -17.6030  -20.7370   10.3810 O.2   173  ASN173     -0.2715
     29  CB       -17.0820  -21.6080   12.8800 C.3   173  ASN173      0.1195
     30  CG       -16.3920  -21.9310   14.1730 C.2   173  ASN173      0.2630
     31  OD1      -17.0040  -22.4720   15.0930 O.2   173  ASN173     -0.2716
     32  ND2      -15.1040  -21.6100   14.2540 N.am  173  ASN173     -0.0877
     33  N        -18.3540  -18.7140   10.9800 N.am  174  TRP174     -0.1960
     34  CA       -18.7580  -18.3980    9.6180 C.3   174  TRP174      0.1771
     35  C        -17.5440  -18.0180    8.8000 C.2   174  TRP174      0.2619
     36  O        -16.7100  -17.2350    9.2480 O.2   174  TRP174     -0.2715
     37  CB       -19.7470  -17.2430    9.5940 C.3   174  TRP174      0.0590
     38  CG       -20.3480  -16.9990    8.2420 C.ar  174  TRP174      0.0006
     39  CD1      -20.5240  -17.9100    7.2310 C.ar  174  TRP174      0.0946
     40  CD2      -20.8660  -15.7620    7.7590 C.ar  174  TRP174      0.0152
     41  NE1      -21.1390  -17.3110    6.1560 N.ar  174  TRP174     -0.2442
     42  CE2      -21.3540  -15.9890    6.4520 C.ar  174  TRP174      0.0810
     43  CE3      -20.9650  -14.4770    8.3040 C.ar  174  TRP174      0.0012
     44  CZ2      -21.9410  -14.9730    5.6880 C.ar  174  TRP174      0.0191
     45  CZ3      -21.5440  -13.4820    7.5510 C.ar  174  TRP174      0.0001
     46  CH2      -22.0150  -13.7240    6.2570 C.ar  174  TRP174      0.0015
     47  N        -17.4660  -18.5330    7.5720 N.am  175  MET175     -0.1977
     48  CA       -16.3040  -18.2220    6.7460 C.3   175  MET175      0.1605
     49  C        -16.4170  -16.8950    5.9960 C.2   175  MET175      0.2287
     50  O        -15.3930  -16.3500    5.5660 O.2   175  MET175     -0.2864
     51  CB       -16.0490  -19.3610    5.7500 C.3   175  MET175      0.0413
     52  CG       -15.1480  -18.9710    4.5770 C.3   175  MET175      0.0598
     53  SD       -14.6580  -20.3240    3.4770 S.3   175  MET175     -0.1393
     54  CE       -12.8800  -20.3160    3.7190 C.3   175  MET175      0.0692
     55  N        -21.7410  -17.1520   23.7260 N.3   209  LEU209     -0.1245
     56  CA       -22.9190  -16.9910   22.8790 C.3   209  LEU209      0.1561
     57  C        -24.1780  -16.8430   23.7190 C.2   209  LEU209      0.2260
     58  O        -25.0680  -16.0540   23.3830 O.2   209  LEU209     -0.2867
     59  CB       -23.0750  -18.1860   21.9240 C.3   209  LEU209      0.0270
     60  CG       -22.1350  -18.1590   20.7190 C.3   209  LEU209      0.0019
     61  CD1      -22.3750  -19.3770   19.8050 C.3   209  LEU209      0.0001
     62  CD2      -22.3550  -16.8770   19.9780 C.3   209  LEU209      0.0001
     63  N        -26.7730  -13.7610   23.2580 N.3   213  LEU213     -0.1245
     64  CA       -28.1650  -13.9910   22.8780 C.3   213  LEU213      0.1561
     65  C        -29.1280  -13.4720   23.9360 C.2   213  LEU213      0.2260
     66  O        -30.2580  -13.0930   23.6110 O.2   213  LEU213     -0.2867
     67  CB       -28.4140  -15.4780   22.6280 C.3   213  LEU213      0.0270
     68  CG       -27.5460  -16.0860   21.5220 C.3   213  LEU213      0.0019
     69  CD1      -27.9040  -17.5490   21.2600 C.3   213  LEU213      0.0001
     70  CD2      -27.6270  -15.2550   20.2480 C.3   213  LEU213      0.0001
     71  N        -31.8540  -15.5560   16.8830 N.3   219  PRO219     -0.2116
     72  CA       -31.9630  -15.1020   15.4890 C.3   219  PRO219      0.1372
     73  C        -33.3930  -15.1540   14.9650 C.2   219  PRO219      0.2244
     74  O        -34.1640  -16.0600   15.2840 O.2   219  PRO219     -0.2868
     75  CB       -31.0600  -16.0820   14.7290 C.3   219  PRO219      0.0268
     76  CG       -30.0960  -16.5770   15.7450 C.3   219  PRO219      0.0207
     77  CD       -30.8640  -16.6330   17.0370 C.3   219  PRO219      0.0892
     78  N        -32.8470  -13.9880    9.4860 N.3   223  LEU223     -0.1245
     79  CA       -31.4510  -14.3930    9.6090 C.3   223  LEU223      0.1561
     80  C        -31.2720  -15.8810    9.3320 C.2   223  LEU223      0.2260
     81  O        -30.3030  -16.2730    8.6680 O.2   223  LEU223     -0.2867
     82  CB       -30.9050  -14.0230   10.9950 C.3   223  LEU223      0.0270
     83  CG       -29.4640  -14.4210   11.3660 C.3   223  LEU223      0.0019
     84  CD1      -28.4020  -14.0590   10.2960 C.3   223  LEU223      0.0001
     85  CD2      -29.0660  -13.8150   12.7180 C.3   223  LEU223      0.0001
     86  N        -30.6990  -17.0480    5.8500 N.3   226  LYS226     -0.1231
     87  CA       -29.3930  -16.7850    5.2460 C.3   226  LYS226      0.1693
     88  C        -28.2870  -17.6970    5.7750 C.2   226  LYS226      0.2592
     89  O        -27.1220  -17.5440    5.3840 O.2   226  LYS226     -0.2718
     90  CB       -29.0250  -15.2980    5.4540 C.3   226  LYS226      0.0285
     91  CG       -30.0770  -14.3620    4.8440 C.3   226  LYS226      0.0035
     92  CD       -29.5920  -12.8940    4.8680 C.3   226  LYS226      0.0206
     93  CE       -29.5670  -12.3400    6.2700 C.3   226  LYS226      0.1093
     94  NZ       -29.2760  -10.8670    6.2190 N.3   226  LYS226     -0.1314
     95  N        -28.6190  -18.6520    6.6370 N.am  227  ILE227     -0.1966
     96  CA       -27.6320  -19.5230    7.2680 C.3   227  ILE227      0.1727
     97  C        -27.4900  -20.7890    6.4270 C.2   227  ILE227      0.2617
     98  O        -28.4720  -21.4960    6.2010 O.2   227  ILE227     -0.2715
     99  CB       -28.0520  -19.8770    8.7000 C.3   227  ILE227      0.0290
    100  CG1      -28.3630  -18.5940    9.4830 C.3   227  ILE227      0.0022
    101  CG2      -26.9610  -20.6910    9.3720 C.3   227  ILE227      0.0023
    102  CD1      -27.1820  -17.7840    9.7580 C.3   227  ILE227      0.0001
    103  N        -26.2680  -21.0730    5.9810 N.am  228  SER228     -0.1936
    104  CA       -26.0050  -22.2250    5.1160 C.3   228  SER228      0.2055
    105  C        -25.7980  -23.5210    5.9000 C.2   228  SER228      0.2643
    106  O        -26.3360  -24.5660    5.5210 O.2   228  SER228     -0.2714
    107  CB       -24.7700  -21.9530    4.2580 C.3   228  SER228      0.2130
    108  OG       -23.6180  -21.8310    5.0750 O.3   228  SER228     -0.2179
    109  N        -24.9990  -23.4660    6.9690 N.am  229  SER229     -0.1949
    110  CA       -24.6410  -24.6550    7.7390 C.3   229  SER229      0.1924
    111  C        -25.8790  -25.3530    8.2840 C.2   229  SER229      0.2314
    112  O        -26.7760  -24.7140    8.8410 O.2   229  SER229     -0.2863
    113  CB       -23.7160  -24.2650    8.8900 C.3   229  SER229      0.2116
    114  OG       -23.3370  -25.4000    9.6460 O.3   229  SER229     -0.2180
    115  N        -26.0360  -27.7310   10.7420 N.3   231  SER231     -0.1202
    116  CA       -26.0250  -27.7430   12.1980 C.3   231  SER231      0.2020
    117  C        -26.3980  -26.3690   12.7430 C.2   231  SER231      0.2618
    118  O        -27.2690  -26.2450   13.6130 O.2   231  SER231     -0.2717
    119  CB       -24.6450  -28.1740   12.7030 C.3   231  SER231      0.2103
    120  OG       -23.7680  -27.0670   12.8290 O.3   231  SER231     -0.2182
    121  N        -25.7720  -25.3200   12.2010 N.am  232  ALA232     -0.1979
    122  CA       -25.9830  -23.9680   12.6930 C.3   232  ALA232      0.1597
    123  C        -27.4620  -23.6060   12.7650 C.2   232  ALA232      0.2287
    124  O        -27.8940  -22.9100   13.6960 O.2   232  ALA232     -0.2864
    125  CB       -25.2450  -22.9810   11.7930 C.3   232  ALA232      0.0319
    126  N        -29.0300  -25.7510   15.5850 N.3   235  TYR235     -0.1227
    127  CA       -28.5510  -25.1860   16.8370 C.3   235  TYR235      0.1736
    128  C        -29.2830  -23.8960   17.1790 C.2   235  TYR235      0.2595
    129  O        -29.6760  -23.6810   18.3300 O.2   235  TYR235     -0.2718
    130  CB       -27.0460  -24.9540   16.7500 C.3   235  TYR235      0.0548
    131  CG       -26.5160  -24.0920   17.8530 C.ar  235  TYR235     -0.0200
    132  CD1      -26.1700  -24.6340   19.0820 C.ar  235  TYR235     -0.0009
    133  CD2      -26.3610  -22.7280   17.6680 C.ar  235  TYR235     -0.0009
    134  CE1      -25.6790  -23.8340   20.1020 C.ar  235  TYR235      0.0417
    135  CE2      -25.8720  -21.9230   18.6770 C.ar  235  TYR235      0.0417
    136  CZ       -25.5350  -22.4790   19.8920 C.ar  235  TYR235      0.1957
    137  OH       -25.0520  -21.6680   20.8920 O.3   235  TYR235     -0.2866
    138  N        -29.4820  -23.0270   16.1890 N.am  236  ILE236     -0.1980
    139  CA       -30.1800  -21.7660   16.4260 C.3   236  ILE236      0.1595
    140  C        -31.6360  -22.0220   16.8040 C.2   236  ILE236      0.2287
    141  O        -32.1500  -21.4650   17.7810 O.2   236  ILE236     -0.2864
    142  CB       -30.0730  -20.8590   15.1880 C.3   236  ILE236      0.0276
    143  CG1      -28.6460  -20.3220   15.0380 C.3   236  ILE236      0.0022
    144  CG2      -31.0870  -19.7230   15.2680 C.3   236  ILE236      0.0022
    145  CD1      -28.4630  -19.3800   13.8460 C.3   236  ILE236      0.0001
    146  N        -27.3120   -8.8180   15.7670 N.3   268  LEU268     -0.1231
    147  CA       -26.8510  -10.1730   15.5390 C.3   268  LEU268      0.1693
    148  C        -26.5490  -10.4060   14.0630 C.2   268  LEU268      0.2592
    149  O        -25.5110  -10.9770   13.7250 O.2   268  LEU268     -0.2718
    150  CB       -27.8950  -11.1550   16.0500 C.3   268  LEU268      0.0284
    151  CG       -27.4250  -12.5860   16.1880 C.3   268  LEU268      0.0019
    152  CD1      -26.1900  -12.5940   17.0800 C.3   268  LEU268      0.0001
    153  CD2      -28.5490  -13.4210   16.7800 C.3   268  LEU268      0.0001
    154  N        -27.4420   -9.9650   13.1730 N.am  269  ASP269     -0.1960
    155  CA       -27.2820  -10.1150   11.7230 C.3   269  ASP269      0.1840
    156  C        -26.2710   -9.1020   11.1820 C.2   269  ASP269      0.2623
    157  O        -26.5800   -7.9030   11.0630 O.2   269  ASP269     -0.2715
    158  CB       -28.6360   -9.9390   11.0330 C.3   269  ASP269      0.1450
    159  CG       -28.5580  -10.1760    9.5450 C.2   269  ASP269      0.3671
    160  OD1      -27.4470  -10.3470    9.0280 O.co2 269  ASP269     -0.2456
    161  OD2      -29.6060  -10.2210    8.8950 O.co2 269  ASP269     -0.2456
    162  N        -25.0820   -9.5860   10.7790 N.am  270  SER270     -0.1936
    163  CA       -24.0350   -8.6830   10.3060 C.3   270  SER270      0.2055
    164  C        -24.3970   -7.9760    9.0180 C.2   270  SER270      0.2643
    165  O        -23.8070   -6.9300    8.7180 O.2   270  SER270     -0.2714
    166  CB       -22.7030   -9.4120   10.1040 C.3   270  SER270      0.2130
    167  OG       -22.8400  -10.5160    9.2220 O.3   270  SER270     -0.2179
    168  N        -25.3330   -8.5080    8.2420 N.am  271  ASP271     -0.1971
    169  CA       -25.7990   -7.7650    7.0740 C.3   271  ASP271      0.1709
    170  C        -26.4740   -6.4550    7.4640 C.2   271  ASP271      0.2293
    171  O        -26.6160   -5.5670    6.6160 O.2   271  ASP271     -0.2864
    172  CB       -26.8000   -8.5810    6.2590 C.3   271  ASP271      0.1436
    173  CG       -26.1720   -9.7560    5.5510 C.2   271  ASP271      0.3671
    174  OD1      -24.9610   -9.7060    5.2590 O.co2 271  ASP271     -0.2456
    175  OD2      -26.8990  -10.7310    5.2700 O.co2 271  ASP271     -0.2456
@<TRIPOS>BOND
     1    53    54    1
     2    53    52    1
     3   107   108    1
     4   107   104    1
     5    52    51    1
     6    91    92    1
     7    91    90    1
     8    92    93    1
     9   104   105    1
    10   104   103    1
    11    87    90    1
    12    87    88    1
    13    87    86    1
    14   174   173   ar
    15   175   173   ar
    16    89    88    2
    17   106   105    2
    18   173   172    1
    19    50    49    2
    20    44    46   ar
    21    44    42   ar
    22    51    48    1
    23    88    95   am
    24   105   109   am
    25   103    97   am
    26    49    48    1
    27    41    42   ar
    28    41    39   ar
    29    98    97    2
    30    94    93    1
    31    46    45   ar
    32   172   169    1
    33    97    96    1
    34    42    40   ar
    35   171   170    2
    36    95    96    1
    37    48    47    1
    38   109   110    1
    39   169   170    1
    40   169   168    1
    41    39    38   ar
    42    96    99    1
    43    45    43   ar
    44    47    35   am
    45   110   111    1
    46   110   113    1
    47    40    38   ar
    48    40    43   ar
    49    38    37    1
    50   168   164   am
    51   111   112    2
    52    81    80    2
    53    99   101    1
    54    99   100    1
    55   165   164    2
    56    35    36    2
    57    35    34    1
    58   113   114    1
    59   161   159   ar
    60   164   163    1
    61   160   159   ar
    62   167   166    1
    63    80    79    1
    64   100   102    1
    65    78    79    1
    66   159   158    1
    67    37    34    1
    68    79    82    1
    69    34    33    1
    70   166   163    1
    71    84    83    1
    72   163   162    1
    73    28    27    2
    74   115   116    1
    75   162   156   am
    76    33    27   am
    77    82    83    1
    78   158   155    1
    79   157   156    2
    80   156   155    1
    81    27    26    1
    82    83    85    1
    83   155   154    1
    84   125   122    1
    85    13    12    1
    86    13    14    1
    87    16    14   ar
    88   116   119    1
    89   116   117    1
    90   121   122    1
    91   121   117   am
    92    12     9    1
    93    14    15   ar
    94    26    29    1
    95    26    25    1
    96   122   123    1
    97   119   120    1
    98   117   118    2
    99   123   124    2
   100    29    30    1
   101    11    10    2
   102   154   148   am
   103    20    19    2
   104    10     9    1
   105     9     8    1
   106    25    19   am
   107   149   148    2
   108   145   143    1
   109    19    18    1
   110   148   147    1
   111    30    32   am
   112    30    31    2
   113    24    22    1
   114    75    72    1
   115    75    76    1
   116     8     3   am
   117    73    74    2
   118    73    72    1
   119    21    22    1
   120    21    18    1
   121   143   142    1
   122    22    23    1
   123   142   144    1
   124   142   139    1
   125    18    17    1
   126    72    71    1
   127   147   146    1
   128   147   150    1
   129   126   127    1
   130    76    77    1
   131     3     4    2
   132     3     2    1
   133   150   151    1
   134   151   153    1
   135   151   152    1
   136   138   139    1
   137   138   128   am
   138   139   140    1
   139   130   127    1
   140   130   131    1
   141   140   141    2
   142   127   128    1
   143    71    77    1
   144     1     2    1
   145     1     7    1
   146     6     7    1
   147     6     5    1
   148   128   129    2
   149     2     5    1
   150   133   131   ar
   151   133   135   ar
   152   131   132   ar
   153   135   136   ar
   154   132   134   ar
   155    61    60    1
   156   136   134   ar
   157   136   137    1
   158    62    60    1
   159    70    68    1
   160    60    59    1
   161    69    68    1
   162    68    67    1
   163    59    56    1
   164    67    64    1
   165    64    63    1
   166    64    65    1
   167    56    57    1
   168    56    55    1
   169    58    57    2
   170    66    65    2
