@<TRIPOS>MOLECULE
tmp/5n69B02.pdb
 208 199 0 0 0
SMALL
GASTEIGER

@<TRIPOS>ATOM
      1  N        -22.1620  -33.0610   12.8120 N.3   116  LEU116     -0.1245
      2  CA       -22.6660  -32.9380   14.1820 C.3   116  LEU116      0.1561
      3  C        -23.7690  -31.8750   14.3410 C.2   116  LEU116      0.2260
      4  O        -24.3500  -31.7520   15.4270 O.2   116  LEU116     -0.2867
      5  CB       -21.5040  -32.7240   15.1740 C.3   116  LEU116      0.0270
      6  CG       -20.9660  -34.0060   15.9270 C.3   116  LEU116      0.0019
      7  CD1      -21.9620  -34.5120   16.9980 C.3   116  LEU116      0.0001
      8  CD2      -20.5960  -35.1700   14.9600 C.3   116  LEU116      0.0001
      9  N        -30.2250  -43.0410   19.3870 N.3   141  LYS141     -0.1231
     10  CA       -29.1190  -42.1990   18.9190 C.3   141  LYS141      0.1693
     11  C        -28.6310  -42.6530   17.5300 C.2   141  LYS141      0.2591
     12  O        -27.8550  -43.6160   17.4250 O.2   141  LYS141     -0.2718
     13  CB       -27.9850  -42.0970   19.9610 C.3   141  LYS141      0.0285
     14  CG       -28.1740  -40.9700   20.9870 C.3   141  LYS141      0.0035
     15  CD       -29.0320  -41.3410   22.2020 C.3   141  LYS141      0.0206
     16  CE       -28.4020  -42.3660   23.1250 C.3   141  LYS141      0.1093
     17  NZ       -27.1040  -41.9030   23.6930 N.3   141  LYS141     -0.1314
     18  N        -29.1680  -41.9760   16.4610 N.am  142  ARG142     -0.1980
     19  CA       -28.9330  -42.2070   15.0160 C.3   142  ARG142      0.1597
     20  C        -29.2210  -43.7020   14.6440 C.2   142  ARG142      0.2287
     21  O        -29.8220  -44.4030   15.4740 O.2   142  ARG142     -0.2864
     22  CB       -27.5380  -41.6820   14.5740 C.3   142  ARG142      0.0334
     23  CG       -27.2440  -40.2750   15.1430 C.3   142  ARG142      0.0492
     24  CD       -26.3060  -39.3930   14.3340 C.3   142  ARG142      0.2205
     25  NE       -26.4620  -37.9740   14.6950 N.pl3 142  ARG142     -0.0865
     26  CZ       -25.7680  -36.9680   14.1590 C.cat 142  ARG142      0.5346
     27  NH1      -24.8380  -37.2070   13.2400 N.pl3 142  ARG142      0.1354
     28  NH2      -25.9990  -35.7160   14.5400 N.pl3 142  ARG142      0.1354
     29  N        -30.2210  -36.2950   21.7360 N.3   155  ASN155     -0.1240
     30  CA       -28.7480  -36.3810   21.6880 C.3   155  ASN155      0.1653
     31  C        -28.1060  -35.4000   22.6590 C.2   155  ASN155      0.2266
     32  O        -27.1370  -35.7760   23.3060 O.2   155  ASN155     -0.2867
     33  CB       -28.1780  -36.1770   20.2560 C.3   155  ASN155      0.1155
     34  CG       -28.5860  -37.1930   19.2010 C.2   155  ASN155      0.2627
     35  OD1      -29.1710  -38.2360   19.4890 O.2   155  ASN155     -0.2716
     36  ND2      -28.3560  -36.8700   17.9290 N.am  155  ASN155     -0.0877
     37  N        -28.4410  -36.7590   26.2570 N.3   158  GLN158     -0.1231
     38  CA       -27.4530  -37.8160   26.5110 C.3   158  GLN158      0.1698
     39  C        -26.0420  -37.2770   26.7300 C.2   158  GLN158      0.2592
     40  O        -25.3460  -37.7710   27.6260 O.2   158  GLN158     -0.2718
     41  CB       -27.4870  -38.8860   25.4120 C.3   158  GLN158      0.0381
     42  CG       -28.8900  -39.4930   25.2080 C.3   158  GLN158      0.0905
     43  CD       -29.3870  -40.3850   26.3320 C.2   158  GLN158      0.2608
     44  OE1      -28.6070  -40.9530   27.1180 O.2   158  GLN158     -0.2717
     45  NE2      -30.7130  -40.5350   26.4140 N.am  158  GLN158     -0.0878
     46  N        -25.6270  -36.2510   25.9330 N.am  159  TYR159     -0.1976
     47  CA       -24.3470  -35.5540   26.0870 C.3   159  TYR159      0.1639
     48  C        -24.2560  -34.9310   27.4850 C.2   159  TYR159      0.2290
     49  O        -23.2070  -35.0060   28.1030 O.2   159  TYR159     -0.2864
     50  CB       -24.1670  -34.4490   25.0270 C.3   159  TYR159      0.0560
     51  CG       -23.6420  -34.9210   23.6850 C.ar  159  TYR159     -0.0198
     52  CD1      -22.3260  -35.3520   23.5380 C.ar  159  TYR159     -0.0009
     53  CD2      -24.4410  -34.8740   22.5440 C.ar  159  TYR159     -0.0009
     54  CE1      -21.8460  -35.8070   22.3060 C.ar  159  TYR159      0.0417
     55  CE2      -23.9660  -35.3040   21.3030 C.ar  159  TYR159      0.0417
     56  CZ       -22.6670  -35.7720   21.1870 C.ar  159  TYR159      0.1957
     57  OH       -22.2130  -36.1980   19.9590 O.3   159  TYR159     -0.2866
     58  N        -23.7250  -37.8450   30.1670 N.3   162  THR162     -0.1203
     59  CA       -22.4410  -38.5070   29.9470 C.3   162  THR162      0.1994
     60  C        -21.2820  -37.5880   30.2670 C.2   162  THR162      0.2617
     61  O        -20.3870  -37.9950   30.9970 O.2   162  THR162     -0.2717
     62  CB       -22.3580  -39.1040   28.5160 C.3   162  THR162      0.1784
     63  OG1      -23.4820  -39.9580   28.2780 O.3   162  THR162     -0.2211
     64  CG2      -21.0920  -39.8880   28.2710 C.3   162  THR162      0.0376
     65  N        -21.2850  -36.3650   29.7140 N.am  163  ASP163     -0.1973
     66  CA       -20.2160  -35.3730   29.8810 C.3   163  ASP163      0.1709
     67  C        -20.3070  -34.5310   31.1530 C.2   163  ASP163      0.2293
     68  O        -19.2990  -33.9300   31.5530 O.2   163  ASP163     -0.2864
     69  CB       -20.1300  -34.4630   28.6490 C.3   163  ASP163      0.1436
     70  CG       -19.8290  -35.1790   27.3390 C.2   163  ASP163      0.3671
     71  OD1      -19.1930  -36.2690   27.3790 O.co2 163  ASP163     -0.2456
     72  OD2      -20.2050  -34.6440   26.2730 O.co2 163  ASP163     -0.2456
     73  N        -22.2420  -31.7700   31.6550 N.3   165  GLU165     -0.1245
     74  CA       -22.1600  -30.3790   31.2810 C.3   165  GLU165      0.1567
     75  C        -23.4410  -29.8990   30.6630 C.2   165  GLU165      0.2260
     76  O        -24.2430  -30.7020   30.2110 O.2   165  GLU165     -0.2867
     77  CB       -20.9180  -30.0430   30.4330 C.3   165  GLU165      0.0388
     78  CG       -20.8120  -30.6380   29.0480 C.3   165  GLU165      0.1160
     79  CD       -19.4450  -30.4060   28.4310 C.2   165  GLU165      0.3649
     80  OE1      -18.4260  -30.7320   29.0830 O.co2 165  GLU165     -0.2457
     81  OE2      -19.3920  -29.9060   27.2860 O.co2 165  GLU165     -0.2457
     82  N        -16.8270  -21.8030   17.3290 N.3   473  HIS473     -0.1241
     83  CA       -16.9410  -23.1390   17.8920 C.3   473  HIS473      0.1621
     84  C        -16.4350  -24.2160   16.9160 C.2   473  HIS473      0.2264
     85  O        -15.6400  -25.0720   17.3010 O.2   473  HIS473     -0.2867
     86  CB       -18.4060  -23.4170   18.3300 C.3   473  HIS473      0.0745
     87  CG       -18.6280  -24.8160   18.8560 C.ar  473  HIS473      0.0817
     88  ND1      -18.2690  -25.1750   20.1520 N.ar  473  HIS473     -0.2268
     89  CD2      -19.1500  -25.9030   18.2340 C.ar  473  HIS473      0.1154
     90  CE1      -18.5640  -26.4560   20.2660 C.ar  473  HIS473      0.1986
     91  NE2      -19.1170  -26.9330   19.1440 N.ar  473  HIS473     -0.2212
     92  N        -12.5340  -25.8840   18.1300 N.3   478  GLU478     -0.1245
     93  CA       -12.4260  -27.2720   17.6850 C.3   478  GLU478      0.1567
     94  C        -10.9770  -27.6460   17.4300 C.2   478  GLU478      0.2260
     95  O        -10.4880  -28.6230   18.0100 O.2   478  GLU478     -0.2867
     96  CB       -13.2860  -27.4960   16.4300 C.3   478  GLU478      0.0388
     97  CG       -13.3770  -28.9430   15.9830 C.3   478  GLU478      0.1160
     98  CD       -14.1190  -29.9220   16.8790 C.2   478  GLU478      0.3649
     99  OE1      -14.8160  -29.4920   17.8280 O.co2 478  GLU478     -0.2457
    100  OE2      -14.0490  -31.1350   16.5830 O.co2 478  GLU478     -0.2457
    101  N        -22.2810  -26.8980   25.8770 N.3   626  HIS626     -0.1241
    102  CA       -21.9440  -27.6420   24.6620 C.3   626  HIS626      0.1621
    103  C        -23.0520  -27.2540   23.6290 C.2   626  HIS626      0.2264
    104  O        -24.2270  -27.5880   23.8380 O.2   626  HIS626     -0.2867
    105  CB       -21.8800  -29.1650   24.9060 C.3   626  HIS626      0.0745
    106  CG       -21.7190  -30.0200   23.6710 C.ar  626  HIS626      0.0817
    107  ND1      -21.6920  -31.3980   23.7570 N.ar  626  HIS626     -0.2268
    108  CD2      -21.5980  -29.6700   22.3620 C.ar  626  HIS626      0.1154
    109  CE1      -21.5670  -31.8420   22.5160 C.ar  626  HIS626      0.1986
    110  NE2      -21.5280  -30.8420   21.6410 N.ar  626  HIS626     -0.2212
    111  N        -14.8000  -35.2340   15.7820 N.3   670  PRO670     -0.2102
    112  CA       -15.9340  -34.5540   16.4460 C.3   670  PRO670      0.1504
    113  C        -16.3670  -35.0670   17.8230 C.2   670  PRO670      0.2576
    114  O        -16.9810  -34.3220   18.5680 O.2   670  PRO670     -0.2718
    115  CB       -17.0700  -34.7170   15.4330 C.3   670  PRO670      0.0282
    116  CG       -16.7050  -35.9180   14.6300 C.3   670  PRO670      0.0208
    117  CD       -15.2190  -35.7890   14.4790 C.3   670  PRO670      0.0893
    118  N        -16.0780  -36.3250   18.1500 N.am  671  ASN671     -0.1961
    119  CA       -16.4460  -36.9020   19.4410 C.3   671  ASN671      0.1819
    120  C        -15.2320  -37.1920   20.2760 C.2   671  ASN671      0.2621
    121  O        -14.2070  -37.6200   19.7550 O.2   671  ASN671     -0.2715
    122  CB       -17.3310  -38.1580   19.2860 C.3   671  ASN671      0.1195
    123  CG       -18.7410  -37.8370   18.8360 C.2   671  ASN671      0.2630
    124  OD1      -19.0820  -38.0250   17.6590 O.2   671  ASN671     -0.2716
    125  ND2      -19.5950  -37.3500   19.7650 N.am  671  ASN671     -0.0877
    126  N        -15.3360  -36.9170   21.5750 N.am  672  ARG672     -0.1963
    127  CA       -14.2540  -37.1200   22.5330 C.3   672  ARG672      0.1729
    128  C        -14.8000  -37.3080   23.9240 C.2   672  ARG672      0.2616
    129  O        -15.7320  -36.6180   24.3250 O.2   672  ARG672     -0.2715
    130  CB       -13.1640  -36.0200   22.4660 C.3   672  ARG672      0.0348
    131  CG       -13.6270  -34.5740   22.6580 C.3   672  ARG672      0.0492
    132  CD       -14.1170  -33.9860   21.3580 C.3   672  ARG672      0.2205
    133  NE       -14.1350  -32.5290   21.3650 N.pl3 672  ARG672     -0.0865
    134  CZ       -14.2370  -31.7930   20.2670 C.cat 672  ARG672      0.5346
    135  NH1      -14.3430  -32.3750   19.0770 N.pl3 672  ARG672      0.1354
    136  NH2      -14.2370  -30.4680   20.3470 N.pl3 672  ARG672      0.1354
    137  N        -14.2150  -38.2460   24.6570 N.am  673  ILE673     -0.1977
    138  CA       -14.6620  -38.6520   25.9860 C.3   673  ILE673      0.1596
    139  C        -13.4610  -38.8570   26.9130 C.2   673  ILE673      0.2287
    140  O        -12.4320  -39.4120   26.4870 O.2   673  ILE673     -0.2864
    141  CB       -15.5810  -39.9290   25.8490 C.3   673  ILE673      0.0276
    142  CG1      -16.2240  -40.3420   27.1970 C.3   673  ILE673      0.0022
    143  CG2      -14.8740  -41.1060   25.1740 C.3   673  ILE673      0.0022
    144  CD1      -17.5150  -41.1080   27.0920 C.3   673  ILE673      0.0001
    145  N        -18.4910  -46.5100   30.1600 N.3   681  ARG681     -0.1231
    146  CA       -19.3640  -46.7860   29.0340 C.3   681  ARG681      0.1694
    147  C        -18.9800  -47.9610   28.1310 C.2   681  ARG681      0.2592
    148  O        -19.8830  -48.6760   27.6780 O.2   681  ARG681     -0.2718
    149  CB       -19.5020  -45.5230   28.1770 C.3   681  ARG681      0.0321
    150  CG       -20.6480  -45.6030   27.1960 C.3   681  ARG681      0.0489
    151  CD       -20.9030  -44.2990   26.4960 C.3   681  ARG681      0.2205
    152  NE       -22.0920  -44.4230   25.6570 N.pl3 681  ARG681     -0.0865
    153  CZ       -23.3380  -44.2160   26.0720 C.cat 681  ARG681      0.5346
    154  NH1      -23.5770  -43.8500   27.3250 N.pl3 681  ARG681      0.1354
    155  NH2      -24.3540  -44.3720   25.2360 N.pl3 681  ARG681      0.1354
    156  N        -17.6880  -48.1270   27.8030 N.am  682  TYR682     -0.1976
    157  CA       -17.3130  -49.1120   26.7940 C.3   682  TYR682      0.1639
    158  C        -16.5050  -50.3240   27.2710 C.2   682  TYR682      0.2290
    159  O        -16.0710  -51.1100   26.4230 O.2   682  TYR682     -0.2864
    160  CB       -16.5830  -48.4160   25.6370 C.3   682  TYR682      0.0560
    161  CG       -17.4260  -47.4040   24.8930 C.ar  682  TYR682     -0.0198
    162  CD1      -18.4920  -47.8060   24.0990 C.ar  682  TYR682     -0.0009
    163  CD2      -17.1200  -46.0490   24.9370 C.ar  682  TYR682     -0.0009
    164  CE1      -19.2610  -46.8790   23.3960 C.ar  682  TYR682      0.0417
    165  CE2      -17.8620  -45.1130   24.2170 C.ar  682  TYR682      0.0417
    166  CZ       -18.9270  -45.5340   23.4380 C.ar  682  TYR682      0.1957
    167  OH       -19.6640  -44.6150   22.7290 O.3   682  TYR682     -0.2866
    168  N         -8.4280  -37.2220   27.0270 N.3   717  LYS717     -0.1245
    169  CA        -9.5500  -37.8210   26.3030 C.3   717  LYS717      0.1561
    170  C         -9.1480  -38.7050   25.1310 C.2   717  LYS717      0.2260
    171  O         -8.0600  -38.5460   24.5960 O.2   717  LYS717     -0.2867
    172  CB       -10.4610  -36.7040   25.7460 C.3   717  LYS717      0.0271
    173  CG       -11.1780  -35.8470   26.7590 C.3   717  LYS717      0.0035
    174  CD       -11.6120  -34.5550   26.1040 C.3   717  LYS717      0.0206
    175  CE       -11.9430  -33.5020   27.1190 C.3   717  LYS717      0.1093
    176  NZ       -12.4360  -32.2600   26.4660 N.3   717  LYS717     -0.1314
    177  N        -12.6040  -39.5650   18.6170 N.3   720  PHE720     -0.1241
    178  CA       -13.1950  -40.4630   17.6250 C.3   720  PHE720      0.1605
    179  C        -13.4280  -39.7660   16.3300 C.2   720  PHE720      0.2264
    180  O        -13.9480  -38.6560   16.3160 O.2   720  PHE720     -0.2867
    181  CB       -14.5500  -41.0490   18.0980 C.3   720  PHE720      0.0534
    182  CG       -14.6010  -41.6970   19.4600 C.ar  720  PHE720     -0.0203
    183  CD1      -13.5030  -42.3890   19.9650 C.ar  720  PHE720     -0.0042
    184  CD2      -15.7650  -41.6690   20.2130 C.ar  720  PHE720     -0.0042
    185  CE1      -13.5490  -42.9790   21.2280 C.ar  720  PHE720     -0.0003
    186  CE2      -15.8100  -42.2600   21.4800 C.ar  720  PHE720     -0.0003
    187  CZ       -14.7000  -42.9100   21.9780 C.ar  720  PHE720     -0.0000
    188  N        -18.1330  -43.4390   16.6480 N.3   725  LEU725     -0.1231
    189  CA       -19.0770  -43.4160   17.7580 C.3   725  LEU725      0.1693
    190  C        -20.3150  -44.2440   17.4370 C.2   725  LEU725      0.2592
    191  O        -20.7310  -45.0410   18.2770 O.2   725  LEU725     -0.2718
    192  CB       -19.4700  -41.9690   18.1250 C.3   725  LEU725      0.0284
    193  CG       -20.5540  -41.8150   19.2000 C.3   725  LEU725      0.0019
    194  CD1      -20.0050  -42.1270   20.5550 C.3   725  LEU725      0.0001
    195  CD2      -21.1450  -40.4450   19.1870 C.3   725  LEU725      0.0001
    196  N        -20.8660  -44.0580   16.2320 N.am  726  GLY726     -0.1957
    197  CA       -22.0320  -44.7790   15.7150 C.3   726  GLY726      0.1869
    198  C        -21.8380  -46.2890   15.6940 C.2   726  GLY726      0.2309
    199  O        -22.7630  -47.0340   16.0200 O.2   726  GLY726     -0.2863
    200  N        -21.5560  -47.5040   19.4160 N.3   729  GLU729     -0.1245
    201  CA       -22.8900  -47.4600   20.0150 C.3   729  GLU729      0.1567
    202  C        -23.7430  -48.6420   19.5650 C.2   729  GLU729      0.2260
    203  O        -24.4650  -49.1900   20.3890 O.2   729  GLU729     -0.2867
    204  CB       -23.5840  -46.1110   19.7990 C.3   729  GLU729      0.0388
    205  CG       -23.0290  -44.9830   20.6620 C.3   729  GLU729      0.1160
    206  CD       -23.2860  -45.0610   22.1550 C.2   729  GLU729      0.3649
    207  OE1      -24.4570  -45.2140   22.5700 O.co2 729  GLU729     -0.2457
    208  OE2      -22.3040  -44.9340   22.9170 O.co2 729  GLU729     -0.2457
@<TRIPOS>BOND
     1     1     2    1
     2    27    26    1
     3    26    28    1
     4    26    25    2
     5     2     3    1
     6     2     5    1
     7    24    25    1
     8    24    23    1
     9     3     4    2
    10   117   116    1
    11   117   111    1
    12    22    19    1
    13    22    23    1
    14   116   115    1
    15    20    19    1
    16    20    21    2
    17     8     6    1
    18    19    18    1
    19     5     6    1
    20   115   112    1
    21   198   197    1
    22   198   199    2
    23   197   196    1
    24   111   112    1
    25     6     7    1
    26    97    96    1
    27    97    98    1
    28   196   190   am
    29   180   179    2
    30   179   178    1
    31    96    93    1
    32   112   113    1
    33    18    11   am
    34   100    98   ar
    35   188   189    1
    36    98    99   ar
    37    84    85    2
    38    84    83    1
    39    82    83    1
    40    12    11    2
    41    94    93    1
    42    94    95    2
    43   190   189    1
    44   190   191    2
    45    11    10    1
    46   178   181    1
    47   178   177    1
    48   124   123    2
    49    93    92    1
    50   189   192    1
    51   113   118   am
    52   113   114    2
    53    83    86    1
    54    36    34   am
    55   181   182    1
    56   192   193    1
    57   118   119    1
    58    89    87   ar
    59    89    91   ar
    60    86    87    1
    61   123   122    1
    62   123   125   am
    63    87    88   ar
    64    10     9    1
    65    10    13    1
    66   135   134    1
    67    91    90   ar
    68   195   193    1
    69   193   194    1
    70    34    35    2
    71    34    33    1
    72   122   119    1
    73   200   201    1
    74   119   120    1
    75   182   183   ar
    76   182   184   ar
    77   202   201    1
    78   202   203    2
    79   121   120    2
    80   204   201    1
    81   204   205    1
    82    57    56    1
    83    13    14    1
    84   183   185   ar
    85    88    90   ar
    86   184   186   ar
    87    33    30    1
    88   134   136    1
    89   134   133    2
    90   120   126   am
    91   205   206    1
    92    14    15    1
    93    56    55   ar
    94    56    54   ar
    95   185   187   ar
    96    55    53   ar
    97   132   133    1
    98   132   131    1
    99   186   187   ar
   100   126   127    1
   101   110   108   ar
   102   110   109   ar
   103    30    29    1
   104    30    31    1
   105   206   207   ar
   106   206   208   ar
   107    15    16    1
   108    54    52   ar
   109   108   106   ar
   110   130   127    1
   111   130   131    1
   112   109   107   ar
   113   127   128    1
   114    53    51   ar
   115    31    32    2
   116   167   166    1
   117    16    17    1
   118   164   166   ar
   119   164   162   ar
   120   166   165   ar
   121    52    51   ar
   122   103   104    2
   123   103   102    1
   124   106   107   ar
   125   106   105    1
   126    51    50    1
   127   128   129    2
   128   128   137   am
   129   162   161   ar
   130   165   163   ar
   131   171   170    2
   132   137   138    1
   133   102   105    1
   134   102   101    1
   135   161   163   ar
   136   161   160    1
   137    50    47    1
   138   170   169    1
   139   143   141    1
   140    42    41    1
   141    42    43    1
   142   155   153    1
   143    41    38    1
   144   160   157    1
   145   152   153    2
   146   152   151    1
   147   172   169    1
   148   172   173    1
   149   141   138    1
   150   141   142    1
   151    46    47    1
   152    46    39   am
   153   138   139    1
   154   153   154    1
   155    47    48    1
   156   174   173    1
   157   174   175    1
   158    37    38    1
   159    72    70   ar
   160   169   168    1
   161    43    45   am
   162    43    44    2
   163   159   158    2
   164   176   175    1
   165   140   139    2
   166   151   150    1
   167    38    39    1
   168    39    40    2
   169   157   158    1
   170   157   156    1
   171   144   142    1
   172   150   149    1
   173    81    79   ar
   174    70    71   ar
   175    70    69    1
   176    48    49    2
   177   148   147    2
   178   156   147   am
   179   147   146    1
   180   149   146    1
   181    64    62    1
   182    63    62    1
   183    79    78    1
   184    79    80   ar
   185    62    59    1
   186    69    66    1
   187   146   145    1
   188    78    77    1
   189    65    66    1
   190    65    60   am
   191    66    67    1
   192    59    58    1
   193    59    60    1
   194    76    75    2
   195    60    61    2
   196    77    74    1
   197    75    74    1
   198    67    68    2
   199    74    73    1
