@<TRIPOS>MOLECULE
tmp/5n69B00.pdb
 88 84 0 0 0
SMALL
GASTEIGER

@<TRIPOS>ATOM
      1  N        -64.1340   -1.0550   26.3490 N.3   284  LEU284     -0.1231
      2  CA       -64.9010    0.0710   25.7940 C.3   284  LEU284      0.1693
      3  C        -64.5440    0.3270   24.3160 C.2   284  LEU284      0.2592
      4  O        -64.4290    1.4750   23.8900 O.2   284  LEU284     -0.2718
      5  CB       -64.7570    1.3560   26.6620 C.3   284  LEU284      0.0284
      6  CG       -64.8200    1.2230   28.2090 C.3   284  LEU284      0.0019
      7  CD1      -64.2900    2.4890   28.8980 C.3   284  LEU284      0.0001
      8  CD2      -66.2090    0.8500   28.7020 C.3   284  LEU284      0.0001
      9  N        -64.3740   -0.7630   23.5360 N.am  285  ILE285     -0.1966
     10  CA       -63.9900   -0.7230   22.1160 C.3   285  ILE285      0.1727
     11  C        -65.0470   -1.3090   21.1630 C.2   285  ILE285      0.2616
     12  O        -65.9360   -2.0540   21.5870 O.2   285  ILE285     -0.2715
     13  CB       -62.5920   -1.3850   21.8590 C.3   285  ILE285      0.0290
     14  CG1      -62.4970   -2.8160   22.4410 C.3   285  ILE285      0.0022
     15  CG2      -61.4390   -0.4900   22.3370 C.3   285  ILE285      0.0023
     16  CD1      -61.5280   -3.7370   21.7050 C.3   285  ILE285      0.0001
     17  N        -64.9150   -0.9850   19.8620 N.am  286  THR286     -0.1951
     18  CA       -65.7430   -1.5180   18.7770 C.3   286  THR286      0.1897
     19  C        -65.0220   -2.8010   18.2810 C.2   286  THR286      0.2313
     20  O        -64.0150   -3.2020   18.8710 O.2   286  THR286     -0.2863
     21  CB       -65.9210   -0.4630   17.6550 C.3   286  THR286      0.1794
     22  OG1      -64.6860   -0.2790   16.9600 O.3   286  THR286     -0.2208
     23  CG2      -66.4310    0.8930   18.1670 C.3   286  THR286      0.0378
     24  N        -60.9110    1.8130   13.3890 N.3   291  ASP291     -0.1225
     25  CA       -61.3260    2.8140   14.3610 C.3   291  ASP291      0.1805
     26  C        -60.1670    3.1820   15.2900 C.2   291  ASP291      0.2597
     27  O        -60.2240    4.2280   15.9300 O.2   291  ASP291     -0.2718
     28  CB       -62.4970    2.2870   15.1950 C.3   291  ASP291      0.1424
     29  CG       -63.8260    2.2820   14.4760 C.2   291  ASP291      0.3668
     30  OD1      -63.9920    3.0810   13.5210 O.co2 291  ASP291     -0.2456
     31  OD2      -64.7160    1.5120   14.8900 O.co2 291  ASP291     -0.2456
     32  N        -59.1050    2.3440   15.3460 N.am  292  TYR292     -0.1976
     33  CA       -57.9490    2.5320   16.2330 C.3   292  TYR292      0.1639
     34  C        -56.6740    2.8020   15.4370 C.2   292  TYR292      0.2290
     35  O        -56.1650    1.9170   14.7500 O.2   292  TYR292     -0.2864
     36  CB       -57.8530    1.3510   17.2290 C.3   292  TYR292      0.0560
     37  CG       -59.1670    1.2070   17.9600 C.ar  292  TYR292     -0.0198
     38  CD1      -59.5330    2.1100   18.9570 C.ar  292  TYR292     -0.0009
     39  CD2      -60.1310    0.3060   17.5200 C.ar  292  TYR292     -0.0009
     40  CE1      -60.7990    2.0770   19.5400 C.ar  292  TYR292      0.0417
     41  CE2      -61.4050    0.2690   18.0910 C.ar  292  TYR292      0.0417
     42  CZ       -61.7310    1.1510   19.1080 C.ar  292  TYR292      0.1957
     43  OH       -62.9840    1.1280   19.6740 O.3   292  TYR292     -0.2866
     44  N        -57.1260    3.2840   22.7800 N.3   340  HIS340     -0.1241
     45  CA       -57.8250    4.5620   22.9420 C.3   340  HIS340      0.1621
     46  C        -56.8670    5.7410   22.9030 C.2   340  HIS340      0.2264
     47  O        -57.1930    6.7720   22.3010 O.2   340  HIS340     -0.2867
     48  CB       -58.6390    4.5810   24.2420 C.3   340  HIS340      0.0745
     49  CG       -59.8090    3.6430   24.2400 C.ar  340  HIS340      0.0817
     50  ND1      -60.8720    3.8200   23.3750 N.ar  340  HIS340     -0.2268
     51  CD2      -60.0600    2.5690   25.0230 C.ar  340  HIS340      0.1154
     52  CE1      -61.7190    2.8420   23.6430 C.ar  340  HIS340      0.1986
     53  NE2      -61.2700    2.0610   24.6240 N.ar  340  HIS340     -0.2212
     54  N        -56.0010    7.3780   19.6620 N.3   343  ASN343     -0.1240
     55  CA       -57.1190    8.1140   19.0700 C.3   343  ASN343      0.1653
     56  C        -57.3360    9.4900   19.6970 C.2   343  ASN343      0.2266
     57  O        -58.2520   10.2190   19.2750 O.2   343  ASN343     -0.2867
     58  CB       -58.4060    7.2930   19.1060 C.3   343  ASN343      0.1155
     59  CG       -58.4150    6.0370   18.2710 C.2   343  ASN343      0.2627
     60  OD1      -57.4880    5.7260   17.5260 O.2   343  ASN343     -0.2716
     61  ND2      -59.4740    5.2730   18.3950 N.am  343  ASN343     -0.0877
     62  N        -63.3940   12.2310   24.4960 N.3   360  GLU360     -0.1231
     63  CA       -63.9830   10.8880   24.5730 C.3   360  GLU360      0.1699
     64  C        -62.9710    9.7580   24.7120 C.2   360  GLU360      0.2592
     65  O        -63.0950    8.9740   25.6530 O.2   360  GLU360     -0.2718
     66  CB       -64.9330   10.6220   23.3950 C.3   360  GLU360      0.0402
     67  CG       -66.3610   11.0730   23.6870 C.3   360  GLU360      0.1161
     68  CD       -67.2900   11.3000   22.5080 C.2   360  GLU360      0.3649
     69  OE1      -68.4970   10.9950   22.6490 O.co2 360  GLU360     -0.2457
     70  OE2      -66.8400   11.8560   21.4790 O.co2 360  GLU360     -0.2457
     71  N        -61.9580    9.6840   23.8110 N.am  361  GLU361     -0.1979
     72  CA       -60.9350    8.6270   23.8460 C.3   361  GLU361      0.1602
     73  C        -59.9550    8.7960   24.9920 C.2   361  GLU361      0.2287
     74  O        -59.4620    7.7990   25.5110 O.2   361  GLU361     -0.2864
     75  CB       -60.2090    8.4860   22.5050 C.3   361  GLU361      0.0415
     76  CG       -61.1090    8.0160   21.3740 C.3   361  GLU361      0.1163
     77  CD       -61.4250    6.5360   21.3430 C.2   361  GLU361      0.3649
     78  OE1      -60.4910    5.7410   21.1120 O.co2 361  GLU361     -0.2457
     79  OE2      -62.6120    6.1720   21.4910 O.co2 361  GLU361     -0.2457
     80  N        -61.7690    7.4350   28.1570 N.3   364  LYS364     -0.1245
     81  CA       -61.7600    5.9620   28.1160 C.3   364  LYS364      0.1561
     82  C        -60.3800    5.4220   28.4710 C.2   364  LYS364      0.2260
     83  O        -60.2800    4.4640   29.2340 O.2   364  LYS364     -0.2867
     84  CB       -62.1910    5.4420   26.7390 C.3   364  LYS364      0.0271
     85  CG       -63.6230    5.7960   26.3830 C.3   364  LYS364      0.0035
     86  CD       -63.9620    5.3570   24.9790 C.3   364  LYS364      0.0206
     87  CE       -65.2000    6.0430   24.4750 C.3   364  LYS364      0.1093
     88  NZ       -65.9830    5.1610   23.5890 N.3   364  LYS364     -0.1314
@<TRIPOS>BOND
     1    24    25    1
     2    30    29   ar
     3    25    28    1
     4    25    26    1
     5    29    31   ar
     6    29    28    1
     7    35    34    2
     8    26    32   am
     9    26    27    2
    10    32    33    1
    11    34    33    1
    12    33    36    1
    13    22    21    1
    14    36    37    1
    15    39    37   ar
    16    39    41   ar
    17    60    59    2
    18    21    23    1
    19    21    18    1
    20    37    38   ar
    21    41    42   ar
    22    59    61   am
    23    59    58    1
    24    19    18    1
    25    19    20    2
    26    18    17    1
    27    38    40   ar
    28    55    58    1
    29    55    54    1
    30    55    56    1
    31    42    40   ar
    32    42    43    1
    33    57    56    2
    34    17    11   am
    35    78    77   ar
    36    11    12    2
    37    11    10    1
    38    77    76    1
    39    77    79   ar
    40    76    75    1
    41    70    68   ar
    42    16    14    1
    43    13    10    1
    44    13    15    1
    45    13    14    1
    46    10     9    1
    47    47    46    2
    48    75    72    1
    49    68    69   ar
    50    68    67    1
    51    44    45    1
    52    46    45    1
    53    45    48    1
    54    50    52   ar
    55    50    49   ar
    56    66    67    1
    57    66    63    1
    58     9     3   am
    59    88    87    1
    60    52    53   ar
    61    71    72    1
    62    71    64   am
    63    72    73    1
    64     4     3    2
    65    49    48    1
    66    49    51   ar
    67     3     2    1
    68    87    86    1
    69    62    63    1
    70    63    64    1
    71    53    51   ar
    72    64    65    2
    73    86    85    1
    74    73    74    2
    75     2     1    1
    76     2     5    1
    77    85    84    1
    78     5     6    1
    79    84    81    1
    80    81    80    1
    81    81    82    1
    82     6     8    1
    83     6     7    1
    84    82    83    2
