@<TRIPOS>MOLECULE
tmp/5n69B01.pdb
 186 183 0 0 0
SMALL
GASTEIGER

@<TRIPOS>ATOM
      1  N        -37.7470  -33.1220    5.8020 N.3   110  ILE110     -0.1231
      2  CA       -37.2710  -31.7550    6.0310 C.3   110  ILE110      0.1692
      3  C        -36.0320  -31.6730    6.9360 C.2   110  ILE110      0.2592
      4  O        -35.4650  -30.5850    7.0430 O.2   110  ILE110     -0.2718
      5  CB       -38.4270  -30.8110    6.5160 C.3   110  ILE110      0.0266
      6  CG1      -38.9490  -31.1900    7.9310 C.3   110  ILE110      0.0019
      7  CG2      -39.5820  -30.7440    5.4600 C.3   110  ILE110      0.0020
      8  CD1      -39.6470  -30.0990    8.7070 C.3   110  ILE110      0.0001
      9  N        -35.5960  -32.7880    7.5650 N.am  111  TYR111     -0.1976
     10  CA       -34.4120  -32.7630    8.4330 C.3   111  TYR111      0.1639
     11  C        -33.2790  -33.5810    7.8580 C.2   111  TYR111      0.2290
     12  O        -33.5060  -34.7070    7.4250 O.2   111  TYR111     -0.2864
     13  CB       -34.7300  -33.2750    9.8480 C.3   111  TYR111      0.0560
     14  CG       -35.7280  -32.4450   10.6150 C.ar  111  TYR111     -0.0198
     15  CD1      -35.3320  -31.3080   11.3050 C.ar  111  TYR111     -0.0009
     16  CD2      -37.0650  -32.8190   10.6880 C.ar  111  TYR111     -0.0009
     17  CE1      -36.2520  -30.5270   12.0030 C.ar  111  TYR111      0.0417
     18  CE2      -37.9960  -32.0500   11.3900 C.ar  111  TYR111      0.0417
     19  CZ       -37.5840  -30.9060   12.0430 C.ar  111  TYR111      0.1957
     20  OH       -38.4940  -30.1490   12.7310 O.3   111  TYR111     -0.2866
     21  N        -32.5020  -27.9100    8.2730 N.3   120  THR120     -0.1218
     22  CA       -33.9380  -28.1140    8.1120 C.3   120  THR120      0.1862
     23  C        -34.5130  -27.0890    7.1380 C.2   120  THR120      0.2287
     24  O        -34.2090  -25.9190    7.2310 O.2   120  THR120     -0.2866
     25  CB       -34.6980  -28.2260    9.4550 C.3   120  THR120      0.1770
     26  OG1      -36.0750  -28.5250    9.1760 O.3   120  THR120     -0.2211
     27  CG2      -34.5800  -26.9820   10.3380 C.3   120  THR120      0.0375
     28  N        -37.9240  -25.3280    5.5600 N.3   122  ASN122     -0.1226
     29  CA       -39.3200  -25.0180    5.8650 C.3   122  ASN122      0.1770
     30  C        -40.3030  -25.6900    4.8750 C.2   122  ASN122      0.2439
     31  O        -40.2440  -25.3730    3.6920 O.2   122  ASN122     -0.2733
     32  CB       -39.5150  -23.5040    5.9000 C.3   122  ASN122      0.1168
     33  CG       -40.8540  -23.0420    6.4110 C.2   122  ASN122      0.2627
     34  OD1      -41.8490  -23.7870    6.4730 O.2   122  ASN122     -0.2716
     35  ND2      -40.9050  -21.7890    6.7910 N.am  122  ASN122     -0.0877
     36  N        -41.2240  -26.6010    5.3190 N.am  123  PRO123     -0.2718
     37  CA       -42.1270  -27.2610    4.3490 C.3   123  PRO123      0.1535
     38  C        -43.3050  -26.4200    3.8750 C.2   123  PRO123      0.2598
     39  O        -43.8640  -26.7240    2.8140 O.2   123  PRO123     -0.2715
     40  CB       -42.6160  -28.4950    5.1030 C.3   123  PRO123      0.0310
     41  CG       -42.5930  -28.0830    6.5250 C.3   123  PRO123      0.0237
     42  CD       -41.4440  -27.1210    6.6900 C.3   123  PRO123      0.0939
     43  N        -43.6960  -25.3760    4.6630 N.am  124  TYR124     -0.1974
     44  CA       -44.8490  -24.5030    4.3850 C.3   124  TYR124      0.1639
     45  C        -46.1550  -25.3220    4.2760 C.2   124  TYR124      0.2290
     46  O        -47.0660  -24.9580    3.5450 O.2   124  TYR124     -0.2864
     47  CB       -44.5850  -23.6010    3.1500 C.3   124  TYR124      0.0560
     48  CG       -43.7340  -22.4020    3.5000 C.ar  124  TYR124     -0.0198
     49  CD1      -44.1110  -21.5270    4.5150 C.ar  124  TYR124     -0.0009
     50  CD2      -42.5290  -22.1640    2.8490 C.ar  124  TYR124     -0.0009
     51  CE1      -43.3140  -20.4410    4.8700 C.ar  124  TYR124      0.0417
     52  CE2      -41.7330  -21.0630    3.1810 C.ar  124  TYR124      0.0417
     53  CZ       -42.1350  -20.2010    4.1900 C.ar  124  TYR124      0.1957
     54  OH       -41.3630  -19.1190    4.5550 O.3   124  TYR124     -0.2866
     55  N        -48.1070  -28.5010    7.1470 N.3   125  TRP125     -0.1227
     56  CA       -47.9540  -29.2630    8.3780 C.3   125  TRP125      0.1737
     57  C        -47.9430  -30.7530    8.0910 C.2   125  TRP125      0.2595
     58  O        -48.8000  -31.2570    7.3770 O.2   125  TRP125     -0.2718
     59  CB       -48.9740  -28.8420    9.4450 C.3   125  TRP125      0.0564
     60  CG       -48.5590  -27.5700   10.1450 C.ar  125  TRP125      0.0003
     61  CD1      -49.0090  -26.3040    9.8880 C.ar  125  TRP125      0.0946
     62  CD2      -47.5170  -27.4350   11.1350 C.ar  125  TRP125      0.0152
     63  NE1      -48.3490  -25.3960   10.6860 N.ar  125  TRP125     -0.2442
     64  CE2      -47.4410  -26.0650   11.4750 C.ar  125  TRP125      0.0810
     65  CE3      -46.6700  -28.3500   11.8040 C.ar  125  TRP125      0.0012
     66  CZ2      -46.5620  -25.5870   12.4610 C.ar  125  TRP125      0.0191
     67  CZ3      -45.8110  -27.8750   12.7930 C.ar  125  TRP125      0.0001
     68  CH2      -45.7580  -26.5110   13.1060 C.ar  125  TRP125      0.0015
     69  N        -46.9060  -31.4370    8.5990 N.am  126  LEU126     -0.1980
     70  CA       -46.6600  -32.8720    8.4320 C.3   126  LEU126      0.1596
     71  C        -46.9290  -33.6420    9.7490 C.2   126  LEU126      0.2287
     72  O        -46.7450  -33.0760   10.8410 O.2   126  LEU126     -0.2864
     73  CB       -45.2030  -33.1200    7.9620 C.3   126  LEU126      0.0297
     74  CG       -44.7420  -32.4410    6.6730 C.3   126  LEU126      0.0022
     75  CD1      -43.2120  -32.4490    6.5740 C.3   126  LEU126      0.0001
     76  CD2      -45.4310  -33.0280    5.4320 C.3   126  LEU126      0.0001
     77  N        -44.8650  -34.6500   14.5110 N.3   129  TYR129     -0.1241
     78  CA       -44.6700  -34.0750   15.8490 C.3   129  TYR129      0.1605
     79  C        -45.7260  -34.4400   16.8820 C.2   129  TYR129      0.2264
     80  O        -46.3640  -33.5510   17.4410 O.2   129  TYR129     -0.2867
     81  CB       -44.5830  -32.5400   15.7580 C.3   129  TYR129      0.0534
     82  CG       -43.6520  -31.9760   14.7090 C.ar  129  TYR129     -0.0201
     83  CD1      -42.2700  -31.9860   14.8970 C.ar  129  TYR129     -0.0009
     84  CD2      -44.1520  -31.3240   13.5850 C.ar  129  TYR129     -0.0009
     85  CE1      -41.4140  -31.3600   13.9960 C.ar  129  TYR129      0.0417
     86  CE2      -43.3020  -30.7180   12.6620 C.ar  129  TYR129      0.0417
     87  CZ       -41.9320  -30.7300   12.8770 C.ar  129  TYR129      0.1957
     88  OH       -41.0870  -30.1220   11.9730 O.3   129  TYR129     -0.2866
     89  N        -35.6170  -14.5550    8.5500 N.3   175  SER175     -0.1202
     90  CA       -37.0180  -14.4310    8.9750 C.3   175  SER175      0.2020
     91  C        -37.9080  -15.4340    8.1950 C.2   175  SER175      0.2619
     92  O        -37.8080  -15.5450    6.9650 O.2   175  SER175     -0.2717
     93  CB       -37.5080  -12.9940    8.7990 C.3   175  SER175      0.2103
     94  OG       -38.8800  -12.8620    9.1340 O.3   175  SER175     -0.2182
     95  N        -38.7040  -16.1940    8.9400 N.am  176  GLY176     -0.1942
     96  CA       -39.6340  -17.1910    8.4270 C.3   176  GLY176      0.2014
     97  C        -39.0300  -18.5440    8.1320 C.2   176  GLY176      0.2639
     98  O        -39.7100  -19.3990    7.5640 O.2   176  GLY176     -0.2714
     99  N        -37.7490  -18.7500    8.4990 N.am  177  ALA177     -0.1963
    100  CA       -37.0100  -19.9920    8.2320 C.3   177  ALA177      0.1728
    101  C        -37.5130  -21.2100    9.0230 C.2   177  ALA177      0.2617
    102  O        -37.3970  -22.3270    8.5270 O.2   177  ALA177     -0.2715
    103  CB       -35.5180  -19.7790    8.4500 C.3   177  ALA177      0.0334
    104  N        -38.0360  -20.9910   10.2330 N.am  178  GLY178     -0.1940
    105  CA       -38.5870  -22.0420   11.0880 C.3   178  GLY178      0.2014
    106  C        -37.9850  -22.1800   12.4750 C.2   178  GLY178      0.2639
    107  O        -38.0860  -23.2530   13.0700 O.2   178  GLY178     -0.2714
    108  N        -37.3810  -21.1070   13.0200 N.am  179  LYS179     -0.1963
    109  CA       -36.7320  -21.1350   14.3440 C.3   179  LYS179      0.1728
    110  C        -37.6910  -21.3230   15.5270 C.2   179  LYS179      0.2617
    111  O        -37.3770  -22.1030   16.4270 O.2   179  LYS179     -0.2715
    112  CB       -35.8540  -19.9100   14.5840 C.3   179  LYS179      0.0311
    113  CG       -34.8320  -19.6080   13.4960 C.3   179  LYS179      0.0038
    114  CD       -34.1020  -18.2760   13.7940 C.3   179  LYS179      0.0206
    115  CE       -34.9540  -17.0480   13.5760 C.3   179  LYS179      0.1093
    116  NZ       -35.2660  -16.8460   12.1320 N.3   179  LYS179     -0.1314
    117  N        -38.8400  -20.5950   15.5320 N.am  180  THR180     -0.1937
    118  CA       -39.8910  -20.6270   16.5630 C.3   180  THR180      0.2028
    119  C        -40.5970  -21.9790   16.5350 C.2   180  THR180      0.2642
    120  O        -40.8470  -22.5420   17.5970 O.2   180  THR180     -0.2714
    121  CB       -40.8030  -19.4040   16.3770 C.3   180  THR180      0.1808
    122  OG1      -40.0070  -18.2190   16.5140 O.3   180  THR180     -0.2208
    123  CG2      -41.9970  -19.3690   17.3280 C.3   180  THR180      0.0379
    124  N        -40.8860  -22.5180   15.3210 N.am  181  VAL181     -0.1963
    125  CA       -41.4890  -23.8460   15.1390 C.3   181  VAL181      0.1727
    126  C        -40.6070  -24.9050   15.8010 C.2   181  VAL181      0.2616
    127  O        -41.1000  -25.6380   16.6570 O.2   181  VAL181     -0.2715
    128  CB       -41.8140  -24.1790   13.6580 C.3   181  VAL181      0.0290
    129  CG1      -42.0970  -25.6700   13.4730 C.3   181  VAL181      0.0023
    130  CG2      -43.0010  -23.3570   13.1660 C.3   181  VAL181      0.0023
    131  N        -39.2900  -24.9250   15.4760 N.am  182  ASN182     -0.1972
    132  CA       -38.3380  -25.8980   16.0230 C.3   182  ASN182      0.1688
    133  C        -38.0610  -25.6920   17.5100 C.2   182  ASN182      0.2292
    134  O        -37.9050  -26.6790   18.2170 O.2   182  ASN182     -0.2864
    135  CB       -37.0530  -25.9680   15.1930 C.3   182  ASN182      0.1181
    136  CG       -37.2660  -26.6980   13.8810 C.2   182  ASN182      0.2629
    137  OD1      -37.3600  -27.9290   13.8360 O.2   182  ASN182     -0.2716
    138  ND2      -37.4400  -25.9650   12.7890 N.am  182  ASN182     -0.0877
    139  N        -42.7960  -12.9920    7.4010 N.3   220  ASN220     -0.1225
    140  CA       -43.4040  -14.0270    8.2370 C.3   220  ASN220      0.1785
    141  C        -44.7400  -13.5680    8.8240 C.2   220  ASN220      0.2597
    142  O        -44.8240  -12.4830    9.3880 O.2   220  ASN220     -0.2718
    143  CB       -42.4280  -14.4580    9.3510 C.3   220  ASN220      0.1169
    144  CG       -42.8250  -15.6810   10.1650 C.2   220  ASN220      0.2627
    145  OD1      -43.8830  -16.2980    9.9870 O.2   220  ASN220     -0.2716
    146  ND2      -41.9910  -16.0380   11.1180 N.am  220  ASN220     -0.0877
    147  N        -45.7850  -14.4070    8.6930 N.am  221  ASP221     -0.1960
    148  CA       -47.1170  -14.1340    9.2310 C.3   221  ASP221      0.1840
    149  C        -47.1130  -14.2040   10.7650 C.2   221  ASP221      0.2622
    150  O        -47.9740  -13.5950   11.4070 O.2   221  ASP221     -0.2715
    151  CB       -48.1680  -15.0760    8.6260 C.3   221  ASP221      0.1450
    152  CG       -48.5170  -14.8020    7.1690 C.2   221  ASP221      0.3671
    153  OD1      -48.1360  -13.7300    6.6540 O.co2 221  ASP221     -0.2456
    154  OD2      -49.2160  -15.6350    6.5580 O.co2 221  ASP221     -0.2456
    155  N        -46.1200  -14.9100   11.3480 N.am  222  ASN222     -0.1958
    156  CA       -45.9550  -15.0250   12.7900 C.3   222  ASN222      0.1819
    157  C        -44.5060  -14.6620   13.2060 C.2   222  ASN222      0.2622
    158  O        -43.8470  -15.4260   13.9170 O.2   222  ASN222     -0.2715
    159  CB       -46.3670  -16.4290   13.2680 C.3   222  ASN222      0.1195
    160  CG       -46.4110  -16.5380   14.7690 C.2   222  ASN222      0.2630
    161  OD1      -46.7450  -15.5860   15.4680 O.2   222  ASN222     -0.2716
    162  ND2      -46.0170  -17.6710   15.3000 N.am  222  ASN222     -0.0877
    163  N        -44.0110  -13.4880   12.7600 N.am  223  SER223     -0.1936
    164  CA       -42.6420  -13.0370   13.0550 C.3   223  SER223      0.2055
    165  C        -42.4250  -12.7190   14.5450 C.2   223  SER223      0.2643
    166  O        -43.2180  -11.9880   15.1280 O.2   223  SER223     -0.2714
    167  CB       -42.2910  -11.8240   12.1970 C.3   223  SER223      0.2130
    168  OG       -40.9140  -11.4920   12.2830 O.3   223  SER223     -0.2179
    169  N        -41.3710  -13.2930   15.1590 N.am  224  SER224     -0.1949
    170  CA       -40.9640  -13.0320   16.5420 C.3   224  SER224      0.1924
    171  C        -40.2700  -11.6730   16.5130 C.2   224  SER224      0.2314
    172  O        -39.3290  -11.4590   15.7340 O.2   224  SER224     -0.2863
    173  CB       -39.9780  -14.0920   17.0430 C.3   224  SER224      0.2116
    174  OG       -40.2980  -15.4240   16.6750 O.3   224  SER224     -0.2180
    175  N        -33.9130  -18.8350   20.5060 N.3   442  ASP442     -0.1239
    176  CA       -34.8180  -18.4010   19.4620 C.3   442  ASP442      0.1674
    177  C        -34.7230  -16.8700   19.2960 C.2   442  ASP442      0.2266
    178  O        -35.4100  -16.1170   19.9900 O.2   442  ASP442     -0.2867
    179  CB       -36.2580  -18.8360   19.8020 C.3   442  ASP442      0.1410
    180  CG       -37.2440  -18.6420   18.6630 C.2   442  ASP442      0.3668
    181  OD1      -36.7900  -18.5750   17.4910 O.co2 442  ASP442     -0.2456
    182  OD2      -38.4780  -18.5980   18.9370 O.co2 442  ASP442     -0.2456
    183  N        -34.8370  -13.4810   13.4170 N.3   445  GLY445     -0.1225
    184  CA       -33.9610  -13.7470   12.2790 C.3   445  GLY445      0.1811
    185  C        -33.6390  -12.5970   11.3560 C.2   445  GLY445      0.2280
    186  O        -34.3140  -11.5670   11.3710 O.2   445  GLY445     -0.2866
@<TRIPOS>BOND
     1    39    38    2
     2    50    52   ar
     3    50    48   ar
     4    47    48    1
     5    47    44    1
     6    52    53   ar
     7    48    49   ar
     8    46    45    2
     9    31    30    2
    10    38    37    1
    11    38    43   am
    12    53    54    1
    13    53    51   ar
    14    45    44    1
    15    37    40    1
    16    37    36    1
    17    44    43    1
    18    49    51   ar
    19    30    36   am
    20    30    29    1
    21    40    41    1
    22    36    42    1
    23    76    74    1
    24     7     5    1
    25    28    29    1
    26     1     2    1
    27    29    32    1
    28    32    33    1
    29     2     5    1
    30     2     3    1
    31    33    34    2
    32    33    35   am
    33     5     6    1
    34    41    42    1
    35   154   152   ar
    36    75    74    1
    37   153   152   ar
    38    74    73    1
    39     3     4    2
    40     3     9   am
    41    92    91    2
    42    23    24    2
    43    23    22    1
    44    55    56    1
    45   152   151    1
    46    58    57    2
    47   139   140    1
    48    12    11    2
    49    98    97    2
    50     9    10    1
    51    11    10    1
    52     6     8    1
    53    73    70    1
    54    57    56    1
    55    57    69   am
    56    22    21    1
    57    22    25    1
    58    97    96    1
    59    97    99   am
    60    91    95   am
    61    91    90    1
    62   100   103    1
    63   100    99    1
    64   100   101    1
    65   140   141    1
    66   140   143    1
    67    56    59    1
    68    96    95    1
    69    70    69    1
    70    70    71    1
    71    10    13    1
    72   102   101    2
    73    89    90    1
    74   151   148    1
    75   147   141   am
    76   147   148    1
    77    93    90    1
    78    93    94    1
    79   141   142    2
    80   101   104   am
    81    26    25    1
    82   148   149    1
    83   143   144    1
    84    59    60    1
    85    25    27    1
    86    71    72    2
    87    13    14    1
    88    61    60   ar
    89    61    63   ar
    90   145   144    2
    91    60    62   ar
    92   144   146   am
    93   104   105    1
    94    14    16   ar
    95    14    15   ar
    96    63    64   ar
    97    16    18   ar
    98   149   155   am
    99   149   150    2
   100   105   106    1
   101    62    64   ar
   102    62    65   ar
   103    15    17   ar
   104   155   156    1
   105   185   186    2
   106   185   184    1
   107    18    19   ar
   108    64    66   ar
   109    65    67   ar
   110    88    87    1
   111    17    19   ar
   112    19    20    1
   113   116   115    1
   114   167   168    1
   115   167   164    1
   116   184   183    1
   117    66    68   ar
   118   106   108   am
   119   106   107    2
   120    86    87   ar
   121    86    84   ar
   122   163   164    1
   123   163   157   am
   124   138   136   am
   125   156   157    1
   126   156   159    1
   127    67    68   ar
   128    87    85   ar
   129   108   109    1
   130   164   165    1
   131   130   128    1
   132   157   158    2
   133   159   160    1
   134   129   128    1
   135   113   114    1
   136   113   112    1
   137   115   114    1
   138    84    82   ar
   139   128   125    1
   140   137   136    2
   141   136   135    1
   142    85    83   ar
   143   109   112    1
   144   109   110    1
   145    77    78    1
   146   165   166    2
   147   165   169   am
   148    82    83   ar
   149    82    81    1
   150   160   162   am
   151   160   161    2
   152   125   124    1
   153   125   126    1
   154   169   170    1
   155   135   132    1
   156   124   119   am
   157   131   126   am
   158   131   132    1
   159   110   117   am
   160   110   111    2
   161   117   118    1
   162   172   171    2
   163    81    78    1
   164   126   127    2
   165    78    79    1
   166   132   133    1
   167   121   122    1
   168   121   118    1
   169   121   123    1
   170   171   170    1
   171   119   118    1
   172   119   120    2
   173   170   173    1
   174   174   173    1
   175    79    80    2
   176   181   180   ar
   177   133   134    2
   178   180   182   ar
   179   180   179    1
   180   177   176    1
   181   177   178    2
   182   176   179    1
   183   176   175    1
