@<TRIPOS>MOLECULE
tmp/5n6bA03.pdb
 93 91 0 0 0
SMALL
GASTEIGER

@<TRIPOS>ATOM
      1  N         43.3010   49.9530    4.7260 N.3    85  TYR85      -0.1241
      2  CA        42.1560   50.1800    3.8180 C.3    85  TYR85       0.1605
      3  C         41.5060   51.5410    4.0470 C.2    85  TYR85       0.2264
      4  O         40.5370   51.9110    3.3550 O.2    85  TYR85      -0.2867
      5  CB        41.1650   49.0120    4.0060 C.3    85  TYR85       0.0534
      6  CG        41.6890   47.6850    3.4820 C.ar   85  TYR85      -0.0201
      7  CD1       41.6740   47.4130    2.1180 C.ar   85  TYR85      -0.0009
      8  CD2       42.1660   46.7310    4.3290 C.ar   85  TYR85      -0.0009
      9  CE1       42.1950   46.2200    1.6140 C.ar   85  TYR85       0.0417
     10  CE2       42.6450   45.5370    3.8790 C.ar   85  TYR85       0.0417
     11  CZ        42.6220   45.2430    2.5280 C.ar   85  TYR85       0.1957
     12  OH        43.1260   44.0320    2.0620 O.3    85  TYR85      -0.2866
     13  N         39.5670   52.6870    6.3520 N.3    87  GLN87      -0.1245
     14  CA        38.1580   52.5480    6.7040 C.3    87  GLN87       0.1566
     15  C         37.8040   53.4870    7.8680 C.2    87  GLN87       0.2260
     16  O         38.6440   53.8560    8.7100 O.2    87  GLN87      -0.2867
     17  CB        37.8470   51.1220    7.0090 C.3    87  GLN87       0.0367
     18  CG        37.9510   50.2500    5.7790 C.3    87  GLN87       0.0905
     19  CD        38.1060   48.7940    6.0760 C.2    87  GLN87       0.2608
     20  OE1       38.7290   48.3860    7.0410 O.2    87  GLN87      -0.2717
     21  NE2       37.6190   47.9630    5.1520 N.am   87  GLN87      -0.0878
     22  N         34.3760   45.4610   11.5900 N.3    93  HIS93      -0.1241
     23  CA        35.1540   44.5880   10.6990 C.3    93  HIS93       0.1621
     24  C         35.5230   43.3100   11.3680 C.2    93  HIS93       0.2264
     25  O         35.5110   43.1970   12.5880 O.2    93  HIS93      -0.2867
     26  CB        36.3960   45.3630   10.1760 C.3    93  HIS93       0.0745
     27  CG        36.0180   46.5950    9.4470 C.ar   93  HIS93       0.0817
     28  ND1       35.6690   46.5870    8.1070 N.ar   93  HIS93      -0.2268
     29  CD2       35.7500   47.8300    9.8990 C.ar   93  HIS93       0.1154
     30  CE1       35.2670   47.7990    7.7640 C.ar   93  HIS93       0.1986
     31  NE2       35.3190   48.5840    8.8380 N.ar   93  HIS93      -0.2212
     32  N         40.0850   38.9120    5.9310 N.3   118  TYR118     -0.1227
     33  CA        39.5700   40.1530    6.4410 C.3   118  TYR118      0.1736
     34  C         38.2150   40.4250    5.7390 C.2   118  TYR118      0.2595
     35  O         38.0860   40.4140    4.5090 O.2   118  TYR118     -0.2718
     36  CB        40.5480   41.3020    6.1510 C.3   118  TYR118      0.0548
     37  CG        40.1770   42.6540    6.7710 C.ar  118  TYR118     -0.0200
     38  CD1       39.9080   42.7710    8.1070 C.ar  118  TYR118     -0.0009
     39  CD2       40.1520   43.7990    5.9940 C.ar  118  TYR118     -0.0009
     40  CE1       39.5510   44.0020    8.6600 C.ar  118  TYR118      0.0417
     41  CE2       39.8220   45.0500    6.5310 C.ar  118  TYR118      0.0417
     42  CZ        39.5610   45.1250    7.9100 C.ar  118  TYR118      0.1957
     43  OH        39.2120   46.3270    8.5230 O.3   118  TYR118     -0.2866
     44  N         37.2290   40.7250    6.5680 N.am  119  ASP119     -0.1974
     45  CA        35.8390   40.9920    6.1510 C.3   119  ASP119      0.1709
     46  C         35.2590   39.9010    5.1720 C.2   119  ASP119      0.2293
     47  O         34.6460   40.1990    4.1790 O.2   119  ASP119     -0.2864
     48  CB        35.7070   42.3780    5.5500 C.3   119  ASP119      0.1436
     49  CG        35.7680   43.4700    6.6260 C.2   119  ASP119      0.3671
     50  OD1       35.3870   43.1790    7.7980 O.co2 119  ASP119     -0.2456
     51  OD2       36.1870   44.6080    6.2660 O.co2 119  ASP119     -0.2456
     52  N         36.8130   37.6940    3.1620 N.3   121  LYS121     -0.1231
     53  CA        37.5620   37.3470    1.9480 C.3   121  LYS121      0.1693
     54  C         39.0100   37.0820    2.2750 C.2   121  LYS121      0.2592
     55  O         39.5600   37.7000    3.1730 O.2   121  LYS121     -0.2718
     56  CB        37.6220   38.5220    0.9930 C.3   121  LYS121      0.0285
     57  CG        36.3170   39.0900    0.5490 C.3   121  LYS121      0.0035
     58  CD        36.6600   40.0980   -0.5520 C.3   121  LYS121      0.0206
     59  CE        36.6890   39.3810   -1.8780 C.3   121  LYS121      0.1093
     60  NZ        37.2480   40.2760   -2.9170 N.3   121  LYS121     -0.1314
     61  N         39.5970   36.2150    1.4840 N.am  122  ASP122     -0.1960
     62  CA        41.0480   35.8420    1.6270 C.3   122  ASP122      0.1840
     63  C         41.8780   37.1070    1.6860 C.2   122  ASP122      0.2622
     64  O         41.6500   38.0330    0.8670 O.2   122  ASP122     -0.2715
     65  CB        41.5170   35.0380    0.4050 C.3   122  ASP122      0.1450
     66  CG        41.0190   33.6160    0.3690 C.2   122  ASP122      0.3671
     67  OD1       40.6660   33.0320    1.4040 O.co2 122  ASP122     -0.2456
     68  OD2       41.1350   32.9820   -0.7360 O.co2 122  ASP122     -0.2456
     69  N         42.8260   37.1470    2.6470 N.am  123  TYR123     -0.1974
     70  CA        43.7860   38.2690    2.7660 C.3   123  TYR123      0.1639
     71  C         45.2040   37.7630    2.4900 C.2   123  TYR123      0.2290
     72  O         45.8740   38.2360    1.5960 O.2   123  TYR123     -0.2864
     73  CB        43.6560   38.9050    4.1590 C.3   123  TYR123      0.0560
     74  CG        44.6500   40.0600    4.3950 C.ar  123  TYR123     -0.0198
     75  CD1       44.4180   41.3050    3.8850 C.ar  123  TYR123     -0.0009
     76  CD2       45.7950   39.8520    5.1670 C.ar  123  TYR123     -0.0009
     77  CE1       45.3260   42.3590    4.0700 C.ar  123  TYR123      0.0417
     78  CE2       46.7210   40.8870    5.3660 C.ar  123  TYR123      0.0417
     79  CZ        46.4680   42.1220    4.8130 C.ar  123  TYR123      0.1957
     80  OH        47.3000   43.2050    4.9920 O.3   123  TYR123     -0.2866
     81  N         46.3930   38.5050   -1.3040 N.3   136  ALA136     -0.1231
     82  CA        45.2010   38.6810   -2.1570 C.3   136  ALA136      0.1694
     83  C         45.1930   40.0260   -2.9070 C.2   136  ALA136      0.2592
     84  O         44.5860   40.1300   -3.9340 O.2   136  ALA136     -0.2718
     85  CB        43.9820   38.5600   -1.3130 C.3   136  ALA136      0.0304
     86  N         45.8010   41.0700   -2.3470 N.am  137  ASP137     -0.1974
     87  CA        45.7570   42.3910   -2.9130 C.3   137  ASP137      0.1709
     88  C         46.9970   43.2300   -2.4590 C.2   137  ASP137      0.2293
     89  O         47.9120   42.6960   -1.8240 O.2   137  ASP137     -0.2864
     90  CB        44.4130   43.0400   -2.5530 C.3   137  ASP137      0.1436
     91  CG        44.2890   43.4160   -1.0650 C.2   137  ASP137      0.3671
     92  OD1       45.2610   43.3250   -0.2820 O.co2 137  ASP137     -0.2456
     93  OD2       43.2030   43.8080   -0.6180 O.co2 137  ASP137     -0.2456
@<TRIPOS>BOND
     1    84    83    2
     2    60    59    1
     3    87    90    1
     4    87    88    1
     5    87    86    1
     6    83    86   am
     7    83    82    1
     8    90    91    1
     9    88    89    2
    10    82    85    1
    11    82    81    1
    12    59    58    1
    13    91    93   ar
    14    91    92   ar
    15    68    66   ar
    16    58    57    1
    17    66    65    1
    18    66    67   ar
    19    65    62    1
    20    57    56    1
    21    64    63    2
    22    56    53    1
    23    61    62    1
    24    61    54   am
    25    72    71    2
    26     9     7   ar
    27     9    11   ar
    28    62    63    1
    29    63    69   am
    30    53    54    1
    31    53    52    1
    32    12    11    1
    33     7     6   ar
    34    54    55    2
    35    71    70    1
    36    11    10   ar
    37    69    70    1
    38    70    73    1
    39     4     3    2
    40     6     5    1
    41     6     8   ar
    42     2     5    1
    43     2     3    1
    44     2     1    1
    45    10     8   ar
    46    75    77   ar
    47    75    74   ar
    48    77    79   ar
    49    73    74    1
    50    47    46    2
    51    74    76   ar
    52    35    34    2
    53    79    80    1
    54    79    78   ar
    55    21    19   am
    56    76    78   ar
    57    46    45    1
    58    48    45    1
    59    48    49    1
    60    34    33    1
    61    34    44   am
    62    18    19    1
    63    18    17    1
    64    32    33    1
    65    39    41   ar
    66    39    37   ar
    67    19    20    2
    68    36    33    1
    69    36    37    1
    70    45    44    1
    71    51    49   ar
    72    13    14    1
    73    41    42   ar
    74    49    50   ar
    75    14    17    1
    76    14    15    1
    77    37    38   ar
    78    30    28   ar
    79    30    31   ar
    80    15    16    2
    81    42    43    1
    82    42    40   ar
    83    28    27   ar
    84    38    40   ar
    85    31    29   ar
    86    27    29   ar
    87    27    26    1
    88    26    23    1
    89    23    24    1
    90    23    22    1
    91    24    25    2
