@<TRIPOS>MOLECULE
tmp/5n6gA01.pdb
 131 125 0 0 0
SMALL
GASTEIGER

@<TRIPOS>ATOM
      1  N        122.4850   65.6570  101.7790 N.3    24  THR24      -0.1218
      2  CA       122.0370   65.7290  103.1750 C.3    24  THR24       0.1862
      3  C        121.0340   64.6270  103.4820 C.2    24  THR24       0.2287
      4  O        120.0070   64.4820  102.8040 O.2    24  THR24      -0.2866
      5  CB       121.4120   67.1090  103.4240 C.3    24  THR24       0.1770
      6  OG1      122.4370   68.1000  103.3150 O.3    24  THR24      -0.2211
      7  CG2      120.7860   67.2190  104.8110 C.3    24  THR24       0.0375
      8  N        126.4590   68.0640  102.9320 N.3    54  GLY54      -0.1225
      9  CA       126.9470   69.2970  103.5050 C.3    54  GLY54       0.1811
     10  C        127.3180   69.1000  104.9540 C.2    54  GLY54       0.2280
     11  O        126.5690   68.4710  105.7220 O.2    54  GLY54      -0.2866
     12  N        120.0030   72.5170  109.8670 N.3    64  TYR64      -0.1241
     13  CA       119.1090   71.3650  109.9800 C.3    64  TYR64       0.1605
     14  C        119.6220   70.4630  111.0860 C.2    64  TYR64       0.2264
     15  O        120.8230   70.4040  111.3600 O.2    64  TYR64      -0.2867
     16  CB       119.0240   70.5420  108.6750 C.3    64  TYR64       0.0534
     17  CG       118.7260   71.3970  107.4740 C.ar   64  TYR64      -0.0201
     18  CD1      119.7360   72.0720  106.8350 C.ar   64  TYR64      -0.0009
     19  CD2      117.4330   71.5990  107.0340 C.ar   64  TYR64      -0.0009
     20  CE1      119.4970   72.8740  105.7660 C.ar   64  TYR64       0.0417
     21  CE2      117.1810   72.4260  105.9590 C.ar   64  TYR64       0.0417
     22  CZ       118.2230   73.0500  105.3250 C.ar   64  TYR64       0.1957
     23  OH       117.9960   73.8870  104.2520 O.3    64  TYR64      -0.2866
     24  N        132.0550   68.4900  101.8040 N.3    96  GLN96      -0.1245
     25  CA       131.3490   69.6920  101.3570 C.3    96  GLN96       0.1566
     26  C        131.1920   70.6120  102.5620 C.2    96  GLN96       0.2260
     27  O        130.2460   70.4750  103.3340 O.2    96  GLN96      -0.2867
     28  CB       129.9900   69.3760  100.7330 C.3    96  GLN96       0.0367
     29  CG       129.4310   70.6580  100.1180 C.3    96  GLN96       0.0905
     30  CD       128.0080   70.5950   99.6230 C.2    96  GLN96       0.2608
     31  OE1      127.0790   70.2160  100.3420 O.2    96  GLN96      -0.2717
     32  NE2      127.8150   71.0430   98.4010 N.am   96  GLN96      -0.0878
     33  N        130.2780   73.7150  104.7760 N.3    98  TRP98      -0.1241
     34  CA       128.9840   74.3590  104.6340 C.3    98  TRP98       0.1605
     35  C        128.7790   75.4430  105.6860 C.2    98  TRP98       0.2264
     36  O        129.1740   75.2870  106.8360 O.2    98  TRP98      -0.2867
     37  CB       127.9290   73.3020  104.7980 C.3    98  TRP98       0.0550
     38  CG       126.5270   73.5990  104.3950 C.ar   98  TRP98       0.0003
     39  CD1      126.0640   74.6070  103.5970 C.ar   98  TRP98       0.0946
     40  CD2      125.3970   72.7940  104.7320 C.ar   98  TRP98       0.0152
     41  NE1      124.7010   74.4730  103.4240 N.ar   98  TRP98      -0.2442
     42  CE2      124.2660   73.3700  104.1140 C.ar   98  TRP98       0.0810
     43  CE3      125.2370   71.6380  105.5020 C.ar   98  TRP98       0.0012
     44  CZ2      123.0040   72.8150  104.2330 C.ar   98  TRP98       0.0191
     45  CZ3      123.9970   71.0910  105.6300 C.ar   98  TRP98       0.0001
     46  CH2      122.8820   71.6820  105.0110 C.ar   98  TRP98       0.0015
     47  N        114.4670   71.5560  109.7410 N.3   128  TYR128     -0.1241
     48  CA       114.1970   70.3990  110.5870 C.3   128  TYR128      0.1605
     49  C        114.9060   70.6350  111.9120 C.2   128  TYR128      0.2264
     50  O        116.1270   70.8150  111.9380 O.2   128  TYR128     -0.2867
     51  CB       114.6880   69.1040  109.9300 C.3   128  TYR128      0.0534
     52  CG       114.6340   69.0750  108.4020 C.ar  128  TYR128     -0.0201
     53  CD1      113.6450   69.7490  107.6980 C.ar  128  TYR128     -0.0009
     54  CD2      115.5770   68.3620  107.6670 C.ar  128  TYR128     -0.0009
     55  CE1      113.6020   69.7280  106.3180 C.ar  128  TYR128      0.0417
     56  CE2      115.5310   68.3270  106.2770 C.ar  128  TYR128      0.0417
     57  CZ       114.5390   69.0160  105.6150 C.ar  128  TYR128      0.1957
     58  OH       114.4750   68.9960  104.2440 O.3   128  TYR128     -0.2866
     59  N        130.7230   74.7500   99.7060 N.3   177  HIS177     -0.1241
     60  CA       129.3140   74.8950   99.3400 C.3   177  HIS177      0.1621
     61  C        129.0060   76.3580   99.0620 C.2   177  HIS177      0.2264
     62  O        128.8020   77.1530   99.9860 O.2   177  HIS177     -0.2867
     63  CB       128.4090   74.3690  100.4380 C.3   177  HIS177      0.0745
     64  CG       127.0180   74.0750   99.9820 C.ar  177  HIS177      0.0817
     65  ND1      126.4410   74.6850   98.8890 N.ar  177  HIS177     -0.2268
     66  CD2      126.0890   73.2130  100.4650 C.ar  177  HIS177      0.1154
     67  CE1      125.2270   74.1960   98.7020 C.ar  177  HIS177      0.1986
     68  NE2      124.9830   73.3120   99.6540 N.ar  177  HIS177     -0.2212
     69  N        122.8950   76.8060   96.1940 N.3   180  ASN180     -0.1240
     70  CA       121.5740   76.5220   96.7590 C.3   180  ASN180      0.1653
     71  C        121.1410   77.4840   97.8620 C.2   180  ASN180      0.2266
     72  O        120.4500   77.0950   98.8010 O.2   180  ASN180     -0.2867
     73  CB       121.5080   75.0840   97.2480 C.3   180  ASN180      0.1155
     74  CG       121.7510   74.1060   96.1270 C.2   180  ASN180      0.2627
     75  OD1      121.4490   74.3960   94.9680 O.2   180  ASN180     -0.2716
     76  ND2      122.2910   72.9560   96.4500 N.am  180  ASN180     -0.0877
     77  N        122.6060   79.2380  100.2120 N.3   182  TYR182     -0.1241
     78  CA       123.2190   79.2870  101.5330 C.3   182  TYR182      0.1605
     79  C        124.1230   80.5180  101.6390 C.2   182  TYR182      0.2264
     80  O        123.9800   81.4690  100.8710 O.2   182  TYR182     -0.2867
     81  CB       123.8830   77.9490  101.8410 C.3   182  TYR182      0.0534
     82  CG       122.8030   76.8790  101.9680 C.ar  182  TYR182     -0.0201
     83  CD1      121.8910   76.9140  103.0040 C.ar  182  TYR182     -0.0009
     84  CD2      122.6670   75.8680  101.0220 C.ar  182  TYR182     -0.0009
     85  CE1      120.8980   75.9440  103.1360 C.ar  182  TYR182      0.0417
     86  CE2      121.6560   74.9070  101.1380 C.ar  182  TYR182      0.0417
     87  CZ       120.7960   74.9480  102.2010 C.ar  182  TYR182      0.1957
     88  OH       119.8040   74.0090  102.3360 O.3   182  TYR182     -0.2866
     89  N        131.1970   74.3790   94.7010 N.3   229  ARG229     -0.1245
     90  CA       129.9300   74.1030   94.0360 C.3   229  ARG229      0.1563
     91  C        129.1690   75.4050   93.8040 C.2   229  ARG229      0.2260
     92  O        128.9950   76.1970   94.7330 O.2   229  ARG229     -0.2867
     93  CB       129.0740   73.1380   94.8610 C.3   229  ARG229      0.0307
     94  CG       127.8930   72.6160   94.0590 C.3   229  ARG229      0.0489
     95  CD       127.1150   71.5420   94.7590 C.3   229  ARG229      0.2205
     96  NE       126.6470   70.5520   93.7960 N.pl3 229  ARG229     -0.0865
     97  CZ       125.5220   69.8510   93.8910 C.cat 229  ARG229      0.5346
     98  NH1      124.6720   70.0640   94.8660 N.pl3 229  ARG229      0.1354
     99  NH2      125.2540   68.9370   92.9750 N.pl3 229  ARG229      0.1354
    100  N        116.3720   77.6260   95.0160 N.3   236  ALA236     -0.1231
    101  CA       116.4310   77.0190   96.3380 C.3   236  ALA236      0.1694
    102  C        116.5030   78.0740   97.4370 C.2   236  ALA236      0.2592
    103  O        117.2430   79.0520   97.3460 O.2   236  ALA236     -0.2718
    104  CB       117.6580   76.1090   96.4180 C.3   236  ALA236      0.0304
    105  N        115.7690   77.8180   98.5180 N.am  237  ASN237     -0.1974
    106  CA       115.8510   78.6200   99.7330 C.3   237  ASN237      0.1688
    107  C        115.5570   80.0970   99.4670 C.2   237  ASN237      0.2292
    108  O        116.1430   81.0000  100.0800 O.2   237  ASN237     -0.2864
    109  CB       117.1900   78.3920  100.4240 C.3   237  ASN237      0.1181
    110  CG       117.2910   76.9650  100.9470 C.2   237  ASN237      0.2629
    111  OD1      116.3880   76.5110  101.6620 O.2   237  ASN237     -0.2716
    112  ND2      118.2970   76.2240  100.5020 N.am  237  ASN237     -0.0877
    113  N        117.8620   73.2450   91.2150 N.3   270  THR270     -0.1218
    114  CA       118.3570   72.0510   91.8890 C.3   270  THR270      0.1862
    115  C        117.2260   71.0620   92.0800 C.2   270  THR270      0.2287
    116  O        116.2490   71.3540   92.7790 O.2   270  THR270     -0.2866
    117  CB       118.9640   72.4210   93.2430 C.3   270  THR270      0.1770
    118  OG1      119.7800   73.5910   93.1000 O.3   270  THR270     -0.2211
    119  CG2      119.8170   71.2590   93.7390 C.3   270  THR270      0.0375
    120  N        115.3280   61.8760  104.1660 N.3   355  TYR355     -0.1241
    121  CA       115.7690   62.7060  105.2860 C.3   355  TYR355      0.1605
    122  C        115.3930   62.0700  106.6080 C.2   355  TYR355      0.2264
    123  O        114.2160   61.7820  106.8460 O.2   355  TYR355     -0.2867
    124  CB       115.1500   64.1000  105.2160 C.3   355  TYR355      0.0534
    125  CG       115.3230   64.7460  103.8730 C.ar  355  TYR355     -0.0201
    126  CD1      116.5700   65.1670  103.4560 C.ar  355  TYR355     -0.0009
    127  CD2      114.2500   64.9190  103.0210 C.ar  355  TYR355     -0.0009
    128  CE1      116.7480   65.7470  102.2260 C.ar  355  TYR355      0.0417
    129  CE2      114.4150   65.4960  101.7900 C.ar  355  TYR355      0.0417
    130  CZ       115.6640   65.9080  101.3980 C.ar  355  TYR355      0.1957
    131  OH       115.8470   66.4940  100.1730 O.3   355  TYR355     -0.2866
@<TRIPOS>BOND
     1   113   114    1
     2   114   115    1
     3   114   117    1
     4   115   116    2
     5    99    97    1
     6   118   117    1
     7   117   119    1
     8    96    97    2
     9    96    95    1
    10    91    90    1
    11    91    92    2
    12    97    98    1
    13    90    89    1
    14    90    93    1
    15    94    95    1
    16    94    93    1
    17    75    74    2
    18   100   101    1
    19    74    76   am
    20    74    73    1
    21    69    70    1
    22   101   104    1
    23   101   102    1
    24    70    73    1
    25    70    71    1
    26   103   102    2
    27   102   105   am
    28    71    72    2
    29    32    30   am
    30   105   106    1
    31    67    65   ar
    32    67    68   ar
    33    65    64   ar
    34    61    60    1
    35    61    62    2
    36    60    59    1
    37    60    63    1
    38   107   106    1
    39   107   108    2
    40    30    29    1
    41    30    31    2
    42    68    66   ar
    43   106   109    1
    44    64    63    1
    45    64    66   ar
    46    29    28    1
    47   131   130    1
    48    77    78    1
    49   109   110    1
    50   112   110   am
    51    28    25    1
    52    80    79    2
    53   110   111    2
    54    84    86   ar
    55    84    82   ar
    56    86    87   ar
    57    25    24    1
    58    25    26    1
    59   130   129   ar
    60   130   128   ar
    61    78    79    1
    62    78    81    1
    63     1     2    1
    64   129   127   ar
    65    81    82    1
    66    82    83   ar
    67    87    88    1
    68    87    85   ar
    69   128   126   ar
    70    26    27    2
    71     4     3    2
    72     8     9    1
    73    83    85   ar
    74   127   125   ar
    75     2     5    1
    76     2     3    1
    77     6     5    1
    78     5     7    1
    79    41    39   ar
    80    41    42   ar
    81   126   125   ar
    82     9    10    1
    83    39    38   ar
    84   125   124    1
    85    42    44   ar
    86    42    40   ar
    87   120   121    1
    88    44    46   ar
    89    58    57    1
    90    23    22    1
    91    38    40   ar
    92    38    37    1
    93    34    33    1
    94    34    37    1
    95    34    35    1
    96    40    43   ar
    97    10    11    2
    98    46    45   ar
    99   124   121    1
   100   121   122    1
   101    22    20   ar
   102    22    21   ar
   103    43    45   ar
   104    57    56   ar
   105    57    55   ar
   106    35    36    2
   107    20    18   ar
   108    21    19   ar
   109    56    54   ar
   110    55    53   ar
   111   122   123    2
   112    18    17   ar
   113    19    17   ar
   114    17    16    1
   115    54    52   ar
   116    53    52   ar
   117    52    51    1
   118    16    13    1
   119    47    48    1
   120    12    13    1
   121    51    48    1
   122    13    14    1
   123    48    49    1
   124    14    15    2
   125    49    50    2
