@<TRIPOS>MOLECULE
tmp/5n6hA07.pdb
 98 93 0 0 0
SMALL
GASTEIGER

@<TRIPOS>ATOM
      1  N         -9.7050  -12.7750  -12.9870 N.3    47  ARG47      -0.1231
      2  CA        -8.3730  -13.3130  -13.1860 C.3    47  ARG47       0.1679
      3  C         -7.8780  -13.9040  -11.8670 C.2    47  ARG47       0.2434
      4  O         -8.3060  -13.4770  -10.7910 O.2    47  ARG47      -0.2733
      5  CB        -7.4120  -12.2310  -13.6720 C.3    47  ARG47       0.0321
      6  CG        -7.7280  -11.6800  -15.0540 C.3    47  ARG47       0.0489
      7  CD        -6.5330  -10.9360  -15.6310 C.3    47  ARG47       0.2205
      8  NE        -6.0890   -9.8360  -14.7790 N.pl3  47  ARG47      -0.0865
      9  CZ        -6.5740   -8.6000  -14.8370 C.cat  47  ARG47       0.5346
     10  NH1       -7.5310   -8.3030  -15.7050 N.pl3  47  ARG47       0.1354
     11  NH2       -6.1060   -7.6620  -14.0250 N.pl3  47  ARG47       0.1354
     12  N         -6.9940  -14.9040  -11.9200 N.am   48  PRO48      -0.2718
     13  CA        -6.5020  -15.4970  -10.6650 C.3    48  PRO48       0.1535
     14  C         -5.8850  -14.4800   -9.7240 C.2    48  PRO48       0.2598
     15  O         -5.9760  -14.6440   -8.5020 O.2    48  PRO48      -0.2715
     16  CB        -5.4710  -16.5280  -11.1430 C.3    48  PRO48       0.0310
     17  CG        -5.8700  -16.8410  -12.5460 C.3    48  PRO48       0.0237
     18  CD        -6.4380  -15.5740  -13.1080 C.3    48  PRO48       0.0939
     19  N         -5.2680  -13.4270  -10.2580 N.am   49  LEU49      -0.1964
     20  CA        -4.6980  -12.3940   -9.4050 C.3    49  LEU49       0.1728
     21  C         -5.7590  -11.4380   -8.8800 C.2    49  LEU49       0.2616
     22  O         -5.6130  -10.9080   -7.7730 O.2    49  LEU49      -0.2715
     23  CB        -3.6300  -11.6180  -10.1670 C.3    49  LEU49       0.0311
     24  CG        -2.2660  -11.5450   -9.4910 C.3    49  LEU49       0.0022
     25  CD1       -1.6690  -12.9340   -9.3180 C.3    49  LEU49       0.0001
     26  CD2       -1.3540  -10.6620  -10.3100 C.3    49  LEU49       0.0001
     27  N         -6.8250  -11.2020   -9.6510 N.am   50  GLN50      -0.1977
     28  CA        -7.9280  -10.3930   -9.1430 C.3    50  GLN50       0.1601
     29  C         -8.6830  -11.1380   -8.0520 C.2    50  GLN50       0.2287
     30  O         -9.0600  -10.5490   -7.0320 O.2    50  GLN50      -0.2864
     31  CB        -8.8870  -10.0210  -10.2740 C.3    50  GLN50       0.0394
     32  CG        -8.2740   -9.2760  -11.4480 C.3    50  GLN50       0.0908
     33  CD        -9.2950   -8.9860  -12.5380 C.2    50  GLN50       0.2608
     34  OE1       -9.7120   -9.8850  -13.2700 O.2    50  GLN50      -0.2717
     35  NE2       -9.7060   -7.7270  -12.6460 N.am   50  GLN50      -0.0878
     36  N         -7.4860  -13.5230   -6.0740 N.3    52  ALA52      -0.1231
     37  CA        -6.6370  -13.5420   -4.8870 C.3    52  ALA52       0.1694
     38  C         -6.7100  -12.2200   -4.1350 C.2    52  ALA52       0.2591
     39  O         -6.6930  -12.1990   -2.8990 O.2    52  ALA52      -0.2718
     40  CB        -5.1940  -13.8570   -5.2760 C.3    52  ALA52       0.0304
     41  N         -6.7860  -11.1060   -4.8650 N.am   53  ALA53      -0.1980
     42  CA        -6.9150   -9.8070   -4.2160 C.3    53  ALA53       0.1597
     43  C         -8.2540   -9.6770   -3.5020 C.2    53  ALA53       0.2287
     44  O         -8.3340   -9.0750   -2.4250 O.2    53  ALA53      -0.2864
     45  CB        -6.7510   -8.6910   -5.2440 C.3    53  ALA53       0.0319
     46  N         -8.0930  -11.8380   -0.3940 N.3    56  PHE56      -0.1241
     47  CA        -7.3130  -11.1520    0.6300 C.3    56  PHE56       0.1605
     48  C         -8.1610  -10.1220    1.3660 C.2    56  PHE56       0.2264
     49  O         -8.1450  -10.0560    2.6010 O.2    56  PHE56      -0.2867
     50  CB        -6.0850  -10.4980   -0.0060 C.3    56  PHE56       0.0534
     51  CG        -5.2630   -9.6950    0.9550 C.ar   56  PHE56      -0.0203
     52  CD1       -4.2640  -10.2960    1.7000 C.ar   56  PHE56      -0.0042
     53  CD2       -5.4790   -8.3340    1.1040 C.ar   56  PHE56      -0.0042
     54  CE1       -3.5060   -9.5580    2.5890 C.ar   56  PHE56      -0.0003
     55  CE2       -4.7250   -7.5930    1.9880 C.ar   56  PHE56      -0.0003
     56  CZ        -3.7370   -8.2050    2.7310 C.ar   56  PHE56      -0.0000
     57  N         -3.6360  -13.6600    3.8770 N.3    98  LEU98      -0.1245
     58  CA        -2.9190  -14.2750    2.7640 C.3    98  LEU98       0.1561
     59  C         -3.5240  -15.6210    2.3960 C.2    98  LEU98       0.2260
     60  O         -3.7080  -15.9270    1.2110 O.2    98  LEU98      -0.2867
     61  CB        -1.4430  -14.4460    3.1160 C.3    98  LEU98       0.0270
     62  CG        -0.5980  -13.1980    3.3600 C.3    98  LEU98       0.0019
     63  CD1        0.8030  -13.6030    3.7830 C.3    98  LEU98       0.0001
     64  CD2       -0.5500  -12.3330    2.1100 C.3    98  LEU98       0.0001
     65  N         -6.5560  -15.1460    0.3690 N.3   101  GLY101     -0.1210
     66  CA        -6.1830  -14.8090   -0.9940 C.3   101  GLY101      0.1956
     67  C         -5.6700  -16.0150   -1.7570 C.2   101  GLY101      0.2611
     68  O         -6.0100  -16.2130   -2.9260 O.2   101  GLY101     -0.2717
     69  N         -4.8290  -16.8260   -1.1090 N.am  102  LEU102     -0.1979
     70  CA        -4.3410  -18.0610   -1.7160 C.3   102  LEU102      0.1596
     71  C         -5.4960  -18.9560   -2.1490 C.2   102  LEU102      0.2287
     72  O         -5.4930  -19.5050   -3.2560 O.2   102  LEU102     -0.2864
     73  CB        -3.4230  -18.7940   -0.7350 C.3   102  LEU102      0.0297
     74  CG        -2.9410  -20.1930   -1.1260 C.3   102  LEU102      0.0022
     75  CD1       -2.0260  -20.1450   -2.3430 C.3   102  LEU102      0.0001
     76  CD2       -2.2320  -20.8440    0.0470 C.3   102  LEU102      0.0001
     77  N         -7.2190  -17.2320   -5.1270 N.3   105  GLY105     -0.1210
     78  CA        -6.3380  -17.2280   -6.2840 C.3   105  GLY105      0.1956
     79  C         -6.2200  -18.5920   -6.9360 C.2   105  GLY105      0.2611
     80  O         -6.2950  -18.7190   -8.1610 O.2   105  GLY105     -0.2717
     81  N         -6.0350  -19.6340   -6.1240 N.am  106  VAL106     -0.1979
     82  CA        -5.9120  -20.9860   -6.6650 C.3   106  VAL106      0.1595
     83  C         -7.2450  -21.4640   -7.2290 C.2   106  VAL106      0.2287
     84  O         -7.2940  -22.0920   -8.2940 O.2   106  VAL106     -0.2864
     85  CB        -5.3700  -21.9420   -5.5880 C.3   106  VAL106      0.0276
     86  CG1       -5.4430  -23.3880   -6.0620 C.3   106  VAL106      0.0022
     87  CG2       -3.9430  -21.5680   -5.2340 C.3   106  VAL106      0.0022
     88  N         -7.7320  -20.0330  -10.6540 N.3   109  ARG109     -0.1245
     89  CA        -6.8080  -20.5300  -11.6700 C.3   109  ARG109      0.1563
     90  C         -7.2860  -21.8550  -12.2540 C.2   109  ARG109      0.2260
     91  O         -7.3800  -22.0080  -13.4770 O.2   109  ARG109     -0.2867
     92  CB        -5.4070  -20.6770  -11.0730 C.3   109  ARG109      0.0307
     93  CG        -4.3810  -21.3350  -11.9880 C.3   109  ARG109      0.0489
     94  CD        -3.7340  -20.3390  -12.9430 C.3   109  ARG109      0.2205
     95  NE        -2.2760  -20.4460  -12.9310 N.pl3 109  ARG109     -0.0865
     96  CZ        -1.5750  -21.2640  -13.7110 C.cat 109  ARG109      0.5346
     97  NH1       -2.1940  -22.0570  -14.5760 N.pl3 109  ARG109      0.1354
     98  NH2       -0.2510  -21.2910  -13.6260 N.pl3 109  ARG109      0.1354
@<TRIPOS>BOND
     1    10     9    1
     2     7     6    1
     3     7     8    1
     4     6     5    1
     5     9     8    2
     6     9    11    1
     7    97    96    1
     8    96    98    1
     9    96    95    2
    10     5     2    1
    11    91    90    2
    12    34    33    2
    13     2     1    1
    14     2     3    1
    15    18    17    1
    16    18    12    1
    17    94    95    1
    18    94    93    1
    19    35    33   am
    20    17    16    1
    21    33    32    1
    22    90    89    1
    23    93    92    1
    24    12     3   am
    25    12    13    1
    26     3     4    2
    27    89    92    1
    28    89    88    1
    29    32    31    1
    30    16    13    1
    31    13    14    1
    32    26    24    1
    33    31    28    1
    34    19    14   am
    35    19    20    1
    36    23    24    1
    37    23    20    1
    38    14    15    2
    39    27    28    1
    40    27    21   am
    41    24    25    1
    42    20    21    1
    43    28    29    1
    44    21    22    2
    45    84    83    2
    46    80    79    2
    47    29    30    2
    48    83    82    1
    49    79    78    1
    50    79    81   am
    51    82    81    1
    52    82    85    1
    53    78    77    1
    54    36    37    1
    55    86    85    1
    56    85    87    1
    57    40    37    1
    58    45    42    1
    59    37    38    1
    60    41    42    1
    61    41    38   am
    62    42    43    1
    63    38    39    2
    64    43    44    2
    65    72    71    2
    66    68    67    2
    67    75    74    1
    68    71    70    1
    69    67    69   am
    70    67    66    1
    71    70    69    1
    72    70    73    1
    73    74    73    1
    74    74    76    1
    75    66    65    1
    76    46    47    1
    77    50    47    1
    78    50    51    1
    79    47    48    1
    80    51    53   ar
    81    51    52   ar
    82    53    55   ar
    83    60    59    2
    84    48    49    2
    85    52    54   ar
    86    55    56   ar
    87    64    62    1
    88    59    58    1
    89    54    56   ar
    90    58    61    1
    91    58    57    1
    92    61    62    1
    93    62    63    1
