@<TRIPOS>MOLECULE
tmp/5n6hB02.pdb
 110 102 0 0 0
SMALL
GASTEIGER

@<TRIPOS>ATOM
      1  N        -22.3700   12.1250   19.7360 N.3     6  ILE6       -0.1245
      2  CA       -23.6930   12.3270   19.1520 C.3     6  ILE6        0.1561
      3  C        -24.3750   13.5460   19.7560 C.2     6  ILE6        0.2260
      4  O        -25.2310   14.1710   19.1170 O.2     6  ILE6       -0.2867
      5  CB       -24.5330   11.0470   19.3290 C.3     6  ILE6        0.0252
      6  CG1      -23.7800    9.8530   18.7460 C.3     6  ILE6        0.0019
      7  CG2      -25.8930   11.1870   18.6630 C.3     6  ILE6        0.0019
      8  CD1      -24.4430    8.5330   19.0110 C.3     6  ILE6        0.0001
      9  N        -23.2310   15.8860   14.3410 N.3    12  ARG12      -0.1245
     10  CA       -24.4720   15.5910   13.6320 C.3    12  ARG12       0.1563
     11  C        -24.4730   16.1830   12.2270 C.2    12  ARG12       0.2260
     12  O        -25.0030   15.5680   11.2940 O.2    12  ARG12      -0.2867
     13  CB       -25.6680   16.1000   14.4360 C.3    12  ARG12       0.0307
     14  CG       -25.9030   15.3290   15.7240 C.3    12  ARG12       0.0489
     15  CD       -27.2900   15.5800   16.2910 C.3    12  ARG12       0.2205
     16  NE       -27.4950   14.8660   17.5470 N.pl3  12  ARG12      -0.0865
     17  CZ       -28.6850   14.6470   18.0950 C.cat  12  ARG12       0.5346
     18  NH1      -29.7840   15.0810   17.4940 N.pl3  12  ARG12       0.1354
     19  NH2      -28.7770   13.9880   19.2420 N.pl3  12  ARG12       0.1354
     20  N        -22.2990   13.8890   10.1120 N.3    15  LEU15      -0.1245
     21  CA       -22.9830   12.6500    9.7590 C.3    15  LEU15       0.1561
     22  C        -24.1210   12.8880    8.7760 C.2    15  LEU15       0.2260
     23  O        -24.3950   12.0250    7.9340 O.2    15  LEU15      -0.2867
     24  CB       -23.5080   11.9610   11.0190 C.3    15  LEU15       0.0270
     25  CG       -22.4480   11.4040   11.9710 C.3    15  LEU15       0.0019
     26  CD1      -23.0490   11.1420   13.3420 C.3    15  LEU15       0.0001
     27  CD2      -21.8240   10.1370   11.4000 C.3    15  LEU15       0.0001
     28  N        -24.8520   10.4510    5.6390 N.3    19  PHE19      -0.1241
     29  CA       -26.1080    9.7390    5.4280 C.3    19  PHE19       0.1605
     30  C        -26.8650   10.3000    4.2340 C.2    19  PHE19       0.2264
     31  O        -27.6150    9.5690    3.5770 O.2    19  PHE19      -0.2867
     32  CB       -26.9720    9.7960    6.6870 C.3    19  PHE19       0.0534
     33  CG       -26.5940    8.7780    7.7210 C.ar   19  PHE19      -0.0203
     34  CD1      -27.0580    7.4760    7.6300 C.ar   19  PHE19      -0.0042
     35  CD2      -25.7610    9.1150    8.7740 C.ar   19  PHE19      -0.0042
     36  CE1      -26.7060    6.5310    8.5750 C.ar   19  PHE19      -0.0003
     37  CE2      -25.4050    8.1740    9.7220 C.ar   19  PHE19      -0.0003
     38  CZ       -25.8790    6.8800    9.6220 C.ar   19  PHE19      -0.0000
     39  N        -31.3320    3.4960    4.8390 N.3    38  ILE38      -0.1245
     40  CA       -30.2650    3.9850    5.7090 C.3    38  ILE38       0.1561
     41  C        -30.1320    5.4980    5.5930 C.2    38  ILE38       0.2260
     42  O        -29.9420    6.1980    6.5960 O.2    38  ILE38      -0.2867
     43  CB       -28.9400    3.2700    5.3850 C.3    38  ILE38       0.0252
     44  CG1      -28.9790    1.8250    5.8850 C.3    38  ILE38       0.0019
     45  CG2      -27.7640    4.0170    5.9930 C.3    38  ILE38       0.0019
     46  CD1      -28.4720    0.8190    4.8800 C.3    38  ILE38       0.0001
     47  N        -33.0230    7.0130    7.3370 N.3    41  MET41      -0.1230
     48  CA       -32.8960    6.7470    8.7660 C.3    41  MET41       0.1702
     49  C        -31.9550    7.7470    9.4240 C.2    41  MET41       0.2592
     50  O        -32.1880    8.1710   10.5620 O.2    41  MET41      -0.2718
     51  CB       -32.4130    5.3150    8.9960 C.3    41  MET41       0.0401
     52  CG       -33.5340    4.2920    9.1010 C.3    41  MET41       0.0596
     53  SD       -32.9230    2.6050    9.2860 S.3    41  MET41      -0.1393
     54  CE       -32.3850    2.6310   10.9960 C.3    41  MET41       0.0692
     55  N        -30.8840    8.1290    8.7250 N.am   42  GLY42      -0.1957
     56  CA       -29.9950    9.1530    9.2510 C.3    42  GLY42       0.1869
     57  C        -30.6960   10.4840    9.4320 C.2    42  GLY42       0.2309
     58  O        -30.6220   11.1010   10.4970 O.2    42  GLY42      -0.2863
     59  N        -33.1580   10.1080   12.3930 N.3    45  ALA45      -0.1231
     60  CA       -32.5890    9.9480   13.7280 C.3    45  ALA45       0.1694
     61  C        -31.7320   11.1380   14.1420 C.2    45  ALA45       0.2591
     62  O        -31.7380   11.5240   15.3160 O.2    45  ALA45      -0.2718
     63  CB       -31.7690    8.6610   13.8020 C.3    45  ALA45       0.0304
     64  N        -30.9840   11.7260   13.2060 N.am   46  LEU46      -0.1980
     65  CA       -30.0890   12.8190   13.5750 C.3    46  LEU46       0.1596
     66  C        -30.8530   14.0780   13.9620 C.2    46  LEU46       0.2287
     67  O        -30.3320   14.9040   14.7180 O.2    46  LEU46      -0.2864
     68  CB       -29.1130   13.1100   12.4350 C.3    46  LEU46       0.0297
     69  CG       -28.0100   12.0670   12.2490 C.3    46  LEU46       0.0022
     70  CD1      -27.4000   12.1560   10.8590 C.3    46  LEU46       0.0001
     71  CD2      -26.9360   12.2110   13.3210 C.3    46  LEU46       0.0001
     72  N        -33.4400   14.0390   15.8230 N.3    48  PHE48      -0.1227
     73  CA       -34.0710   13.8000   17.1140 C.3    48  PHE48       0.1736
     74  C        -33.4510   14.6840   18.1900 C.2    48  PHE48       0.2595
     75  O        -32.2290   14.8570   18.2460 O.2    48  PHE48      -0.2718
     76  CB       -33.9210   12.3330   17.5160 C.3    48  PHE48       0.0547
     77  CG       -34.8380   11.3970   16.7820 C.ar   48  PHE48      -0.0202
     78  CD1      -35.9650   11.8680   16.1280 C.ar   48  PHE48      -0.0042
     79  CD2      -34.5720   10.0380   16.7550 C.ar   48  PHE48      -0.0042
     80  CE1      -36.8040   10.9980   15.4540 C.ar   48  PHE48      -0.0003
     81  CE2      -35.4040    9.1660   16.0860 C.ar   48  PHE48      -0.0003
     82  CZ       -36.5210    9.6460   15.4350 C.ar   48  PHE48      -0.0000
     83  N        -34.3050   15.2340   19.0530 N.am   49  ASN49      -0.1974
     84  CA       -33.8870   16.0330   20.2060 C.3    49  ASN49       0.1688
     85  C        -32.9390   17.1580   19.7810 C.2    49  ASN49       0.2292
     86  O        -31.7580   17.1920   20.1240 O.2    49  ASN49      -0.2864
     87  CB       -33.2510   15.1430   21.2780 C.3    49  ASN49       0.1181
     88  CG       -34.1630   14.0100   21.7040 C.2    49  ASN49       0.2629
     89  OD1      -35.2970   14.2370   22.1260 O.2    49  ASN49      -0.2716
     90  ND2      -33.6720   12.7800   21.5940 N.am   49  ASN49      -0.0877
     91  N        -35.6010    4.2200   12.7320 N.3   183  ALA183     -0.1245
     92  CA       -34.7830    5.1500   13.5040 C.3   183  ALA183      0.1562
     93  C        -35.2910    5.2610   14.9370 C.2   183  ALA183      0.2260
     94  O        -34.4990    5.3600   15.8810 O.2   183  ALA183     -0.2867
     95  CB       -34.7610    6.5220   12.8300 C.3   183  ALA183      0.0290
     96  N        -34.3430    1.9250   16.8390 N.3   186  LEU186     -0.1231
     97  CA       -32.9320    1.9210   17.2090 C.3   186  LEU186      0.1693
     98  C        -32.6590    2.8880   18.3580 C.2   186  LEU186      0.2591
     99  O        -32.1150    2.5010   19.3990 O.2   186  LEU186     -0.2718
    100  CB       -32.0740    2.2710   15.9930 C.3   186  LEU186      0.0284
    101  CG       -31.5410    1.1360   15.1160 C.3   186  LEU186      0.0019
    102  CD1      -32.6580    0.3410   14.4450 C.3   186  LEU186      0.0001
    103  CD2      -30.5930    1.7160   14.0830 C.3   186  LEU186      0.0001
    104  N        -33.0300    4.1580   18.1760 N.am  187  VAL187     -0.1980
    105  CA       -32.7200    5.1930   19.1640 C.3   187  VAL187      0.1595
    106  C        -33.3400    4.8620   20.5200 C.2   187  VAL187      0.2287
    107  O        -32.6710    4.9330   21.5590 O.2   187  VAL187     -0.2864
    108  CB       -33.1760    6.5720   18.6530 C.3   187  VAL187      0.0276
    109  CG1      -33.2320    7.5800   19.7920 C.3   187  VAL187      0.0022
    110  CG2      -32.2550    7.0640   17.5480 C.3   187  VAL187      0.0022
@<TRIPOS>BOND
     1    31    30    2
     2    30    29    1
     3    39    40    1
     4    46    44    1
     5    43    40    1
     6    43    44    1
     7    43    45    1
     8    29    28    1
     9    29    32    1
    10    41    40    1
    11    41    42    2
    12    32    33    1
    13    47    48    1
    14    34    33   ar
    15    34    36   ar
    16    33    35   ar
    17    23    22    2
    18    36    38   ar
    19    55    56    1
    20    55    49   am
    21    48    51    1
    22    48    49    1
    23    35    37   ar
    24    22    21    1
    25    51    52    1
    26    52    53    1
    27    56    57    1
    28    53    54    1
    29    49    50    2
    30    57    58    2
    31    38    37   ar
    32    21    20    1
    33    21    24    1
    34    70    69    1
    35    24    25    1
    36    12    11    2
    37    27    25    1
    38    25    26    1
    39    11    10    1
    40    69    68    1
    41    69    71    1
    42    59    60    1
    43    68    65    1
    44    91    92    1
    45    95    92    1
    46    64    65    1
    47    64    61   am
    48    92    93    1
    49    65    66    1
    50    10     9    1
    51    10    13    1
    52    60    63    1
    53    60    61    1
    54    66    67    2
    55   103   101    1
    56    61    62    2
    57    13    14    1
    58   102   101    1
    59    93    94    2
    60   101   100    1
    61    82    80   ar
    62    82    81   ar
    63    80    78   ar
    64    14    15    1
    65    72    73    1
    66   100    97    1
    67    81    79   ar
    68    78    77   ar
    69    15    16    1
    70    79    77   ar
    71    77    76    1
    72    96    97    1
    73    73    76    1
    74    73    74    1
    75    97    98    1
    76    18    17    1
    77    16    17    2
    78   110   108    1
    79    17    19    1
    80   104    98   am
    81   104   105    1
    82    74    75    2
    83    74    83   am
    84    98    99    2
    85   108   105    1
    86   108   109    1
    87     7     5    1
    88     6     8    1
    89     6     5    1
    90    83    84    1
    91     4     3    2
    92     2     5    1
    93     2     1    1
    94     2     3    1
    95   105   106    1
    96    85    86    2
    97    85    84    1
    98    84    87    1
    99   106   107    2
   100    87    88    1
   101    90    88   am
   102    88    89    2
