@<TRIPOS>MOLECULE
tmp/5n6hA04.pdb
 168 156 0 0 0
SMALL
GASTEIGER

@<TRIPOS>ATOM
      1  N        -21.0180  -25.4970  -10.6400 N.3   116  TRP116     -0.1241
      2  CA       -21.2410  -26.1170   -9.3400 C.3   116  TRP116      0.1605
      3  C        -20.0540  -26.9610   -8.8950 C.2   116  TRP116      0.2264
      4  O        -19.8790  -27.1680   -7.6900 O.2   116  TRP116     -0.2867
      5  CB       -22.5270  -26.9490   -9.3500 C.3   116  TRP116      0.0550
      6  CG       -22.4530  -28.2550  -10.0780 C.ar  116  TRP116      0.0003
      7  CD1      -22.8760  -28.5080  -11.3490 C.ar  116  TRP116      0.0946
      8  CD2      -21.9600  -29.4990   -9.5630 C.ar  116  TRP116      0.0152
      9  NE1      -22.6630  -29.8290  -11.6640 N.ar  116  TRP116     -0.2442
     10  CE2      -22.1010  -30.4580  -10.5850 C.ar  116  TRP116      0.0810
     11  CE3      -21.4020  -29.8920   -8.3420 C.ar  116  TRP116      0.0012
     12  CZ2      -21.7070  -31.7850  -10.4220 C.ar  116  TRP116      0.0191
     13  CZ3      -21.0120  -31.2100   -8.1830 C.ar  116  TRP116      0.0001
     14  CH2      -21.1670  -32.1400   -9.2170 C.ar  116  TRP116      0.0015
     15  N        -19.1660  -26.2980   -5.0740 N.3   120  ALA120     -0.1231
     16  CA       -19.5460  -27.4060   -4.2070 C.3   120  ALA120      0.1694
     17  C        -18.4280  -28.4130   -3.9790 C.2   120  ALA120      0.2591
     18  O        -18.3700  -29.0260   -2.9070 O.2   120  ALA120     -0.2718
     19  CB       -20.7660  -28.1290   -4.7810 C.3   120  ALA120      0.0304
     20  N        -17.5440  -28.6100   -4.9530 N.am  121  ILE121     -0.1980
     21  CA       -16.5100  -29.6410   -4.8880 C.3   121  ILE121      0.1595
     22  C        -15.1350  -29.0340   -4.6330 C.2   121  ILE121      0.2287
     23  O        -14.4910  -29.3360   -3.6280 O.2   121  ILE121     -0.2864
     24  CB       -16.5130  -30.5110   -6.1640 C.3   121  ILE121      0.0276
     25  CG1      -17.9240  -31.0240   -6.4480 C.3   121  ILE121      0.0022
     26  CG2      -15.5510  -31.6730   -6.0130 C.3   121  ILE121      0.0022
     27  CD1      -18.5070  -31.8400   -5.3140 C.3   121  ILE121      0.0001
     28  N        -23.3480  -32.7010   13.1880 N.3   158  LEU158     -0.1245
     29  CA       -22.2390  -33.1750   12.3690 C.3   158  LEU158      0.1561
     30  C        -20.9390  -33.2280   13.1640 C.2   158  LEU158      0.2260
     31  O        -20.0560  -34.0410   12.8630 O.2   158  LEU158     -0.2867
     32  CB       -22.0800  -32.2580   11.1560 C.3   158  LEU158      0.0270
     33  CG       -21.3810  -32.7780    9.9030 C.3   158  LEU158      0.0019
     34  CD1      -22.2990  -33.6940    9.1260 C.3   158  LEU158      0.0001
     35  CD2      -20.9340  -31.6090    9.0420 C.3   158  LEU158      0.0001
     36  N        -17.7720  -36.0150   12.3750 N.3   162  MET162     -0.1245
     37  CA       -16.5850  -35.6490   11.6100 C.3   162  MET162      0.1570
     38  C        -15.8040  -34.4560   12.1530 C.2   162  MET162      0.2261
     39  O        -14.7710  -34.1020   11.5710 O.2   162  MET162     -0.2867
     40  CB       -16.9730  -35.3990   10.1530 C.3   162  MET162      0.0387
     41  CG       -17.4570  -36.6490    9.4400 C.3   162  MET162      0.0595
     42  SD       -17.7340  -36.4230    7.6760 S.3   162  MET162     -0.1393
     43  CE       -18.7280  -37.8720    7.3320 C.3   162  MET162      0.0692
     44  N        -15.6230  -30.4130    9.5200 N.3   166  ALA166     -0.1245
     45  CA       -16.6880  -30.8410    8.6240 C.3   166  ALA166      0.1562
     46  C        -17.7680  -29.7780    8.5070 C.2   166  ALA166      0.2260
     47  O        -18.3940  -29.6470    7.4480 O.2   166  ALA166     -0.2867
     48  CB       -17.2940  -32.1510    9.1100 C.3   166  ALA166      0.0290
     49  N        -16.4100  -27.3340    6.1810 N.3   169  PHE169     -0.1227
     50  CA       -16.5770  -27.8990    4.8480 C.3   169  PHE169      0.1736
     51  C        -17.9910  -27.6720    4.3230 C.2   169  PHE169      0.2595
     52  O        -18.1870  -27.0730    3.2590 O.2   169  PHE169     -0.2718
     53  CB       -16.2370  -29.3910    4.9070 C.3   169  PHE169      0.0547
     54  CG       -15.9500  -30.0140    3.5750 C.ar  169  PHE169     -0.0202
     55  CD1      -16.9570  -30.6120    2.8390 C.ar  169  PHE169     -0.0042
     56  CD2      -14.6590  -30.0380    3.0790 C.ar  169  PHE169     -0.0042
     57  CE1      -16.6840  -31.2010    1.6180 C.ar  169  PHE169     -0.0003
     58  CE2      -14.3790  -30.6220    1.8600 C.ar  169  PHE169     -0.0003
     59  CZ       -15.3920  -31.2060    1.1290 C.ar  169  PHE169     -0.0000
     60  N        -18.9930  -28.1530    5.0640 N.am  170  LEU170     -0.1980
     61  CA       -20.3780  -28.0630    4.6050 C.3   170  LEU170      0.1596
     62  C        -20.8320  -26.6140    4.4330 C.2   170  LEU170      0.2287
     63  O        -21.6120  -26.3090    3.5220 O.2   170  LEU170     -0.2864
     64  CB       -21.2970  -28.8040    5.5760 C.3   170  LEU170      0.0297
     65  CG       -22.7550  -28.9640    5.1470 C.3   170  LEU170      0.0022
     66  CD1      -22.8340  -29.7000    3.8200 C.3   170  LEU170      0.0001
     67  CD2      -23.5410  -29.6970    6.2170 C.3   170  LEU170      0.0001
     68  N        -19.5150  -25.3310    1.3170 N.3   173  MET173     -0.1245
     69  CA       -20.2710  -26.0080    0.2710 C.3   173  MET173      0.1570
     70  C        -21.6390  -25.3630    0.0740 C.2   173  MET173      0.2261
     71  O        -22.0040  -24.9800   -1.0440 O.2   173  MET173     -0.2867
     72  CB       -20.4120  -27.4810    0.6460 C.3   173  MET173      0.0387
     73  CG       -20.8940  -28.3880   -0.4490 C.3   173  MET173      0.0595
     74  SD       -20.6510  -30.0920    0.0760 S.3   173  MET173     -0.1393
     75  CE       -20.6710  -30.9260   -1.5000 C.3   173  MET173      0.0692
     76  N        -23.1800  -23.0670   -3.2500 N.3   177  LEU177     -0.1245
     77  CA       -24.3630  -23.3190   -4.0670 C.3   177  LEU177      0.1561
     78  C        -25.3180  -22.1310   -4.0510 C.2   177  LEU177      0.2260
     79  O        -25.9300  -21.8040   -5.0750 O.2   177  LEU177     -0.2867
     80  CB       -25.0690  -24.5830   -3.5850 C.3   177  LEU177      0.0270
     81  CG       -24.2400  -25.8570   -3.7300 C.3   177  LEU177      0.0019
     82  CD1      -24.8600  -26.9740   -2.9170 C.3   177  LEU177      0.0001
     83  CD2      -24.1100  -26.2520   -5.1960 C.3   177  LEU177      0.0001
     84  N        -23.9680  -19.5130   -6.2760 N.3   180  LEU180     -0.1245
     85  CA       -24.2010  -19.9120   -7.6600 C.3   180  LEU180      0.1561
     86  C        -25.6610  -19.7160   -8.0530 C.2   180  LEU180      0.2260
     87  O        -25.9520  -19.2030   -9.1390 O.2   180  LEU180     -0.2867
     88  CB       -23.7770  -21.3650   -7.8580 C.3   180  LEU180      0.0270
     89  CG       -23.9940  -21.9720   -9.2430 C.3   180  LEU180      0.0019
     90  CD1      -22.9370  -21.4810  -10.2160 C.3   180  LEU180      0.0001
     91  CD2      -23.9680  -23.4840   -9.1510 C.3   180  LEU180      0.0001
     92  N        -26.2820  -17.0570  -10.9910 N.3   184  LYS184     -0.1245
     93  CA       -26.7980  -17.6410  -12.2210 C.3   184  LYS184      0.1561
     94  C        -28.3200  -17.6910  -12.2690 C.2   184  LYS184      0.2260
     95  O        -28.8720  -18.1900  -13.2550 O.2   184  LYS184     -0.2867
     96  CB       -26.2300  -19.0500  -12.4250 C.3   184  LYS184      0.0271
     97  CG       -24.8800  -19.0650  -13.1230 C.3   184  LYS184      0.0035
     98  CD       -24.4970  -20.4690  -13.5540 C.3   184  LYS184      0.0206
     99  CE       -23.4120  -20.4340  -14.6230 C.3   184  LYS184      0.1093
    100  NZ       -22.9100  -21.7910  -14.9840 N.3   184  LYS184     -0.1314
    101  N        -30.5690  -19.5280  -10.8960 N.3   186  ASN186     -0.1240
    102  CA       -30.9790  -20.9080  -11.1190 C.3   186  ASN186      0.1653
    103  C        -31.3860  -21.5070   -9.7800 C.2   186  ASN186      0.2266
    104  O        -30.6130  -21.4600   -8.8190 O.2   186  ASN186     -0.2867
    105  CB       -29.8420  -21.7140  -11.7580 C.3   186  ASN186      0.1155
    106  CG       -30.2550  -23.1250  -12.1280 C.2   186  ASN186      0.2627
    107  OD1      -31.3930  -23.5410  -11.9020 O.2   186  ASN186     -0.2716
    108  ND2      -29.3200  -23.8750  -12.6960 N.am  186  ASN186     -0.0877
    109  N        -31.9970  -24.6810   -8.9980 N.3   188  ARG188     -0.1231
    110  CA       -31.4880  -26.0180   -8.6880 C.3   188  ARG188      0.1679
    111  C        -30.3720  -26.0120   -7.6480 C.2   188  ARG188      0.2434
    112  O        -30.4360  -26.8230   -6.7070 O.2   188  ARG188     -0.2733
    113  CB       -31.0670  -26.7140   -9.9870 C.3   188  ARG188      0.0321
    114  CG       -32.2540  -27.0950  -10.8630 C.3   188  ARG188      0.0489
    115  CD       -31.8760  -27.2820  -12.3220 C.3   188  ARG188      0.2205
    116  NE       -33.0730  -27.4180  -13.1470 N.pl3 188  ARG188     -0.0865
    117  CZ       -33.7310  -26.3860  -13.6660 C.cat 188  ARG188      0.5346
    118  NH1      -33.3010  -25.1500  -13.4430 N.pl3 188  ARG188      0.1354
    119  NH2      -34.8140  -26.5850  -14.4050 N.pl3 188  ARG188      0.1354
    120  N        -29.3310  -25.1730   -7.7460 N.am  189  PRO189     -0.2729
    121  CA       -28.3470  -25.1330   -6.6490 C.3   189  PRO189      0.1401
    122  C        -28.9570  -24.7130   -5.3240 C.2   189  PRO189      0.2269
    123  O        -28.4900  -25.1570   -4.2680 O.2   189  PRO189     -0.2865
    124  CB       -27.2980  -24.1240   -7.1430 C.3   189  PRO189      0.0296
    125  CG       -27.5080  -24.0300   -8.6110 C.3   189  PRO189      0.0237
    126  CD       -28.9640  -24.2490   -8.8340 C.3   189  PRO189      0.0939
    127  N        -30.4970  -27.9160   -3.7340 N.3   192  VAL192     -0.1245
    128  CA       -29.4290  -28.7620   -3.2060 C.3   192  VAL192      0.1561
    129  C        -28.8210  -28.1330   -1.9580 C.2   192  VAL192      0.2260
    130  O        -28.5660  -28.8160   -0.9580 O.2   192  VAL192     -0.2867
    131  CB       -28.3620  -29.0180   -4.2840 C.3   192  VAL192      0.0252
    132  CG1      -27.1660  -29.7250   -3.6760 C.3   192  VAL192      0.0019
    133  CG2      -28.9430  -29.8330   -5.4170 C.3   192  VAL192      0.0019
    134  N        -28.6430  -30.0600    1.4420 N.3   196  LEU196     -0.1245
    135  CA       -27.3620  -30.3240    2.0950 C.3   196  LEU196      0.1561
    136  C        -27.3070  -29.7010    3.4850 C.2   196  LEU196      0.2260
    137  O        -26.6990  -30.2650    4.4030 O.2   196  LEU196     -0.2867
    138  CB       -26.2070  -29.8100    1.2350 C.3   196  LEU196      0.0270
    139  CG       -25.9010  -30.5530   -0.0650 C.3   196  LEU196      0.0019
    140  CD1      -24.7330  -29.8920   -0.7670 C.3   196  LEU196      0.0001
    141  CD2      -25.5990  -32.0140    0.2160 C.3   196  LEU196      0.0001
    142  N        -12.8330  -36.7270    7.1140 N.3   486  LEU486     -0.1245
    143  CA       -12.9350  -35.4710    6.3800 C.3   486  LEU486      0.1561
    144  C        -11.7940  -35.3190    5.3850 C.2   486  LEU486      0.2260
    145  O        -12.0100  -34.8910    4.2450 O.2   486  LEU486     -0.2867
    146  CB       -12.9460  -34.2960    7.3510 C.3   486  LEU486      0.0270
    147  CG       -12.8510  -32.9330    6.6710 C.3   486  LEU486      0.0019
    148  CD1      -14.2350  -32.3960    6.3400 C.3   486  LEU486      0.0001
    149  CD2      -12.0750  -31.9640    7.5370 C.3   486  LEU486      0.0001
    150  N        -12.6440  -37.3840    2.5330 N.3   489  LEU489     -0.1245
    151  CA       -13.6100  -36.6630    1.7130 C.3   489  LEU489      0.1561
    152  C        -12.9370  -35.5360    0.9400 C.2   489  LEU489      0.2260
    153  O        -13.2140  -35.3330   -0.2480 O.2   489  LEU489     -0.2867
    154  CB       -14.7310  -36.1160    2.5950 C.3   489  LEU489      0.0270
    155  CG       -15.8430  -35.3400    1.8930 C.3   489  LEU489      0.0019
    156  CD1      -16.6870  -36.2830    1.0550 C.3   489  LEU489      0.0001
    157  CD2      -16.6960  -34.6130    2.9180 C.3   489  LEU489      0.0001
    158  N        -12.7990  -35.1260   -3.1420 N.3   493  PHE493     -0.1241
    159  CA       -13.2800  -33.9180   -3.8030 C.3   493  PHE493      0.1605
    160  C        -12.1640  -33.2440   -4.5880 C.2   493  PHE493      0.2264
    161  O        -12.3780  -32.7840   -5.7160 O.2   493  PHE493     -0.2867
    162  CB       -13.8680  -32.9540   -2.7740 C.3   493  PHE493      0.0534
    163  CG       -15.3220  -33.1860   -2.4830 C.ar  493  PHE493     -0.0203
    164  CD1      -15.8710  -34.4550   -2.5640 C.ar  493  PHE493     -0.0042
    165  CD2      -16.1390  -32.1310   -2.1150 C.ar  493  PHE493     -0.0042
    166  CE1      -17.2110  -34.6620   -2.2920 C.ar  493  PHE493     -0.0003
    167  CE2      -17.4750  -32.3330   -1.8410 C.ar  493  PHE493     -0.0003
    168  CZ       -18.0130  -33.5990   -1.9300 C.ar  493  PHE493     -0.0000
@<TRIPOS>BOND
     1   100    99    1
     2    99    98    1
     3   119   117    1
     4   117   118    1
     5   117   116    2
     6    98    97    1
     7    95    94    2
     8   116   115    1
     9    97    96    1
    10   108   106   am
    11    96    93    1
    12   115   114    1
    13    94    93    1
    14    93    92    1
    15   106   107    2
    16   106   105    1
    17   105   102    1
    18     9     7   ar
    19     9    10   ar
    20     7     6   ar
    21   102   101    1
    22   102   103    1
    23   114   113    1
    24     1     2    1
    25    10    12   ar
    26    10     8   ar
    27    12    14   ar
    28    90    89    1
    29     6     8   ar
    30     6     5    1
    31   113   110    1
    32   103   104    2
    33     8    11   ar
    34     5     2    1
    35     2     3    1
    36    89    91    1
    37    89    88    1
    38    14    13   ar
    39    87    86    2
    40   109   110    1
    41     3     4    2
    42   126   125    1
    43   126   120    1
    44   110   111    1
    45   125   124    1
    46    11    13   ar
    47    86    85    1
    48    88    85    1
    49   120   111   am
    50   120   121    1
    51    85    84    1
    52   111   112    2
    53   124   121    1
    54   121   122    1
    55    25    24    1
    56    25    27    1
    57    24    26    1
    58    24    21    1
    59   161   160    2
    60   133   131    1
    61   122   123    2
    62    83    81    1
    63    79    78    2
    64    15    16    1
    65    20    21    1
    66    20    17   am
    67    21    22    1
    68    19    16    1
    69    22    23    2
    70   160   159    1
    71   131   132    1
    72   131   128    1
    73    16    17    1
    74    77    78    1
    75    77    80    1
    76    77    76    1
    77    17    18    2
    78   159   158    1
    79   159   162    1
    80   127   128    1
    81    81    80    1
    82    81    82    1
    83   128   129    1
    84   162   163    1
    85   164   163   ar
    86   164   166   ar
    87   163   165   ar
    88   166   168   ar
    89   165   167   ar
    90   129   130    2
    91   168   167   ar
    92    75    74    1
    93    71    70    2
    94   140   139    1
    95    73    74    1
    96    73    72    1
    97   153   152    2
    98   139   141    1
    99   139   138    1
   100    70    69    1
   101    69    72    1
   102    69    68    1
   103   152   151    1
   104   156   155    1
   105    59    57   ar
   106    59    58   ar
   107   138   135    1
   108   134   135    1
   109    57    55   ar
   110   151   150    1
   111   151   154    1
   112    58    56   ar
   113   155   154    1
   114   155   157    1
   115   135   136    1
   116    55    54   ar
   117    56    54   ar
   118    52    51    2
   119   136   137    2
   120    63    62    2
   121    54    53    1
   122    66    65    1
   123   145   144    2
   124    51    50    1
   125    51    60   am
   126    62    61    1
   127    61    60    1
   128    61    64    1
   129    50    53    1
   130    50    49    1
   131    65    64    1
   132    65    67    1
   133   144   143    1
   134   148   147    1
   135   143   142    1
   136   143   146    1
   137   147   146    1
   138   147   149    1
   139    43    42    1
   140    47    46    2
   141    42    41    1
   142    46    45    1
   143    45    48    1
   144    45    44    1
   145    35    33    1
   146    34    33    1
   147    41    40    1
   148    33    32    1
   149    40    37    1
   150    32    29    1
   151    39    38    2
   152    37    38    1
   153    37    36    1
   154    29    30    1
   155    29    28    1
   156    31    30    2
