@<TRIPOS>MOLECULE
tmp/5n6lA06.pdb
 98 93 0 0 0
SMALL
GASTEIGER

@<TRIPOS>ATOM
      1  N        -10.4310  -13.1040  -13.0590 N.3    50  ARG50      -0.1231
      2  CA        -9.1270  -13.6780  -13.3230 C.3    50  ARG50       0.1679
      3  C         -8.5770  -14.1750  -11.9920 C.2    50  ARG50       0.2434
      4  O         -8.9180  -13.6210  -10.9450 O.2    50  ARG50      -0.2733
      5  CB        -8.1840  -12.6440  -13.9310 C.3    50  ARG50       0.0321
      6  CG        -8.7680  -11.9020  -15.1190 C.3    50  ARG50       0.0489
      7  CD        -7.7030  -11.1430  -15.9040 C.3    50  ARG50       0.2205
      8  NE        -6.9960  -10.1480  -15.1000 N.pl3  50  ARG50      -0.0865
      9  CZ        -7.2480   -8.8430  -15.1310 C.cat  50  ARG50       0.5346
     10  NH1       -8.1950   -8.3620  -15.9260 N.pl3  50  ARG50       0.1354
     11  NH2       -6.5480   -8.0150  -14.3680 N.pl3  50  ARG50       0.1354
     12  N         -7.7540  -15.2310  -11.9900 N.am   51  PRO51      -0.2718
     13  CA        -7.3110  -15.7970  -10.7020 C.3    51  PRO51       0.1535
     14  C         -6.7480  -14.7440   -9.7670 C.2    51  PRO51       0.2598
     15  O         -6.9790  -14.7800   -8.5490 O.2    51  PRO51      -0.2715
     16  CB        -6.2290  -16.7970  -11.1150 C.3    51  PRO51       0.0310
     17  CG        -6.5890  -17.2060  -12.4850 C.3    51  PRO51       0.0237
     18  CD        -7.2590  -16.0150  -13.1350 C.3    51  PRO51       0.0939
     19  N         -6.0060  -13.7990  -10.3380 N.am   52  LEU52      -0.1964
     20  CA        -5.4160  -12.7210   -9.5610 C.3    52  LEU52       0.1728
     21  C         -6.4970  -11.8280   -8.9650 C.2    52  LEU52       0.2616
     22  O         -6.4150  -11.4290   -7.7970 O.2    52  LEU52      -0.2715
     23  CB        -4.4550  -11.9310  -10.4430 C.3    52  LEU52       0.0311
     24  CG        -3.3650  -11.1280   -9.7480 C.3    52  LEU52       0.0022
     25  CD1       -2.6880  -12.0440   -8.7530 C.3    52  LEU52       0.0001
     26  CD2       -2.3420  -10.6480  -10.7680 C.3    52  LEU52       0.0001
     27  N         -7.5060  -11.4810   -9.7650 N.am   53  GLN53      -0.1977
     28  CA        -8.5810  -10.6240   -9.2780 C.3    53  GLN53       0.1601
     29  C         -9.3620  -11.3150   -8.1700 C.2    53  GLN53       0.2287
     30  O         -9.6830  -10.6980   -7.1490 O.2    53  GLN53      -0.2864
     31  CB        -9.5230  -10.2720  -10.4270 C.3    53  GLN53       0.0394
     32  CG        -8.9250   -9.4340  -11.5400 C.3    53  GLN53       0.0908
     33  CD        -9.9520   -9.1010  -12.6060 C.2    53  GLN53       0.2608
     34  OE1      -10.5020   -9.9920  -13.2530 O.2    53  GLN53      -0.2717
     35  NE2      -10.2240   -7.8150  -12.7860 N.am   53  GLN53      -0.0878
     36  N         -8.2160  -13.7010   -6.1650 N.3    55  ALA55      -0.1231
     37  CA        -7.3330  -13.6950   -5.0040 C.3    55  ALA55       0.1694
     38  C         -7.3820  -12.3550   -4.2820 C.2    55  ALA55       0.2591
     39  O         -7.3600  -12.3040   -3.0470 O.2    55  ALA55      -0.2718
     40  CB        -5.9080  -14.0230   -5.4420 C.3    55  ALA55       0.0304
     41  N         -7.4320  -11.2570   -5.0380 N.am   56  ALA56      -0.1980
     42  CA        -7.6270   -9.9440   -4.4360 C.3    56  ALA56       0.1597
     43  C         -8.9760   -9.8640   -3.7290 C.2    56  ALA56       0.2287
     44  O         -9.0720   -9.3540   -2.6060 O.2    56  ALA56      -0.2864
     45  CB        -7.5010   -8.8560   -5.5040 C.3    56  ALA56       0.0319
     46  N         -8.7550  -11.9430   -0.5790 N.3    59  PHE59      -0.1241
     47  CA        -7.9760  -11.2510    0.4420 C.3    59  PHE59       0.1605
     48  C         -8.8110  -10.2050    1.1690 C.2    59  PHE59       0.2264
     49  O         -8.7570  -10.1090    2.4010 O.2    59  PHE59      -0.2867
     50  CB        -6.7440  -10.6080   -0.1900 C.3    59  PHE59       0.0534
     51  CG        -5.9140   -9.8160    0.7760 C.ar   59  PHE59      -0.0203
     52  CD1       -6.0820   -8.4490    0.8900 C.ar   59  PHE59      -0.0042
     53  CD2       -4.9690  -10.4380    1.5730 C.ar   59  PHE59      -0.0042
     54  CE1       -5.3230   -7.7170    1.7770 C.ar   59  PHE59      -0.0003
     55  CE2       -4.2050   -9.7100    2.4640 C.ar   59  PHE59      -0.0003
     56  CZ        -4.3820   -8.3480    2.5660 C.ar   59  PHE59      -0.0000
     57  N         -4.3880  -13.8740    3.6470 N.3   101  LEU101     -0.1245
     58  CA        -3.6580  -14.5110    2.5570 C.3   101  LEU101      0.1561
     59  C         -4.2630  -15.8620    2.2040 C.2   101  LEU101      0.2260
     60  O         -4.4710  -16.1780    1.0270 O.2   101  LEU101     -0.2867
     61  CB        -2.1880  -14.6670    2.9400 C.3   101  LEU101      0.0270
     62  CG        -1.3990  -13.3790    3.1760 C.3   101  LEU101      0.0019
     63  CD1        0.0470  -13.6950    3.5220 C.3   101  LEU101      0.0001
     64  CD2       -1.4710  -12.4840    1.9480 C.3   101  LEU101      0.0001
     65  N         -7.2830  -15.2990    0.4140 N.3   104  GLY104     -0.1210
     66  CA        -6.9150  -14.9380   -0.9440 C.3   104  GLY104      0.1956
     67  C         -6.3800  -16.1230   -1.7260 C.2   104  GLY104      0.2611
     68  O         -6.6270  -16.2500   -2.9290 O.2   104  GLY104     -0.2717
     69  N         -5.6350  -17.0030   -1.0530 N.am  105  LEU105     -0.1979
     70  CA        -5.1540  -18.2260   -1.6900 C.3   105  LEU105      0.1596
     71  C         -6.3130  -19.1040   -2.1470 C.2   105  LEU105      0.2287
     72  O         -6.3220  -19.5900   -3.2840 O.2   105  LEU105     -0.2864
     73  CB        -4.2450  -18.9960   -0.7320 C.3   105  LEU105      0.0297
     74  CG        -3.7900  -20.3860   -1.1790 C.3   105  LEU105      0.0022
     75  CD1       -2.8970  -20.2910   -2.4020 C.3   105  LEU105      0.0001
     76  CD2       -3.0800  -21.1120   -0.0470 C.3   105  LEU105      0.0001
     77  N         -7.8600  -17.5530   -5.1970 N.3   108  GLY108     -0.1210
     78  CA        -6.9810  -17.5780   -6.3540 C.3   108  GLY108      0.1956
     79  C         -6.8860  -18.9540   -6.9850 C.2   108  GLY108      0.2611
     80  O         -6.9220  -19.0910   -8.2100 O.2   108  GLY108     -0.2717
     81  N         -6.7440  -19.9910   -6.1590 N.am  109  VAL109     -0.1979
     82  CA        -6.6920  -21.3520   -6.6810 C.3   109  VAL109      0.1595
     83  C         -8.0560  -21.7760   -7.2120 C.2   109  VAL109      0.2287
     84  O         -8.1530  -22.4440   -8.2480 O.2   109  VAL109     -0.2864
     85  CB        -6.1780  -22.3140   -5.5940 C.3   109  VAL109      0.0276
     86  CG1       -6.1500  -23.7440   -6.1090 C.3   109  VAL109      0.0022
     87  CG2       -4.7970  -21.8890   -5.1310 C.3   109  VAL109      0.0022
     88  N         -8.5810  -20.2480  -10.7840 N.3   112  ARG112     -0.1245
     89  CA        -7.7090  -20.7260  -11.8540 C.3   112  ARG112      0.1563
     90  C         -8.1450  -22.1010  -12.3550 C.2   112  ARG112      0.2260
     91  O         -8.2610  -22.3220  -13.5680 O.2   112  ARG112     -0.2867
     92  CB        -6.2550  -20.7460  -11.3690 C.3   112  ARG112      0.0307
     93  CG        -5.3010  -21.6400  -12.1650 C.3   112  ARG112      0.0489
     94  CD        -4.9750  -21.0950  -13.5480 C.3   112  ARG112      0.2205
     95  NE        -3.6030  -21.4140  -13.9480 N.pl3 112  ARG112     -0.0865
     96  CZ        -3.2490  -22.4750  -14.6690 C.cat 112  ARG112      0.5346
     97  NH1       -4.1650  -23.3370  -15.0880 N.pl3 112  ARG112      0.1354
     98  NH2       -1.9730  -22.6720  -14.9740 N.pl3 112  ARG112      0.1354
@<TRIPOS>BOND
     1    10     9    1
     2     7     6    1
     3     7     8    1
     4     9     8    2
     5     9    11    1
     6     6     5    1
     7    97    96    1
     8    98    96    1
     9    96    95    2
    10    95    94    1
    11     5     2    1
    12    91    90    2
    13    94    93    1
    14     2     1    1
    15     2     3    1
    16    34    33    2
    17    18    17    1
    18    18    12    1
    19    35    33   am
    20    33    32    1
    21    17    16    1
    22    90    89    1
    23    93    92    1
    24     3    12   am
    25     3     4    2
    26    12    13    1
    27    89    92    1
    28    89    88    1
    29    32    31    1
    30    16    13    1
    31    26    24    1
    32    13    14    1
    33    23    24    1
    34    23    20    1
    35    31    28    1
    36    19    14   am
    37    19    20    1
    38    14    15    2
    39    27    28    1
    40    27    21   am
    41    24    25    1
    42    20    21    1
    43    28    29    1
    44    21    22    2
    45    84    83    2
    46    80    79    2
    47    29    30    2
    48    83    82    1
    49    79    78    1
    50    79    81   am
    51    82    81    1
    52    82    85    1
    53    78    77    1
    54    36    37    1
    55    86    85    1
    56    85    87    1
    57    45    42    1
    58    40    37    1
    59    41    42    1
    60    41    38   am
    61    37    38    1
    62    42    43    1
    63    38    39    2
    64    43    44    2
    65    72    71    2
    66    68    67    2
    67    75    74    1
    68    71    70    1
    69    67    69   am
    70    67    66    1
    71    70    69    1
    72    70    73    1
    73    74    73    1
    74    74    76    1
    75    66    65    1
    76    46    47    1
    77    50    47    1
    78    50    51    1
    79    47    48    1
    80    51    52   ar
    81    51    53   ar
    82    52    54   ar
    83    60    59    2
    84    48    49    2
    85    53    55   ar
    86    54    56   ar
    87    64    62    1
    88    59    58    1
    89    55    56   ar
    90    58    61    1
    91    58    57    1
    92    61    62    1
    93    62    63    1
