@<TRIPOS>MOLECULE
tmp/5n6lA08.pdb
 106 100 0 0 0
SMALL
GASTEIGER

@<TRIPOS>ATOM
      1  N        -21.9320   -4.3660  -10.8980 N.3     5  ILE5       -0.1231
      2  CA       -20.9610   -5.0690  -10.0690 C.3     5  ILE5        0.1692
      3  C        -19.9120   -5.7790  -10.9220 C.2     5  ILE5        0.2591
      4  O        -18.9970   -6.4190  -10.3830 O.2     5  ILE5       -0.2718
      5  CB       -21.7410   -6.0320   -9.1360 C.3     5  ILE5        0.0266
      6  CG1      -22.7960   -5.2580   -8.3390 C.3     5  ILE5        0.0019
      7  CG2      -20.8380   -6.7310   -8.1260 C.3     5  ILE5        0.0020
      8  CD1      -23.6550   -6.1220   -7.4300 C.3     5  ILE5        0.0001
      9  N        -19.9950   -5.6530  -12.2480 N.am    6  GLU6       -0.1979
     10  CA       -19.0460   -6.2970  -13.1480 C.3     6  GLU6        0.1602
     11  C        -17.6330   -5.7360  -13.0340 C.2     6  GLU6        0.2287
     12  O        -16.6970   -6.3620  -13.5430 O.2     6  GLU6       -0.2864
     13  CB       -19.5390   -6.1810  -14.5950 C.3     6  GLU6        0.0415
     14  CG       -20.6750   -7.1380  -14.9310 C.3     6  GLU6        0.1163
     15  CD       -20.2430   -8.5910  -14.8600 C.2     6  GLU6        0.3649
     16  OE1      -19.3750   -8.9930  -15.6640 O.co2   6  GLU6       -0.2457
     17  OE2      -20.7600   -9.3260  -13.9910 O.co2   6  GLU6       -0.2457
     18  N        -16.3790   -4.8670   -6.1720 N.3    11  ARG11      -0.1245
     19  CA       -16.3290   -6.1970   -5.5660 C.3    11  ARG11       0.1563
     20  C        -15.3900   -6.2550   -4.3640 C.2    11  ARG11       0.2260
     21  O        -15.7130   -6.8930   -3.3550 O.2    11  ARG11      -0.2867
     22  CB       -15.9220   -7.2220   -6.6180 C.3    11  ARG11       0.0307
     23  CG       -16.9360   -7.3750   -7.7280 C.3    11  ARG11       0.0489
     24  CD       -16.6930   -8.6250   -8.5370 C.3    11  ARG11       0.2205
     25  NE       -17.8080   -8.8890   -9.4360 N.pl3  11  ARG11      -0.0865
     26  CZ       -17.8980   -9.9530  -10.2240 C.cat  11  ARG11       0.5346
     27  NH1      -16.9390  -10.8690  -10.2190 N.pl3  11  ARG11       0.1354
     28  NH2      -18.9540  -10.1020  -11.0120 N.pl3  11  ARG11       0.1354
     29  N        -17.3800   -4.8020   -1.6150 N.3    14  LEU14      -0.1245
     30  CA       -18.3970   -5.7540   -1.1860 C.3    14  LEU14       0.1561
     31  C        -17.7830   -6.9400   -0.4510 C.2    14  LEU14       0.2260
     32  O        -18.3520   -7.4310    0.5310 O.2    14  LEU14      -0.2867
     33  CB       -19.1960   -6.2210   -2.4000 C.3    14  LEU14       0.0270
     34  CG       -20.1200   -5.1880   -3.0410 C.3    14  LEU14       0.0019
     35  CD1      -20.5690   -5.6440   -4.4090 C.3    14  LEU14       0.0001
     36  CD2      -21.3190   -4.9980   -2.1360 C.3    14  LEU14       0.0001
     37  N        -18.9740   -8.2780    3.3100 N.3    18  PHE18      -0.1241
     38  CA       -19.4250   -9.6400    3.5890 C.3    18  PHE18       0.1605
     39  C        -18.4630  -10.3690    4.5170 C.2    18  PHE18       0.2264
     40  O        -18.8900  -11.1950    5.3310 O.2    18  PHE18      -0.2867
     41  CB       -19.6180  -10.4140    2.2860 C.3    18  PHE18       0.0534
     42  CG       -20.9000  -10.0880    1.5690 C.ar   18  PHE18      -0.0203
     43  CD1      -22.0980  -10.6440    1.9870 C.ar   18  PHE18      -0.0042
     44  CD2      -20.9140   -9.2060    0.5040 C.ar   18  PHE18      -0.0042
     45  CE1      -23.2830  -10.3480    1.3400 C.ar   18  PHE18      -0.0003
     46  CE2      -22.0970   -8.9000   -0.1450 C.ar   18  PHE18      -0.0003
     47  CZ       -23.2840   -9.4720    0.2750 C.ar   18  PHE18      -0.0000
     48  N        -21.7140  -16.8300    1.0200 N.3    40  MET40      -0.1230
     49  CA       -22.3100  -16.5130   -0.2780 C.3    40  MET40       0.1702
     50  C        -21.6150  -15.3250   -0.9230 C.2    40  MET40       0.2592
     51  O        -21.3260  -15.3360   -2.1240 O.2    40  MET40      -0.2718
     52  CB       -23.8040  -16.2260   -0.1330 C.3    40  MET40       0.0401
     53  CG       -24.6810  -17.4480   -0.0090 C.3    40  MET40       0.0596
     54  SD       -26.3980  -16.9580    0.2120 S.3    40  MET40      -0.1393
     55  CE       -26.5570  -15.7300   -1.0810 C.3    40  MET40       0.0692
     56  N        -21.3540  -14.2790   -0.1380 N.am   41  GLY41      -0.1957
     57  CA       -20.6220  -13.1400   -0.6650 C.3    41  GLY41       0.1869
     58  C        -19.2650  -13.5330   -1.2150 C.2    41  GLY41       0.2309
     59  O        -18.8930  -13.1420   -2.3230 O.2    41  GLY41      -0.2863
     60  N        -19.9240  -15.7360   -4.4090 N.3    44  ALA44      -0.1231
     61  CA       -20.5010  -15.0720   -5.5740 C.3    44  ALA44       0.1694
     62  C        -19.5830  -13.9990   -6.1500 C.2    44  ALA44       0.2591
     63  O        -19.5520  -13.7990   -7.3680 O.2    44  ALA44      -0.2718
     64  CB       -21.8530  -14.4660   -5.2090 C.3    44  ALA44       0.0304
     65  N        -18.8450  -13.2860   -5.2960 N.am   45  LEU45      -0.1980
     66  CA       -17.9820  -12.2080   -5.7690 C.3    45  LEU45       0.1596
     67  C        -16.7680  -12.7090   -6.5420 C.2    45  LEU45       0.2287
     68  O        -16.1910  -11.9460   -7.3250 O.2    45  LEU45      -0.2864
     69  CB       -17.5310  -11.3600   -4.5820 C.3    45  LEU45       0.0297
     70  CG       -18.5960  -10.4770   -3.9370 C.3    45  LEU45       0.0022
     71  CD1      -17.9960   -9.7220   -2.7910 C.3    45  LEU45       0.0001
     72  CD2      -19.1160   -9.4970   -4.9630 C.3    45  LEU45       0.0001
     73  N        -16.9350  -15.0440   -8.7900 N.3    47  PHE47      -0.1227
     74  CA       -17.3950  -15.5160  -10.0890 C.3    47  PHE47       0.1736
     75  C        -16.8770  -14.6210  -11.2060 C.2    47  PHE47       0.2595
     76  O        -16.8290  -13.3960  -11.0690 O.2    47  PHE47      -0.2718
     77  CB       -18.9230  -15.5520  -10.1380 C.3    47  PHE47       0.0547
     78  CG       -19.5350  -16.6490   -9.3160 C.ar   47  PHE47      -0.0202
     79  CD1      -18.8010  -17.7690   -8.9780 C.ar   47  PHE47      -0.0042
     80  CD2      -20.8520  -16.5690   -8.8950 C.ar   47  PHE47      -0.0042
     81  CE1      -19.3660  -18.7830   -8.2260 C.ar   47  PHE47      -0.0003
     82  CE2      -21.4190  -17.5820   -8.1420 C.ar   47  PHE47      -0.0003
     83  CZ       -20.6720  -18.6890   -7.8100 C.ar   47  PHE47      -0.0000
     84  N        -16.4880  -15.2450  -12.3170 N.am   48  ASN48      -0.1974
     85  CA       -16.1040  -14.5310  -13.5400 C.3    48  ASN48       0.1688
     86  C        -14.9690  -13.5420  -13.2730 C.2    48  ASN48       0.2292
     87  O        -15.0510  -12.3550  -13.6040 O.2    48  ASN48      -0.2864
     88  CB       -17.3150  -13.8160  -14.1420 C.3    48  ASN48       0.1181
     89  CG       -18.5320  -14.7160  -14.2520 C.2    48  ASN48       0.2629
     90  OD1      -19.5990  -14.3920  -13.7330 O.2    48  ASN48      -0.2716
     91  ND2      -18.3760  -15.8540  -14.9220 N.am   48  ASN48      -0.0877
     92  N        -28.6230  -17.7230   -6.8190 N.3   185  LEU185     -0.1231
     93  CA       -28.9500  -16.3060   -6.9520 C.3   185  LEU185      0.1693
     94  C        -28.3520  -15.7160   -8.2230 C.2   185  LEU185      0.2591
     95  O        -29.0030  -14.9170   -8.9050 O.2   185  LEU185     -0.2718
     96  CB       -28.4780  -15.5340   -5.7210 C.3   185  LEU185      0.0284
     97  CG       -28.7150  -14.0220   -5.7320 C.3   185  LEU185      0.0019
     98  CD1      -30.1950  -13.6970   -5.8300 C.3   185  LEU185      0.0001
     99  CD2      -28.1020  -13.3860   -4.4930 C.3   185  LEU185      0.0001
    100  N        -27.1150  -16.0910   -8.5570 N.am  186  VAL186     -0.1980
    101  CA       -26.4600  -15.5150   -9.7280 C.3   186  VAL186      0.1595
    102  C        -27.0700  -16.0620  -11.0150 C.2   186  VAL186      0.2287
    103  O        -27.3560  -15.3050  -11.9500 O.2   186  VAL186     -0.2864
    104  CB       -24.9410  -15.7600   -9.6690 C.3   186  VAL186      0.0276
    105  CG1      -24.2840  -15.3190  -10.9650 C.3   186  VAL186      0.0022
    106  CG2      -24.3370  -15.0220   -8.4840 C.3   186  VAL186      0.0022
@<TRIPOS>BOND
     1    16    15   ar
     2    14    15    1
     3    14    13    1
     4    91    89   am
     5    15    17   ar
     6    13    10    1
     7    89    88    1
     8    89    90    2
     9    88    85    1
    10    87    86    2
    11    12    11    2
    12    85    86    1
    13    85    84    1
    14    10    11    1
    15    10     9    1
    16    84    75   am
    17     9     3   am
    18   103   102    2
    19    75    76    2
    20    75    74    1
    21   102   101    1
    22    28    26    1
    23   105   104    1
    24     3     4    2
    25     3     2    1
    26     1     2    1
    27    26    27    1
    28    26    25    2
    29    77    74    1
    30    77    78    1
    31    74    73    1
    32     2     5    1
    33   101   104    1
    34   101   100    1
    35   104   106    1
    36    25    24    1
    37    78    79   ar
    38    78    80   ar
    39     5     6    1
    40     5     7    1
    41    79    81   ar
    42    95    94    2
    43    80    82   ar
    44   100    94   am
    45    24    23    1
    46     6     8    1
    47    81    83   ar
    48    94    93    1
    49    82    83   ar
    50    23    22    1
    51    63    62    2
    52    68    67    2
    53    93    92    1
    54    93    96    1
    55    22    19    1
    56    67    66    1
    57    18    19    1
    58    62    61    1
    59    62    65   am
    60    98    97    1
    61    66    65    1
    62    66    69    1
    63    97    96    1
    64    97    99    1
    65    61    64    1
    66    61    60    1
    67    19    20    1
    68    72    70    1
    69    69    70    1
    70    35    34    1
    71    20    21    2
    72    70    71    1
    73    34    33    1
    74    34    36    1
    75    33    30    1
    76    59    58    2
    77    51    50    2
    78    29    30    1
    79    58    57    1
    80    30    31    1
    81    55    54    1
    82    50    49    1
    83    50    56   am
    84    57    56    1
    85    31    32    2
    86    49    52    1
    87    49    48    1
    88    46    47   ar
    89    46    44   ar
    90    52    53    1
    91    53    54    1
    92    47    45   ar
    93    44    42   ar
    94    45    43   ar
    95    42    43   ar
    96    42    41    1
    97    41    38    1
    98    37    38    1
    99    38    39    1
   100    39    40    2
