@<TRIPOS>MOLECULE
tmp/5n6lB03.pdb
 143 140 0 0 0
SMALL
GASTEIGER

@<TRIPOS>ATOM
      1  N        -44.3010   18.8920   16.0880 N.3   114  TRP114     -0.1241
      2  CA       -44.1820   17.5590   16.6840 C.3   114  TRP114      0.1605
      3  C        -42.7880   17.3790   17.2660 C.2   114  TRP114      0.2264
      4  O        -41.9850   16.5790   16.7750 O.2   114  TRP114     -0.2867
      5  CB       -44.5110   16.4730   15.6560 C.3   114  TRP114      0.0550
      6  CG       -45.9020   16.6120   15.1170 C.ar  114  TRP114      0.0003
      7  CD1      -47.0570   16.1600   15.6930 C.ar  114  TRP114      0.0946
      8  CD2      -46.2900   17.2720   13.9080 C.ar  114  TRP114      0.0152
      9  NE1      -48.1370   16.4920   14.9100 N.ar  114  TRP114     -0.2442
     10  CE2      -47.6930   17.1740   13.8090 C.ar  114  TRP114      0.0810
     11  CE3      -45.5870   17.9280   12.8940 C.ar  114  TRP114      0.0012
     12  CZ2      -48.4040   17.7110   12.7380 C.ar  114  TRP114      0.0191
     13  CZ3      -46.2950   18.4610   11.8340 C.ar  114  TRP114      0.0001
     14  CH2      -47.6880   18.3490   11.7640 C.ar  114  TRP114      0.0015
     15  N        -47.0810   12.8370    5.8120 N.3   128  ALA128     -0.1231
     16  CA       -47.9900   13.8670    5.3190 C.3   128  ALA128      0.1694
     17  C        -47.2400   15.1570    5.0150 C.2   128  ALA128      0.2591
     18  O        -47.4350   15.7660    3.9570 O.2   128  ALA128     -0.2718
     19  CB       -49.1030   14.1180    6.3370 C.3   128  ALA128      0.0304
     20  N        -46.3830   15.5950    5.9410 N.am  129  LEU129     -0.1980
     21  CA       -45.5680   16.7820    5.7020 C.3   129  LEU129      0.1596
     22  C        -44.6150   16.5710    4.5310 C.2   129  LEU129      0.2287
     23  O        -44.4370   17.4660    3.6940 O.2   129  LEU129     -0.2864
     24  CB       -44.7970   17.1450    6.9700 C.3   129  LEU129      0.0297
     25  CG       -43.8980   18.3800    6.9180 C.3   129  LEU129      0.0022
     26  CD1      -44.6670   19.6120    6.4520 C.3   129  LEU129      0.0001
     27  CD2      -43.2450   18.6190    8.2700 C.3   129  LEU129      0.0001
     28  N        -46.1960   17.2390    1.2480 N.3   132  VAL132     -0.1245
     29  CA       -46.3030   18.6640    0.9530 C.3   132  VAL132      0.1561
     30  C        -44.9500   19.2280    0.5420 C.2   132  VAL132      0.2260
     31  O        -44.8330   19.9270   -0.4720 O.2   132  VAL132     -0.2867
     32  CB       -46.8780   19.4180    2.1640 C.3   132  VAL132      0.0252
     33  CG1      -46.9110   20.9120    1.8880 C.3   132  VAL132      0.0019
     34  CG2      -48.2610   18.9030    2.4830 C.3   132  VAL132      0.0019
     35  N        -48.1780   12.6850  -12.7730 N.3   377  GLU377     -0.1245
     36  CA       -49.5480   13.1670  -12.8780 C.3   377  GLU377      0.1567
     37  C        -49.8350   13.7030  -14.2740 C.2   377  GLU377      0.2260
     38  O        -50.8970   13.4290  -14.8450 O.2   377  GLU377     -0.2867
     39  CB       -49.7990   14.2390  -11.8150 C.3   377  GLU377      0.0388
     40  CG       -51.2600   14.6190  -11.6240 C.3   377  GLU377      0.1160
     41  CD       -52.1420   13.4420  -11.2350 C.2   377  GLU377      0.3649
     42  OE1      -51.6300   12.4790  -10.6270 O.co2 377  GLU377     -0.2457
     43  OE2      -53.3550   13.4820  -11.5340 O.co2 377  GLU377     -0.2457
     44  N        -50.3650   10.9560  -16.8040 N.3   380  ARG380     -0.1231
     45  CA       -51.6810   10.3650  -16.5860 C.3   380  ARG380      0.1694
     46  C        -52.7720   11.2500  -17.1710 C.2   380  ARG380      0.2592
     47  O        -53.7690   10.7580  -17.7160 O.2   380  ARG380     -0.2718
     48  CB       -51.9280   10.1900  -15.0760 C.3   380  ARG380      0.0321
     49  CG       -53.1800    9.3830  -14.7040 C.3   380  ARG380      0.0489
     50  CD       -53.9420   10.0800  -13.5900 C.3   380  ARG380      0.2205
     51  NE       -54.8350   11.1450  -14.0840 N.pl3 380  ARG380     -0.0865
     52  CZ       -56.1440   11.0050  -14.3100 C.cat 380  ARG380      0.5346
     53  NH1      -56.7160    9.8440  -14.0670 N.pl3 380  ARG380      0.1354
     54  NH2      -56.8840   12.0220  -14.7650 N.pl3 380  ARG380      0.1354
     55  N        -52.5890   12.5670  -17.0710 N.am  381  ASP381     -0.1974
     56  CA       -53.6200   13.4990  -17.5030 C.3   381  ASP381      0.1709
     57  C        -53.7510   13.5130  -19.0220 C.2   381  ASP381      0.2293
     58  O        -54.8670   13.5630  -19.5530 O.2   381  ASP381     -0.2864
     59  CB       -53.3010   14.8830  -16.9410 C.3   381  ASP381      0.1436
     60  CG       -53.4020   14.9270  -15.4220 C.2   381  ASP381      0.3671
     61  OD1      -53.5740   13.8500  -14.8080 O.co2 381  ASP381     -0.2456
     62  OD2      -53.2830   16.0260  -14.8400 O.co2 381  ASP381     -0.2456
     63  N        -58.1160    7.2230  -11.1550 N.3   469  THR469     -0.1203
     64  CA       -58.2980    8.1310  -10.0270 C.3   469  THR469      0.1994
     65  C        -57.4800    9.4080  -10.1440 C.2   469  THR469      0.2618
     66  O        -57.9120   10.4580   -9.6640 O.2   469  THR469     -0.2717
     67  CB       -57.9040    7.4390   -8.7180 C.3   469  THR469      0.1784
     68  OG1      -56.5000    7.1530   -8.7340 O.3   469  THR469     -0.2211
     69  CG2      -58.6730    6.1430   -8.5300 C.3   469  THR469      0.0376
     70  N        -56.3440    9.3630  -10.8140 N.am  470  GLY470     -0.1942
     71  CA       -55.3430   10.3820  -10.5890 C.3   470  GLY470      0.2014
     72  C        -54.6600   10.0900   -9.2640 C.2   470  GLY470      0.2639
     73  O        -54.7520    8.9780   -8.7380 O.2   470  GLY470     -0.2714
     74  N        -53.9730   11.0880   -8.7110 N.am  471  ASN471     -0.1958
     75  CA       -53.3370   10.9090   -7.4090 C.3   471  ASN471      0.1819
     76  C        -54.1550   11.4660   -6.2440 C.2   471  ASN471      0.2621
     77  O        -53.6610   11.4680   -5.1130 O.2   471  ASN471     -0.2715
     78  CB       -51.9180   11.4950   -7.3950 C.3   471  ASN471      0.1195
     79  CG       -51.8670   12.9520   -7.7700 C.2   471  ASN471      0.2630
     80  OD1      -52.8800   13.6400   -7.7860 O.2   471  ASN471     -0.2716
     81  ND2      -50.6670   13.4360   -8.0690 N.am  471  ASN471     -0.0877
     82  N        -55.3780   11.9510   -6.4840 N.am  472  TRP472     -0.1974
     83  CA       -56.1470   12.5380   -5.3850 C.3   472  TRP472      0.1640
     84  C        -56.4310   11.5820   -4.2290 C.2   472  TRP472      0.2290
     85  O        -56.5000   12.0670   -3.0860 O.2   472  TRP472     -0.2864
     86  CB       -57.4530   13.1760   -5.8910 C.3   472  TRP472      0.0576
     87  CG       -58.5390   12.2690   -6.4090 C.ar  472  TRP472      0.0006
     88  CD1      -58.8940   12.1020   -7.7090 C.ar  472  TRP472      0.0946
     89  CD2      -59.4480   11.4620   -5.6420 C.ar  472  TRP472      0.0152
     90  NE1      -59.9370   11.2140   -7.8130 N.ar  472  TRP472     -0.2442
     91  CE2      -60.2970   10.8080   -6.5560 C.ar  472  TRP472      0.0810
     92  CE3      -59.6130   11.2150   -4.2750 C.ar  472  TRP472      0.0012
     93  CZ2      -61.2960    9.9270   -6.1500 C.ar  472  TRP472      0.0191
     94  CZ3      -60.6030   10.3350   -3.8740 C.ar  472  TRP472      0.0001
     95  CH2      -61.4320    9.7030   -4.8090 C.ar  472  TRP472      0.0015
     96  N        -53.9180   12.2730   -1.9550 N.3   475  TRP475     -0.1241
     97  CA       -54.1000   13.5960   -1.3660 C.3   475  TRP475      0.1605
     98  C        -55.1620   13.5710   -0.2740 C.2   475  TRP475      0.2264
     99  O        -55.0580   14.3040    0.7180 O.2   475  TRP475     -0.2867
    100  CB       -54.4570   14.6200   -2.4470 C.3   475  TRP475      0.0550
    101  CG       -53.2530   15.1580   -3.1700 C.ar  475  TRP475      0.0003
    102  CD1      -52.8650   14.8760   -4.4500 C.ar  475  TRP475      0.0946
    103  CD2      -52.2710   16.0610   -2.6440 C.ar  475  TRP475      0.0152
    104  NE1      -51.7050   15.5530   -4.7520 N.ar  475  TRP475     -0.2442
    105  CE2      -51.3210   16.2860   -3.6600 C.ar  475  TRP475      0.0810
    106  CE3      -52.1070   16.7050   -1.4150 C.ar  475  TRP475      0.0012
    107  CZ2      -50.2230   17.1250   -3.4820 C.ar  475  TRP475      0.0191
    108  CZ3      -51.0180   17.5320   -1.2390 C.ar  475  TRP475      0.0001
    109  CH2      -50.0900   17.7370   -2.2660 C.ar  475  TRP475      0.0015
    110  N        -53.1640   12.0910    2.5350 N.3   478  THR478     -0.1203
    111  CA       -52.2430   13.0460    3.1440 C.3   478  THR478      0.1994
    112  C        -52.9840   14.1420    3.9000 C.2   478  THR478      0.2617
    113  O        -52.4780   14.6440    4.9100 O.2   478  THR478     -0.2717
    114  CB       -51.3020   13.6440    2.0940 C.3   478  THR478      0.1784
    115  OG1      -50.1870   14.2570    2.7520 O.3   478  THR478     -0.2211
    116  CG2      -52.0000   14.6900    1.2670 C.3   478  THR478      0.0376
    117  N        -54.1690   14.5340    3.4280 N.am  479  ALA479     -0.1979
    118  CA       -54.9460   15.5440    4.1360 C.3   479  ALA479      0.1597
    119  C        -55.4280   15.0210    5.4820 C.2   479  ALA479      0.2287
    120  O        -55.2390   15.6730    6.5140 O.2   479  ALA479     -0.2864
    121  CB       -56.1280   15.9940    3.2770 C.3   479  ALA479      0.0319
    122  N        -52.4820   14.5230    7.8850 N.3   482  GLY482     -0.1210
    123  CA       -52.0670   15.8250    8.3840 C.3   482  GLY482      0.1956
    124  C        -53.1130   16.4560    9.2840 C.2   482  GLY482      0.2611
    125  O        -52.8190   16.8550   10.4140 O.2   482  GLY482     -0.2717
    126  N        -54.3570   16.5290    8.7970 N.am  483  PHE483     -0.1976
    127  CA       -55.4670   17.0810    9.5720 C.3   483  PHE483      0.1639
    128  C        -55.5280   16.4900   10.9740 C.2   483  PHE483      0.2290
    129  O        -55.6670   17.2190   11.9620 O.2   483  PHE483     -0.2864
    130  CB       -56.7730   16.8490    8.8040 C.3   483  PHE483      0.0560
    131  CG       -58.0170   16.9490    9.6390 C.ar  483  PHE483     -0.0200
    132  CD1      -58.6690   18.1570    9.8100 C.ar  483  PHE483     -0.0042
    133  CD2      -58.5440   15.8160   10.2410 C.ar  483  PHE483     -0.0042
    134  CE1      -59.8200   18.2340   10.5780 C.ar  483  PHE483     -0.0003
    135  CE2      -59.6900   15.8860   11.0060 C.ar  483  PHE483     -0.0003
    136  CZ       -60.3300   17.0970   11.1750 C.ar  483  PHE483     -0.0000
    137  N        -52.1530   17.6160   12.7260 N.3   486  VAL486     -0.1245
    138  CA       -51.9850   19.0410   12.9980 C.3   486  VAL486      0.1561
    139  C        -52.7000   19.4460   14.2830 C.2   486  VAL486      0.2260
    140  O        -52.1180   20.1110   15.1480 O.2   486  VAL486     -0.2867
    141  CB       -52.4780   19.8770   11.8030 C.3   486  VAL486      0.0252
    142  CG1      -52.4940   21.3450   12.1730 C.3   486  VAL486      0.0019
    143  CG2      -51.5830   19.6590   10.5970 C.3   486  VAL486      0.0019
@<TRIPOS>BOND
     1    58    57    2
     2    57    56    1
     3    47    46    2
     4    56    55    1
     5    56    59    1
     6    46    55   am
     7    46    45    1
     8    59    60    1
     9    44    45    1
    10    45    48    1
    11    60    62   ar
    12    60    61   ar
    13    48    49    1
    14    38    37    2
    15    54    52    1
    16    49    50    1
    17    52    51    2
    18    52    53    1
    19    37    36    1
    20    51    50    1
    21    36    35    1
    22    36    39    1
    23    39    40    1
    24    40    41    1
    25    43    41   ar
    26    41    42   ar
    27    63    64    1
    28    70    71    1
    29    70    65   am
    30    71    72    1
    31    65    64    1
    32    65    66    2
    33    64    67    1
    34    72    73    2
    35    72    74   am
    36    68    67    1
    37    67    69    1
    38    74    75    1
    39    81    79   am
    40    90    88   ar
    41    90    91   ar
    42    80    79    2
    43    79    78    1
    44    88    87   ar
    45    75    78    1
    46    75    76    1
    47    91    93   ar
    48    91    89   ar
    49    82    76   am
    50    82    83    1
    51    87    86    1
    52    87    89   ar
    53    76    77    2
    54    93    95   ar
    55    86    83    1
    56    89    92   ar
    57    83    84    1
    58    95    94   ar
    59   104   102   ar
    60   104   105   ar
    61   102   101   ar
    62    92    94   ar
    63    84    85    2
    64   105   107   ar
    65   105   103   ar
    66   107   109   ar
    67   101   103   ar
    68   101   100    1
    69   103   106   ar
    70   100    97    1
    71   109   108   ar
    72    96    97    1
    73   106   108   ar
    74    97    98    1
    75    31    30    2
    76    98    99    2
    77    30    29    1
    78    29    28    1
    79    29    32    1
    80   116   114    1
    81    33    32    1
    82   114   115    1
    83   114   111    1
    84    32    34    1
    85   110   111    1
    86   111   112    1
    87   121   118    1
    88   117   112   am
    89   117   118    1
    90    23    22    2
    91   112   113    2
    92    18    17    2
    93   118   119    1
    94    22    21    1
    95    17    16    1
    96    17    20   am
    97    16    15    1
    98    16    19    1
    99   119   120    2
   100    21    20    1
   101    21    24    1
   102    26    25    1
   103    25    24    1
   104    25    27    1
   105   122   123    1
   106   123   124    1
   107   126   124   am
   108   126   127    1
   109   130   127    1
   110   130   131    1
   111   124   125    2
   112   127   128    1
   113   131   132   ar
   114   131   133   ar
   115   132   134   ar
   116   133   135   ar
   117   134   136   ar
   118   143   141    1
   119   128   129    2
   120   135   136   ar
   121    14    13   ar
   122    14    12   ar
   123   141   142    1
   124   141   138    1
   125    13    11   ar
   126   137   138    1
   127    12    10   ar
   128    11     8   ar
   129   138   139    1
   130    10     8   ar
   131    10     9   ar
   132     8     6   ar
   133   139   140    2
   134     9     7   ar
   135     6     5    1
   136     6     7   ar
   137     5     2    1
   138     1     2    1
   139     2     3    1
   140     4     3    2
