@<TRIPOS>MOLECULE
tmp/5n6lA16.pdb
 75 74 0 0 0
SMALL
GASTEIGER

@<TRIPOS>ATOM
      1  N          1.2650   -5.0390   26.8250 N.3    80  PHE80      -0.1227
      2  CA         2.5670   -5.6550   27.0550 C.3    80  PHE80       0.1736
      3  C          3.5440   -5.5100   25.8960 C.2    80  PHE80       0.2596
      4  O          4.6710   -6.0070   25.9930 O.2    80  PHE80      -0.2718
      5  CB         2.3890   -7.1290   27.4150 C.3    80  PHE80       0.0547
      6  CG         1.5370   -7.3410   28.6240 C.ar   80  PHE80      -0.0202
      7  CD1        2.0660   -7.1440   29.8910 C.ar   80  PHE80      -0.0042
      8  CD2        0.2070   -7.7090   28.5020 C.ar   80  PHE80      -0.0042
      9  CE1        1.2920   -7.3240   31.0180 C.ar   80  PHE80      -0.0003
     10  CE2       -0.5780   -7.8910   29.6270 C.ar   80  PHE80      -0.0003
     11  CZ        -0.0330   -7.6980   30.8880 C.ar   80  PHE80      -0.0000
     12  N          3.1500   -4.8540   24.8070 N.am   81  GLY81      -0.1957
     13  CA         4.0380   -4.7710   23.6620 C.3    81  GLY81       0.1869
     14  C          5.1910   -3.8190   23.8860 C.2    81  GLY81       0.2309
     15  O          6.2780   -4.0140   23.3340 O.2    81  GLY81      -0.2863
     16  N          3.5980  -15.2200   20.2160 N.3   339  PHE339     -0.1227
     17  CA         4.3740  -14.1260   20.7840 C.3   339  PHE339      0.1736
     18  C          4.2370  -13.9860   22.2940 C.2   339  PHE339      0.2596
     19  O          5.0400  -13.2740   22.9070 O.2   339  PHE339     -0.2718
     20  CB         3.9930  -12.8090   20.1000 C.3   339  PHE339      0.0547
     21  CG         4.4910  -12.7080   18.6900 C.ar  339  PHE339     -0.0202
     22  CD1        5.7030  -12.1000   18.4100 C.ar  339  PHE339     -0.0042
     23  CD2        3.7580  -13.2480   17.6450 C.ar  339  PHE339     -0.0042
     24  CE1        6.1670  -12.0190   17.1130 C.ar  339  PHE339     -0.0003
     25  CE2        4.2160  -13.1700   16.3460 C.ar  339  PHE339     -0.0003
     26  CZ         5.4220  -12.5540   16.0790 C.ar  339  PHE339     -0.0000
     27  N          3.2510  -14.6350   22.9040 N.am  340  GLY340     -0.1957
     28  CA         3.0890  -14.5450   24.3400 C.3   340  GLY340      0.1869
     29  C          3.9940  -15.4240   25.1780 C.2   340  GLY340      0.2309
     30  O          4.6770  -14.9370   26.0840 O.2   340  GLY340     -0.2863
     31  N          9.3990  -16.8420   22.0180 N.3   343  VAL343     -0.1231
     32  CA         9.8650  -15.8920   21.0120 C.3   343  VAL343      0.1678
     33  C         10.1940  -16.6630   19.7390 C.2   343  VAL343      0.2434
     34  O         11.0990  -17.5080   19.7480 O.2   343  VAL343     -0.2733
     35  CB        11.0870  -15.0980   21.5030 C.3   343  VAL343      0.0265
     36  CG1       11.5070  -14.0730   20.4610 C.3   343  VAL343      0.0020
     37  CG2       10.7770  -14.4150   22.8280 C.3   343  VAL343      0.0020
     38  N          9.4790  -16.4260   18.6390 N.am  344  PRO344     -0.2718
     39  CA         9.8350  -17.0730   17.3730 C.3   344  PRO344      0.1535
     40  C         11.1310  -16.5020   16.8250 C.2   344  PRO344      0.2598
     41  O         11.4870  -15.3500   17.0900 O.2   344  PRO344     -0.2715
     42  CB         8.6510  -16.7440   16.4510 C.3   344  PRO344      0.0310
     43  CG         7.5610  -16.2390   17.3560 C.3   344  PRO344      0.0237
     44  CD         8.2600  -15.6110   18.5180 C.3   344  PRO344      0.0939
     45  N         11.8340  -17.3260   16.0450 N.am  345  LEU345     -0.1978
     46  CA        13.1440  -16.9670   15.5010 C.3   345  LEU345      0.1596
     47  C         14.1090  -16.5810   16.6220 C.2   345  LEU345      0.2287
     48  O         14.7030  -15.5020   16.6200 O.2   345  LEU345     -0.2864
     49  CB        13.0320  -15.8480   14.4610 C.3   345  LEU345      0.0297
     50  CG        12.7950  -16.2660   13.0080 C.3   345  LEU345      0.0022
     51  CD1       11.6680  -17.2830   12.8930 C.3   345  LEU345      0.0001
     52  CD2       12.5140  -15.0520   12.1350 C.3   345  LEU345      0.0001
     53  N         18.0700  -15.0550   16.8390 N.3   348  ILE348     -0.1245
     54  CA        18.4530  -13.6460   16.7970 C.3   348  ILE348      0.1561
     55  C         19.3500  -13.2960   17.9800 C.2   348  ILE348      0.2260
     56  O         19.7240  -12.1330   18.1580 O.2   348  ILE348     -0.2867
     57  CB        17.2110  -12.7350   16.7530 C.3   348  ILE348      0.0252
     58  CG1       16.3210  -12.9720   17.9760 C.3   348  ILE348      0.0019
     59  CG2       16.4340  -12.9570   15.4620 C.3   348  ILE348      0.0019
     60  CD1       15.0290  -12.1820   17.9530 C.3   348  ILE348      0.0001
     61  N         16.9740   -7.8880   24.5330 N.3   358  LEU358     -0.1231
     62  CA        15.8140   -8.5840   24.0050 C.3   358  LEU358      0.1678
     63  C         15.3720   -9.6710   24.9730 C.2   358  LEU358      0.2434
     64  O         16.1650  -10.1390   25.7990 O.2   358  LEU358     -0.2733
     65  CB        16.1300   -9.2150   22.6410 C.3   358  LEU358      0.0284
     66  CG        16.0330   -8.3630   21.3750 C.3   358  LEU358      0.0019
     67  CD1       17.0590   -7.2490   21.3810 C.3   358  LEU358      0.0001
     68  CD2       16.2090   -9.2410   20.1470 C.3   358  LEU358      0.0001
     69  N         14.1080  -10.0890   24.9110 N.am  359  PRO359     -0.2729
     70  CA        13.6580  -11.1830   25.7800 C.3   359  PRO359      0.1401
     71  C         14.3860  -12.4770   25.4490 C.2   359  PRO359      0.2269
     72  O         14.3840  -12.9380   24.3050 O.2   359  PRO359     -0.2865
     73  CB        12.1620  -11.2840   25.4630 C.3   359  PRO359      0.0296
     74  CG        12.0660  -10.7820   24.0540 C.3   359  PRO359      0.0237
     75  CD        13.0340   -9.6390   24.0070 C.3   359  PRO359      0.0939
@<TRIPOS>BOND
     1    52    50    1
     2    51    50    1
     3    50    49    1
     4    49    46    1
     5    59    57    1
     6    46    45    1
     7    46    47    1
     8    45    40   am
     9    26    25   ar
    10    26    24   ar
    11    25    23   ar
    12    42    43    1
    13    42    39    1
    14    48    47    2
    15    57    54    1
    16    57    58    1
    17    54    53    1
    18    54    55    1
    19    40    41    2
    20    40    39    1
    21    24    22   ar
    22    43    44    1
    23    39    38    1
    24    23    21   ar
    25    60    58    1
    26    55    56    2
    27    22    21   ar
    28    44    38    1
    29    38    33   am
    30    21    20    1
    31    33    34    2
    32    33    32    1
    33    20    17    1
    34    68    66    1
    35    16    17    1
    36    36    35    1
    37    17    18    1
    38    32    35    1
    39    32    31    1
    40    66    67    1
    41    66    65    1
    42    35    37    1
    43    18    27   am
    44    18    19    2
    45    65    62    1
    46    27    28    1
    47    15    14    2
    48    13    14    1
    49    13    12    1
    50    62    61    1
    51    62    63    1
    52    75    74    1
    53    75    69    1
    54    74    73    1
    55    72    71    2
    56    28    29    1
    57    12     3   am
    58    69    63   am
    59    69    70    1
    60    63    64    2
    61    29    30    2
    62    71    70    1
    63    73    70    1
    64     3     4    2
    65     3     2    1
    66     1     2    1
    67     2     5    1
    68     5     6    1
    69     8     6   ar
    70     8    10   ar
    71     6     7   ar
    72    10    11   ar
    73     7     9   ar
    74    11     9   ar
