@<TRIPOS>MOLECULE
tmp/5n6lA01.pdb
 171 166 0 0 0
SMALL
GASTEIGER

@<TRIPOS>ATOM
      1  N         -7.0230   -8.5960   19.5150 N.3    73  VAL73      -0.1245
      2  CA        -5.6340   -8.8490   19.8800 C.3    73  VAL73       0.1561
      3  C         -4.8720   -7.5660   20.1690 C.2    73  VAL73       0.2260
      4  O         -3.7640   -7.6170   20.7120 O.2    73  VAL73      -0.2867
      5  CB        -4.9070   -9.6480   18.7740 C.3    73  VAL73       0.0252
      6  CG1       -5.5960  -10.9770   18.5340 C.3    73  VAL73       0.0019
      7  CG2       -4.8110   -8.8320   17.4870 C.3    73  VAL73       0.0019
      8  N         -3.9560   -6.7410   23.9910 N.3    76  SER76      -0.1202
      9  CA        -2.7740   -7.3980   24.5340 C.3    76  SER76       0.2020
     10  C         -1.5000   -6.7510   24.0090 C.2    76  SER76       0.2618
     11  O         -0.5350   -6.5660   24.7600 O.2    76  SER76      -0.2717
     12  CB        -2.7990   -8.8870   24.2000 C.3    76  SER76       0.2103
     13  OG        -1.6290   -9.5260   24.6770 O.3    76  SER76      -0.2182
     14  N         -1.4800   -6.4090   22.7190 N.am   77  ILE77      -0.1979
     15  CA        -0.2990   -5.7920   22.1230 C.3    77  ILE77       0.1595
     16  C         -0.0430   -4.4300   22.7510 C.2    77  ILE77       0.2287
     17  O          1.1050   -4.0590   23.0230 O.2    77  ILE77      -0.2864
     18  CB        -0.4680   -5.6920   20.5960 C.3    77  ILE77       0.0276
     19  CG1       -0.6390   -7.0780   19.9790 C.3    77  ILE77       0.0022
     20  CG2        0.7290   -5.0230   19.9710 C.3    77  ILE77       0.0022
     21  CD1       -0.8170   -7.0420   18.4790 C.3    77  ILE77       0.0001
     22  N          0.5080   -3.5520   13.7880 N.3    91  LEU91      -0.1245
     23  CA         0.6570   -4.9830   14.0370 C.3    91  LEU91       0.1561
     24  C         -0.6650   -5.7220   13.8650 C.2    91  LEU91       0.2260
     25  O         -0.6930   -6.8330   13.3270 O.2    91  LEU91      -0.2867
     26  CB         1.2170   -5.2130   15.4420 C.3    91  LEU91       0.0270
     27  CG         2.6030   -4.6370   15.7330 C.3    91  LEU91       0.0019
     28  CD1        2.9830   -4.8380   17.1920 C.3    91  LEU91       0.0001
     29  CD2        3.6470   -5.2480   14.8170 C.3    91  LEU91       0.0001
     30  N         -1.4960   -5.9930   10.3530 N.3    94  LEU94      -0.1231
     31  CA        -0.5810   -6.9860    9.8020 C.3    94  LEU94       0.1693
     32  C         -1.0910   -8.4030   10.0510 C.2    94  LEU94       0.2591
     33  O         -1.0360   -9.2540    9.1540 O.2    94  LEU94      -0.2718
     34  CB         0.8100   -6.7970   10.4070 C.3    94  LEU94       0.0284
     35  CG         1.9620   -7.6100    9.8170 C.3    94  LEU94       0.0019
     36  CD1        2.4260   -6.9930    8.5050 C.3    94  LEU94       0.0001
     37  CD2        3.1140   -7.7280   10.8050 C.3    94  LEU94       0.0001
     38  N         -1.5860   -8.6790   11.2640 N.am   95  LEU95      -0.1980
     39  CA        -2.1070  -10.0090   11.5720 C.3    95  LEU95       0.1596
     40  C         -3.3010  -10.3600   10.6960 C.2    95  LEU95       0.2287
     41  O         -3.3590  -11.4500   10.1150 O.2    95  LEU95      -0.2864
     42  CB        -2.4920  -10.0950   13.0490 C.3    95  LEU95       0.0297
     43  CG        -3.1860  -11.3930   13.4670 C.3    95  LEU95       0.0022
     44  CD1       -2.2210  -12.5660   13.4190 C.3    95  LEU95       0.0001
     45  CD2       -3.7850  -11.2490   14.8470 C.3    95  LEU95       0.0001
     46  N         -2.0430  -11.0760    7.2390 N.3    98  TYR98      -0.1241
     47  CA        -1.4310  -12.3980    7.1570 C.3    98  TYR98       0.1605
     48  C         -2.4820  -13.4990    7.0680 C.2    98  TYR98       0.2264
     49  O         -2.3340  -14.4460    6.2860 O.2    98  TYR98      -0.2867
     50  CB        -0.5120  -12.6310    8.3580 C.3    98  TYR98       0.0534
     51  CG        -0.1930  -14.0920    8.5780 C.ar   98  TYR98      -0.0201
     52  CD1        0.7370  -14.7490    7.7870 C.ar   98  TYR98      -0.0009
     53  CD2       -0.8310  -14.8190    9.5730 C.ar   98  TYR98      -0.0009
     54  CE1        1.0210  -16.0890    7.9820 C.ar   98  TYR98       0.0417
     55  CE2       -0.5520  -16.1580    9.7750 C.ar   98  TYR98       0.0417
     56  CZ         0.3740  -16.7880    8.9770 C.ar   98  TYR98       0.1957
     57  OH         0.6530  -18.1200    9.1780 O.3    98  TYR98      -0.2866
     58  N          3.2470  -22.0910   10.8290 N.3   141  LEU141     -0.1245
     59  CA         3.8550  -21.2700   11.8780 C.3   141  LEU141      0.1561
     60  C          3.0820  -21.3370   13.1960 C.2   141  LEU141      0.2260
     61  O          2.6660  -20.3200   13.7600 O.2   141  LEU141     -0.2867
     62  CB         4.0440  -19.8230   11.4200 C.3   141  LEU141      0.0270
     63  CG         5.1960  -19.6280   10.4380 C.3   141  LEU141      0.0019
     64  CD1        5.3020  -18.1720   10.0270 C.3   141  LEU141      0.0001
     65  CD2        6.4930  -20.1070   11.0760 C.3   141  LEU141      0.0001
     66  N         -5.8790  -21.1180   35.0810 N.3   265  GLU265     -0.1245
     67  CA        -4.5130  -21.2030   34.5840 C.3   265  GLU265      0.1567
     68  C         -3.5850  -20.2580   35.3360 C.2   265  GLU265      0.2260
     69  O         -3.8840  -19.0700   35.4980 O.2   265  GLU265     -0.2867
     70  CB        -4.4990  -20.8920   33.0870 C.3   265  GLU265      0.0388
     71  CG        -3.1310  -20.5530   32.5180 C.3   265  GLU265      0.1160
     72  CD        -3.2110  -19.9910   31.1070 C.2   265  GLU265      0.3649
     73  OE1       -4.1980  -19.2860   30.8060 O.co2 265  GLU265     -0.2457
     74  OE2       -2.2880  -20.2500   30.3020 O.co2 265  GLU265     -0.2457
     75  N          1.6700  -27.6010   29.3150 N.3   333  LYS333     -0.1245
     76  CA         1.1650  -27.0330   28.0700 C.3   333  LYS333      0.1561
     77  C          2.0530  -27.4140   26.8900 C.2   333  LYS333      0.2260
     78  O          3.2760  -27.2500   26.9420 O.2   333  LYS333     -0.2867
     79  CB         1.0650  -25.5150   28.1850 C.3   333  LYS333      0.0271
     80  CG         0.1660  -24.8830   27.1420 C.3   333  LYS333      0.0035
     81  CD         0.1950  -23.3650   27.2050 C.3   333  LYS333      0.0206
     82  CE        -0.9170  -22.7700   26.3540 C.3   333  LYS333      0.1093
     83  NZ        -0.8730  -21.2830   26.3450 N.3   333  LYS333     -0.1314
     84  N          1.4260  -20.0460   22.6970 N.3   337  VAL337     -0.1231
     85  CA         0.9720  -18.9060   21.9010 C.3   337  VAL337      0.1678
     86  C          2.1780  -18.1930   21.3100 C.2   337  VAL337      0.2434
     87  O          3.1580  -17.9310   22.0340 O.2   337  VAL337     -0.2733
     88  CB         0.1260  -17.9670   22.7590 C.3   337  VAL337      0.0265
     89  CG1       -0.0430  -16.6450   22.0630 C.3   337  VAL337      0.0020
     90  CG2       -1.2270  -18.6140   22.9930 C.3   337  VAL337      0.0020
     91  N          2.1550  -17.8560   20.0170 N.am  338  PRO338     -0.2718
     92  CA         3.4090  -17.5110   19.3270 C.3   338  PRO338      0.1535
     93  C          4.2080  -16.3670   19.9300 C.2   338  PRO338      0.2599
     94  O          5.4180  -16.5230   20.1240 O.2   338  PRO338     -0.2715
     95  CB         2.9190  -17.1810   17.9130 C.3   338  PRO338      0.0310
     96  CG         1.7560  -18.0930   17.7260 C.3   338  PRO338      0.0237
     97  CD         1.0600  -18.1130   19.0650 C.3   338  PRO338      0.0939
     98  N          3.5980  -15.2200   20.2160 N.am  339  PHE339     -0.1960
     99  CA         4.3740  -14.1260   20.7840 C.3   339  PHE339      0.1771
    100  C          4.2370  -13.9860   22.2940 C.2   339  PHE339      0.2620
    101  O          5.0400  -13.2740   22.9070 O.2   339  PHE339     -0.2715
    102  CB         3.9930  -12.8090   20.1000 C.3   339  PHE339      0.0574
    103  CG         4.4910  -12.7080   18.6900 C.ar  339  PHE339     -0.0200
    104  CD1        5.7030  -12.1000   18.4100 C.ar  339  PHE339     -0.0042
    105  CD2        3.7580  -13.2480   17.6450 C.ar  339  PHE339     -0.0042
    106  CE1        6.1670  -12.0190   17.1130 C.ar  339  PHE339     -0.0003
    107  CE2        4.2160  -13.1700   16.3460 C.ar  339  PHE339     -0.0003
    108  CZ         5.4220  -12.5540   16.0790 C.ar  339  PHE339     -0.0000
    109  N          3.2510  -14.6350   22.9040 N.am  340  GLY340     -0.1940
    110  CA         3.0890  -14.5450   24.3400 C.3   340  GLY340      0.2014
    111  C          3.9940  -15.4240   25.1780 C.2   340  GLY340      0.2638
    112  O          4.6770  -14.9370   26.0840 O.2   340  GLY340     -0.2714
    113  N          4.0260  -16.7240   24.8770 N.am  341  GLU341     -0.1977
    114  CA         4.7390  -17.6760   25.7180 C.3   341  GLU341      0.1602
    115  C          6.1120  -18.0780   25.1880 C.2   341  GLU341      0.2287
    116  O          6.8180  -18.8340   25.8640 O.2   341  GLU341     -0.2864
    117  CB         3.8570  -18.9150   25.9160 C.3   341  GLU341      0.0415
    118  CG         2.7060  -18.6430   26.8820 C.3   341  GLU341      0.1163
    119  CD         1.5630  -19.6330   26.7570 C.2   341  GLU341      0.3649
    120  OE1        1.5040  -20.3510   25.7380 O.co2 341  GLU341     -0.2457
    121  OE2        0.7190  -19.6850   27.6770 O.co2 341  GLU341     -0.2457
    122  N         -6.1640  -23.0210   28.0680 N.3   385  ALA385     -0.1231
    123  CA        -6.4670  -21.8030   27.3150 C.3   385  ALA385      0.1694
    124  C         -6.5700  -22.1010   25.8250 C.2   385  ALA385      0.2592
    125  O         -7.4950  -22.8280   25.4180 O.2   385  ALA385     -0.2718
    126  CB        -5.4210  -20.7480   27.6880 C.3   385  ALA385      0.0304
    127  N         -5.6790  -21.5510   24.9930 N.am  386  TYR386     -0.1976
    128  CA        -5.7180  -21.6940   23.5390 C.3   386  TYR386      0.1639
    129  C         -5.8820  -23.1400   23.0870 C.2   386  TYR386      0.2290
    130  O         -6.5210  -23.3980   22.0610 O.2   386  TYR386     -0.2864
    131  CB        -4.4290  -21.0920   22.9570 C.3   386  TYR386      0.0560
    132  CG        -4.3010  -21.1480   21.4480 C.ar  386  TYR386     -0.0198
    133  CD1       -4.6390  -20.0590   20.6520 C.ar  386  TYR386     -0.0009
    134  CD2       -3.8330  -22.2940   20.8200 C.ar  386  TYR386     -0.0009
    135  CE1       -4.5260  -20.1230   19.2660 C.ar  386  TYR386      0.0417
    136  CE2       -3.7220  -22.3660   19.4520 C.ar  386  TYR386      0.0417
    137  CZ        -4.0660  -21.2850   18.6810 C.ar  386  TYR386      0.1957
    138  OH        -3.9360  -21.4040   17.3240 O.3   386  TYR386     -0.2866
    139  N         -6.6050  -18.1050   31.2840 N.3   410  ASN410     -0.1240
    140  CA        -6.6080  -16.7340   31.7770 C.3   410  ASN410      0.1653
    141  C         -6.9490  -15.8250   30.6050 C.2   410  ASN410      0.2266
    142  O         -6.1250  -15.6110   29.7080 O.2   410  ASN410     -0.2867
    143  CB        -5.2660  -16.3680   32.4040 C.3   410  ASN410      0.1155
    144  CG        -5.3120  -15.0460   33.1280 C.2   410  ASN410      0.2627
    145  OD1       -6.3830  -14.4710   33.3180 O.2   410  ASN410     -0.2716
    146  ND2       -4.1520  -14.5570   33.5450 N.am  410  ASN410     -0.0877
    147  N         -6.2340  -10.7220   29.8270 N.3   413  TRP413     -0.1227
    148  CA        -6.0330   -9.9600   28.6040 C.3   413  TRP413      0.1737
    149  C         -7.2290  -10.1810   27.6940 C.2   413  TRP413      0.2595
    150  O         -7.8320  -11.2550   27.6960 O.2   413  TRP413     -0.2718
    151  CB        -4.7440  -10.3820   27.8960 C.3   413  TRP413      0.0564
    152  CG        -4.1930  -11.7010   28.3650 C.ar  413  TRP413      0.0003
    153  CD1       -4.7800  -12.9310   28.2480 C.ar  413  TRP413      0.0946
    154  CD2       -2.9340  -11.9190   29.0110 C.ar  413  TRP413      0.0152
    155  NE1       -3.9670  -13.8970   28.7920 N.ar  413  TRP413     -0.2442
    156  CE2       -2.8270  -13.3020   29.2660 C.ar  413  TRP413      0.0810
    157  CE3       -1.8880  -11.0790   29.4030 C.ar  413  TRP413      0.0012
    158  CZ2       -1.7190  -13.8610   29.8930 C.ar  413  TRP413      0.0191
    159  CZ3       -0.7890  -11.6350   30.0250 C.ar  413  TRP413      0.0001
    160  CH2       -0.7120  -13.0130   30.2640 C.ar  413  TRP413      0.0015
    161  N         -7.5540   -9.1630   26.8970 N.am  414  PHE414     -0.1976
    162  CA        -8.7050   -9.0890   25.9870 C.3   414  PHE414      0.1639
    163  C         -9.9850   -8.6980   26.7220 C.2   414  PHE414      0.2290
    164  O        -11.0370   -8.6340   26.0790 O.2   414  PHE414     -0.2864
    165  CB        -8.9710  -10.3860   25.1960 C.3   414  PHE414      0.0560
    166  CG        -7.7200  -11.1210   24.7910 C.ar  414  PHE414     -0.0200
    167  CD1       -6.6390  -10.4430   24.2490 C.ar  414  PHE414     -0.0042
    168  CD2       -7.6230  -12.4960   24.9760 C.ar  414  PHE414     -0.0042
    169  CE1       -5.4830  -11.1240   23.8960 C.ar  414  PHE414     -0.0003
    170  CE2       -6.4760  -13.1800   24.6270 C.ar  414  PHE414     -0.0003
    171  CZ        -5.4040  -12.4940   24.0850 C.ar  414  PHE414     -0.0000
@<TRIPOS>BOND
     1    49    48    2
     2    48    47    1
     3    47    46    1
     4    47    50    1
     5    52    54   ar
     6    52    51   ar
     7    54    56   ar
     8    50    51    1
     9    36    35    1
    10    51    53   ar
    11    56    57    1
    12    56    55   ar
    13    33    32    2
    14    53    55   ar
    15    31    32    1
    16    31    30    1
    17    31    34    1
    18    35    34    1
    19    35    37    1
    20    64    63    1
    21    32    38   am
    22    41    40    2
    23    63    65    1
    24    63    62    1
    25    40    39    1
    26    58    59    1
    27    38    39    1
    28    62    59    1
    29    39    42    1
    30    59    60    1
    31    42    43    1
    32    60    61    2
    33    25    24    2
    34    44    43    1
    35    43    45    1
    36    22    23    1
    37    24    23    1
    38    23    26    1
    39    29    27    1
    40    26    27    1
    41    27    28    1
    42   108   107   ar
    43   108   106   ar
    44   107   105   ar
    45   106   104   ar
    46   138   137    1
    47     7     5    1
    48   105   103   ar
    49    96    95    1
    50    96    97    1
    51    95    92    1
    52   104   103   ar
    53    21    19    1
    54     6     5    1
    55   137   135   ar
    56   137   136   ar
    57   103   102    1
    58     5     2    1
    59    97    91    1
    60   135   133   ar
    61    92    93    1
    62    92    91    1
    63   136   134   ar
    64     1     2    1
    65     2     3    1
    66    93    94    2
    67    93    98   am
    68    20    18    1
    69    19    18    1
    70    91    86   am
    71   102    99    1
    72     3     4    2
    73    98    99    1
    74    18    15    1
    75   133   132   ar
    76    99   100    1
    77   134   132   ar
    78    86    85    1
    79    86    87    2
    80   132   131    1
    81    85    84    1
    82    85    88    1
    83   130   129    2
    84    89    88    1
    85    15    14    1
    86    15    16    1
    87   100   109   am
    88   100   101    2
    89    14    10   am
    90    16    17    2
    91    88    90    1
    92   109   110    1
    93   131   128    1
    94   129   128    1
    95   128   127    1
    96   169   171   ar
    97   169   167   ar
    98     8     9    1
    99    10     9    1
   100    10    11    2
   101   171   170   ar
   102    12     9    1
   103    12    13    1
   104   167   166   ar
   105   110   111    1
   106   170   168   ar
   107   166   168   ar
   108   166   165    1
   109   113   111   am
   110   113   114    1
   111   127   124   am
   112   111   112    2
   113   115   114    1
   114   115   116    2
   115   165   162    1
   116   125   124    2
   117   114   117    1
   118   120   119   ar
   119   124   123    1
   120   117   118    1
   121   162   163    1
   122   162   161    1
   123   164   163    2
   124    83    82    1
   125    82    81    1
   126   119   118    1
   127   119   121   ar
   128    77    78    2
   129    77    76    1
   130   161   149   am
   131    80    81    1
   132    80    79    1
   133   123   126    1
   134   123   122    1
   135   149   150    2
   136   149   148    1
   137   151   152    1
   138   151   148    1
   139    76    79    1
   140    76    75    1
   141   153   152   ar
   142   153   155   ar
   143   152   154   ar
   144   148   147    1
   145   155   156   ar
   146   154   156   ar
   147   154   157   ar
   148   156   158   ar
   149   157   159   ar
   150   142   141    2
   151   158   160   ar
   152   159   160   ar
   153    74    72   ar
   154   141   140    1
   155    73    72   ar
   156    72    71    1
   157   139   140    1
   158   140   143    1
   159   143   144    1
   160    71    70    1
   161    70    67    1
   162   144   145    2
   163   144   146   am
   164    67    66    1
   165    67    68    1
   166    68    69    2
