@<TRIPOS>MOLECULE
tmp/5n6lA09.pdb
 159 148 0 0 0
SMALL
GASTEIGER

@<TRIPOS>ATOM
      1  N        -22.0330  -25.7200  -10.4410 N.3   119  TRP119     -0.1241
      2  CA       -22.2010  -26.3140   -9.1220 C.3   119  TRP119      0.1605
      3  C        -20.9750  -27.1220   -8.7170 C.2   119  TRP119      0.2264
      4  O        -20.6940  -27.2590   -7.5210 O.2   119  TRP119     -0.2867
      5  CB       -23.4660  -27.1700   -9.0780 C.3   119  TRP119      0.0550
      6  CG       -23.3930  -28.4320   -9.8600 C.ar  119  TRP119      0.0003
      7  CD1      -23.8130  -28.6270  -11.1420 C.ar  119  TRP119      0.0946
      8  CD2      -22.8850  -29.6930   -9.4070 C.ar  119  TRP119      0.0152
      9  NE1      -23.5910  -29.9300  -11.5190 N.ar  119  TRP119     -0.2442
     10  CE2      -23.0220  -30.6040  -10.4710 C.ar  119  TRP119      0.0810
     11  CE3      -22.3210  -30.1360   -8.2070 C.ar  119  TRP119      0.0012
     12  CZ2      -22.6180  -31.9340  -10.3710 C.ar  119  TRP119      0.0191
     13  CZ3      -21.9230  -31.4560   -8.1100 C.ar  119  TRP119      0.0001
     14  CH2      -22.0720  -32.3390   -9.1860 C.ar  119  TRP119      0.0015
     15  N        -20.0580  -26.4130   -5.0420 N.3   123  ALA123     -0.1231
     16  CA       -20.4430  -27.5060   -4.1560 C.3   123  ALA123      0.1694
     17  C        -19.3640  -28.5650   -3.9570 C.2   123  ALA123      0.2591
     18  O        -19.4460  -29.3300   -2.9900 O.2   123  ALA123     -0.2718
     19  CB       -21.7120  -28.1820   -4.6790 C.3   123  ALA123      0.0304
     20  N        -18.3620  -28.6330   -4.8290 N.am  124  ILE124     -0.1980
     21  CA       -17.3750  -29.7050   -4.7640 C.3   124  ILE124      0.1595
     22  C        -15.9730  -29.1400   -4.5810 C.2   124  ILE124      0.2287
     23  O        -15.3070  -29.4190   -3.5790 O.2   124  ILE124     -0.2864
     24  CB       -17.4430  -30.6030   -6.0140 C.3   124  ILE124      0.0276
     25  CG1      -18.8610  -31.1420   -6.2180 C.3   124  ILE124      0.0022
     26  CG2      -16.4420  -31.7400   -5.9030 C.3   124  ILE124      0.0022
     27  CD1      -19.3420  -32.0430   -5.1010 C.3   124  ILE124      0.0001
     28  N        -24.2660  -32.7640   13.1440 N.3   161  LEU161     -0.1245
     29  CA       -23.1420  -33.2540   12.3570 C.3   161  LEU161      0.1561
     30  C        -21.8500  -33.2860   13.1570 C.2   161  LEU161      0.2260
     31  O        -20.9340  -34.0350   12.8000 O.2   161  LEU161     -0.2867
     32  CB       -22.9680  -32.3850   11.1100 C.3   161  LEU161      0.0270
     33  CG       -22.4940  -33.0800    9.8350 C.3   161  LEU161      0.0019
     34  CD1      -23.2960  -34.3460    9.5680 C.3   161  LEU161      0.0001
     35  CD2      -22.5930  -32.1230    8.6560 C.3   161  LEU161      0.0001
     36  N        -18.6840  -36.1720   12.2550 N.3   165  MET165     -0.1245
     37  CA       -17.4810  -35.8130   11.5110 C.3   165  MET165      0.1570
     38  C        -16.7110  -34.6190   12.0730 C.2   165  MET165      0.2261
     39  O        -15.6540  -34.2780   11.5290 O.2   165  MET165     -0.2867
     40  CB       -17.8330  -35.5650   10.0420 C.3   165  MET165      0.0387
     41  CG       -18.3490  -36.8100    9.3380 C.3   165  MET165      0.0595
     42  SD       -18.5480  -36.6190    7.5570 S.3   165  MET165     -0.1393
     43  CE       -20.3320  -36.5720    7.4240 C.3   165  MET165      0.0692
     44  N        -16.3660  -30.4950    9.5280 N.3   169  ALA169     -0.1245
     45  CA       -17.3970  -30.9170    8.5880 C.3   169  ALA169      0.1562
     46  C        -18.4400  -29.8270    8.3890 C.2   169  ALA169      0.2260
     47  O        -18.9580  -29.6530    7.2800 O.2   169  ALA169     -0.2867
     48  CB       -18.0610  -32.2000    9.0770 C.3   169  ALA169      0.0290
     49  N        -16.9970  -27.4480    6.0850 N.3   172  PHE172     -0.1227
     50  CA       -17.1290  -28.0420    4.7600 C.3   172  PHE172      0.1736
     51  C        -18.5400  -27.8650    4.2100 C.2   172  PHE172      0.2595
     52  O        -18.7260  -27.4680    3.0540 O.2   172  PHE172     -0.2718
     53  CB       -16.7560  -29.5210    4.8550 C.3   172  PHE172      0.0547
     54  CG       -16.6170  -30.2130    3.5370 C.ar  172  PHE172     -0.0202
     55  CD1      -17.7240  -30.7460    2.9010 C.ar  172  PHE172     -0.0042
     56  CD2      -15.3750  -30.3630    2.9470 C.ar  172  PHE172     -0.0042
     57  CE1      -17.5970  -31.4000    1.6930 C.ar  172  PHE172     -0.0003
     58  CE2      -15.2440  -31.0160    1.7390 C.ar  172  PHE172     -0.0003
     59  CZ       -16.3560  -31.5350    1.1130 C.ar  172  PHE172     -0.0000
     60  N        -19.5500  -28.1510    5.0330 N.am  173  LEU173     -0.1980
     61  CA       -20.9290  -28.1260    4.5570 C.3   173  LEU173      0.1596
     62  C        -21.4380  -26.7010    4.3620 C.2   173  LEU173      0.2287
     63  O        -22.1860  -26.4310    3.4140 O.2   173  LEU173     -0.2864
     64  CB       -21.8230  -28.8920    5.5320 C.3   173  LEU173      0.0297
     65  CG       -23.3000  -29.0030    5.1590 C.3   173  LEU173      0.0022
     66  CD1      -23.4650  -29.7220    3.8300 C.3   173  LEU173      0.0001
     67  CD2      -24.0620  -29.7190    6.2550 C.3   173  LEU173      0.0001
     68  N        -20.3490  -25.4060    1.2760 N.3   176  MET176     -0.1245
     69  CA       -21.0840  -26.1140    0.2370 C.3   176  MET176      0.1570
     70  C        -22.4750  -25.5160    0.0420 C.2   176  MET176      0.2261
     71  O        -22.8850  -25.2250   -1.0880 O.2   176  MET176     -0.2867
     72  CB       -21.1710  -27.5850    0.6270 C.3   176  MET176      0.0387
     73  CG       -21.5460  -28.5550   -0.4540 C.3   176  MET176      0.0595
     74  SD       -21.4550  -30.2050    0.2690 S.3   176  MET176     -0.1393
     75  CE       -21.7600  -31.2060   -1.1650 C.3   176  MET176      0.0692
     76  N        -24.1520  -23.2580   -3.3150 N.3   180  LEU180     -0.1245
     77  CA       -25.3760  -23.5300   -4.0590 C.3   180  LEU180      0.1561
     78  C        -26.3360  -22.3470   -3.9920 C.2   180  LEU180      0.2260
     79  O        -27.0270  -22.0420   -4.9710 O.2   180  LEU180     -0.2867
     80  CB       -26.0420  -24.7940   -3.5210 C.3   180  LEU180      0.0270
     81  CG       -25.2240  -26.0670   -3.7290 C.3   180  LEU180      0.0019
     82  CD1      -25.8720  -27.2370   -3.0170 C.3   180  LEU180      0.0001
     83  CD2      -25.0450  -26.3480   -5.2070 C.3   180  LEU180      0.0001
     84  N        -24.7820  -19.6900   -6.2050 N.3   183  LEU183     -0.1245
     85  CA       -25.0020  -20.1440   -7.5730 C.3   183  LEU183      0.1561
     86  C        -26.4550  -19.9550   -7.9940 C.2   183  LEU183      0.2260
     87  O        -26.7310  -19.5490   -9.1290 O.2   183  LEU183     -0.2867
     88  CB       -24.5920  -21.6110   -7.7070 C.3   183  LEU183      0.0270
     89  CG       -24.7930  -22.2640   -9.0760 C.3   183  LEU183      0.0019
     90  CD1      -23.7070  -21.8300  -10.0490 C.3   183  LEU183      0.0001
     91  CD2      -24.8500  -23.7790   -8.9560 C.3   183  LEU183      0.0001
     92  N        -31.5630  -19.7060  -10.9600 N.3   189  ASN189     -0.1240
     93  CA       -32.0260  -21.0780  -11.1110 C.3   189  ASN189      0.1653
     94  C        -32.3470  -21.6310   -9.7290 C.2   189  ASN189      0.2266
     95  O        -31.5110  -21.5640   -8.8240 O.2   189  ASN189     -0.2867
     96  CB       -30.9720  -21.9380  -11.8240 C.3   189  ASN189      0.1155
     97  CG       -31.4630  -23.3430  -12.1240 C.2   189  ASN189      0.2627
     98  OD1      -32.6250  -23.6750  -11.8890 O.2   189  ASN189     -0.2716
     99  ND2      -30.5790  -24.1710  -12.6660 N.am  189  ASN189     -0.0877
    100  N        -32.9570  -24.8150   -8.9030 N.3   191  ARG191     -0.1231
    101  CA       -32.4660  -26.1620   -8.6160 C.3   191  ARG191      0.1679
    102  C        -31.3860  -26.1880   -7.5380 C.2   191  ARG191      0.2434
    103  O        -31.4830  -27.0250   -6.6220 O.2   191  ARG191     -0.2733
    104  CB       -31.9830  -26.8150   -9.9140 C.3   191  ARG191      0.0321
    105  CG       -33.1010  -27.3430  -10.7780 C.3   191  ARG191      0.0489
    106  CD       -32.5970  -27.6760  -12.1560 C.3   191  ARG191      0.2205
    107  NE       -33.6990  -27.7450  -13.1030 N.pl3 191  ARG191     -0.0865
    108  CZ       -34.2320  -26.6790  -13.6870 C.cat 191  ARG191      0.5346
    109  NH1      -33.7560  -25.4730  -13.4130 N.pl3 191  ARG191      0.1354
    110  NH2      -35.2350  -26.8180  -14.5390 N.pl3 191  ARG191      0.1354
    111  N        -30.3480  -25.3440   -7.5730 N.am  192  PRO192     -0.2729
    112  CA       -29.3990  -25.3320   -6.4470 C.3   192  PRO192      0.1401
    113  C        -30.0410  -24.9480   -5.1280 C.2   192  PRO192      0.2269
    114  O        -29.5810  -25.4060   -4.0740 O.2   192  PRO192     -0.2865
    115  CB       -28.3420  -24.3090   -6.8880 C.3   192  PRO192      0.0296
    116  CG       -28.4450  -24.2780   -8.3650 C.3   192  PRO192      0.0237
    117  CD       -29.8990  -24.4520   -8.6570 C.3   192  PRO192      0.0939
    118  N        -31.4580  -28.1480   -3.6800 N.3   195  VAL195     -0.1245
    119  CA       -30.3440  -28.9500   -3.1810 C.3   195  VAL195      0.1561
    120  C        -29.7820  -28.3590   -1.8930 C.2   195  VAL195      0.2260
    121  O        -29.5320  -29.0750   -0.9150 O.2   195  VAL195     -0.2867
    122  CB       -29.2580  -29.0770   -4.2610 C.3   195  VAL195      0.0252
    123  CG1      -28.1220  -29.9170   -3.7450 C.3   195  VAL195      0.0019
    124  CG2      -29.8490  -29.6840   -5.5160 C.3   195  VAL195      0.0019
    125  N        -29.6040  -30.2510    1.4040 N.3   199  LEU199     -0.1245
    126  CA       -28.3150  -30.4530    2.0560 C.3   199  LEU199      0.1561
    127  C        -28.2900  -29.8150    3.4410 C.2   199  LEU199      0.2260
    128  O        -27.6500  -30.3370    4.3610 O.2   199  LEU199     -0.2867
    129  CB       -27.1870  -29.9040    1.1840 C.3   199  LEU199      0.0270
    130  CG       -26.7890  -30.7610   -0.0190 C.3   199  LEU199      0.0019
    131  CD1      -25.6240  -30.1220   -0.7510 C.3   199  LEU199      0.0001
    132  CD2      -26.4360  -32.1750    0.4210 C.3   199  LEU199      0.0001
    133  N        -13.5840  -36.8560    7.0670 N.3   489  LEU489     -0.1245
    134  CA       -13.6390  -35.5920    6.3410 C.3   489  LEU489      0.1561
    135  C        -12.5190  -35.4830    5.3160 C.2   489  LEU489      0.2260
    136  O        -12.7450  -35.0360    4.1850 O.2   489  LEU489     -0.2867
    137  CB       -13.5570  -34.4240    7.3200 C.3   489  LEU489      0.0270
    138  CG       -13.5580  -33.0480    6.6550 C.3   489  LEU489      0.0019
    139  CD1      -14.9400  -32.6810    6.1300 C.3   489  LEU489      0.0001
    140  CD2      -13.0340  -32.0070    7.6130 C.3   489  LEU489      0.0001
    141  N        -13.2690  -37.7130    2.4410 N.3   492  LEU492     -0.1245
    142  CA       -14.2540  -36.9980    1.6380 C.3   492  LEU492      0.1561
    143  C        -13.6100  -35.8270    0.9140 C.2   492  LEU492      0.2260
    144  O        -13.8990  -35.5770   -0.2630 O.2   492  LEU492     -0.2867
    145  CB       -15.4030  -36.5120    2.5160 C.3   492  LEU492      0.0270
    146  CG       -16.4250  -35.6100    1.8260 C.3   492  LEU492      0.0019
    147  CD1      -17.2470  -36.4210    0.8400 C.3   492  LEU492      0.0001
    148  CD2      -17.3180  -34.9180    2.8360 C.3   492  LEU492      0.0001
    149  N        -13.7090  -35.4800   -3.0240 N.3   496  PHE496     -0.1241
    150  CA       -14.1830  -34.2570   -3.6680 C.3   496  PHE496      0.1605
    151  C        -13.0640  -33.5850   -4.4520 C.2   496  PHE496      0.2264
    152  O        -13.2520  -33.1790   -5.6050 O.2   496  PHE496     -0.2867
    153  CB       -14.7680  -33.3000   -2.6290 C.3   496  PHE496      0.0534
    154  CG       -16.2250  -33.5250   -2.3500 C.ar  496  PHE496     -0.0203
    155  CD1      -16.7690  -34.7950   -2.4510 C.ar  496  PHE496     -0.0042
    156  CD2      -17.0550  -32.4710   -1.9910 C.ar  496  PHE496     -0.0042
    157  CE1      -18.1160  -35.0140   -2.1970 C.ar  496  PHE496     -0.0003
    158  CE2      -18.4050  -32.6820   -1.7290 C.ar  496  PHE496     -0.0003
    159  CZ       -18.9350  -33.9570   -1.8340 C.ar  496  PHE496     -0.0000
@<TRIPOS>BOND
     1   110   108    1
     2   108   109    1
     3   108   107    2
     4   107   106    1
     5    99    97   am
     6   106   105    1
     7    97    98    2
     8    97    96    1
     9    96    93    1
    10     9     7   ar
    11     9    10   ar
    12     7     6   ar
    13    93    92    1
    14    93    94    1
    15   105   104    1
    16    10    12   ar
    17    10     8   ar
    18     1     2    1
    19    12    14   ar
    20    90    89    1
    21   104   101    1
    22     6     8   ar
    23     6     5    1
    24    94    95    2
    25     8    11   ar
    26    14    13   ar
    27    87    86    2
    28     2     5    1
    29     2     3    1
    30    89    91    1
    31    89    88    1
    32   100   101    1
    33     3     4    2
    34   117   116    1
    35   117   111    1
    36   101   102    1
    37   116   115    1
    38    11    13   ar
    39    86    85    1
    40    88    85    1
    41   111   102   am
    42   111   112    1
    43    85    84    1
    44   102   103    2
    45   115   112    1
    46   112   113    1
    47    25    24    1
    48    25    27    1
    49    24    26    1
    50    24    21    1
    51   152   151    2
    52   124   122    1
    53    83    81    1
    54   113   114    2
    55    15    16    1
    56    79    78    2
    57    20    21    1
    58    20    17   am
    59    21    22    1
    60    19    16    1
    61    22    23    2
    62   151   150    1
    63   122   123    1
    64   122   119    1
    65    16    17    1
    66    77    78    1
    67    77    80    1
    68    77    76    1
    69    17    18    2
    70    81    80    1
    71    81    82    1
    72   118   119    1
    73   150   149    1
    74   150   153    1
    75   119   120    1
    76   153   154    1
    77   155   154   ar
    78   155   157   ar
    79   154   156   ar
    80   157   159   ar
    81   156   158   ar
    82   120   121    2
    83   159   158   ar
    84    75    74    1
    85    71    70    2
    86   131   130    1
    87    73    74    1
    88    73    72    1
    89   144   143    2
    90   130   132    1
    91   130   129    1
    92    70    69    1
    93    69    72    1
    94    69    68    1
    95   147   146    1
    96   143   142    1
    97    59    57   ar
    98    59    58   ar
    99   129   126    1
   100   125   126    1
   101   142   141    1
   102   142   145    1
   103    57    55   ar
   104    58    56   ar
   105   146   145    1
   106   146   148    1
   107   126   127    1
   108    55    54   ar
   109    56    54   ar
   110    52    51    2
   111    63    62    2
   112   127   128    2
   113    54    53    1
   114    66    65    1
   115   136   135    2
   116    51    50    1
   117    51    60   am
   118    62    61    1
   119    61    60    1
   120    61    64    1
   121    50    53    1
   122    50    49    1
   123    65    64    1
   124    65    67    1
   125   135   134    1
   126   139   138    1
   127   134   133    1
   128   134   137    1
   129   138   137    1
   130   138   140    1
   131    47    46    2
   132    43    42    1
   133    42    41    1
   134    46    45    1
   135    45    48    1
   136    45    44    1
   137    35    33    1
   138    41    40    1
   139    34    33    1
   140    33    32    1
   141    40    37    1
   142    32    29    1
   143    37    38    1
   144    37    36    1
   145    39    38    2
   146    29    28    1
   147    29    30    1
   148    31    30    2
