@<TRIPOS>MOLECULE
tmp/5n6lA00.pdb
 109 105 0 0 0
SMALL
GASTEIGER

@<TRIPOS>ATOM
      1  N        -15.1830   -6.7890    1.3720 N.3    16  LEU16      -0.1231
      2  CA       -14.8530   -6.2740    2.6940 C.3    16  LEU16       0.1693
      3  C        -16.0620   -6.3300    3.6200 C.2    16  LEU16       0.2591
      4  O        -15.9340   -6.6620    4.8040 O.2    16  LEU16      -0.2718
      5  CB       -14.3310   -4.8440    2.5560 C.3    16  LEU16       0.0284
      6  CG       -13.6810   -4.1470    3.7460 C.3    16  LEU16       0.0019
      7  CD1      -12.4630   -4.9200    4.2130 C.3    16  LEU16       0.0001
      8  CD2      -13.3000   -2.7290    3.3600 C.3    16  LEU16       0.0001
      9  N        -17.2460   -6.0130    3.0920 N.am   17  LEU17      -0.1980
     10  CA       -18.4500   -5.9630    3.9160 C.3    17  LEU17       0.1596
     11  C        -18.9400   -7.3610    4.2840 C.2    17  LEU17       0.2287
     12  O        -19.2810   -7.6230    5.4440 O.2    17  LEU17      -0.2864
     13  CB       -19.5310   -5.1800    3.1750 C.3    17  LEU17       0.0297
     14  CG       -19.3230   -3.6610    3.2380 C.3    17  LEU17       0.0022
     15  CD1      -20.3000   -2.9260    2.3310 C.3    17  LEU17       0.0001
     16  CD2      -19.4030   -3.1410    4.6690 C.3    17  LEU17       0.0001
     17  N        -16.7550   -8.8610    6.9480 N.3    20  ALA20      -0.1245
     18  CA       -17.1770   -8.3210    8.2360 C.3    20  ALA20       0.1562
     19  C        -18.4960   -8.9270    8.6950 C.2    20  ALA20       0.2260
     20  O        -18.7250   -9.0750    9.9010 O.2    20  ALA20      -0.2867
     21  CB       -17.2890   -6.7990    8.1470 C.3    20  ALA20       0.0290
     22  N         -9.9060   -9.9000    4.9990 N.3    63  PHE63      -0.1227
     23  CA        -9.5610   -8.7090    5.7640 C.3    63  PHE63       0.1736
     24  C        -10.7800   -8.1670    6.4990 C.2    63  PHE63       0.2596
     25  O        -10.6770   -7.7170    7.6470 O.2    63  PHE63      -0.2718
     26  CB        -8.9680   -7.6520    4.8350 C.3    63  PHE63       0.0547
     27  CG        -8.1410   -6.6270    5.5420 C.ar   63  PHE63      -0.0202
     28  CD1       -6.8330   -6.9130    5.8930 C.ar   63  PHE63      -0.0042
     29  CD2       -8.6630   -5.3890    5.8710 C.ar   63  PHE63      -0.0042
     30  CE1       -6.0580   -5.9840    6.5500 C.ar   63  PHE63      -0.0003
     31  CE2       -7.8920   -4.4540    6.5300 C.ar   63  PHE63      -0.0003
     32  CZ        -6.5870   -4.7520    6.8710 C.ar   63  PHE63      -0.0000
     33  N        -11.9410   -8.1850    5.8450 N.am   64  GLY64      -0.1957
     34  CA       -13.1640   -7.8070    6.5290 C.3    64  GLY64       0.1869
     35  C        -13.5060   -8.7610    7.6550 C.2    64  GLY64       0.2309
     36  O        -13.9860   -8.3430    8.7110 O.2    64  GLY64      -0.2863
     37  N        -10.0950   -8.6360   10.1960 N.3    67  GLY67      -0.1210
     38  CA        -9.9660   -7.2990   10.7540 C.3    67  GLY67       0.1956
     39  C        -11.0690   -6.9620   11.7400 C.2    67  GLY67       0.2612
     40  O        -10.8210   -6.3410   12.7750 O.2    67  GLY67      -0.2717
     41  N        -12.3040   -7.3580   11.4310 N.am   68  SER68      -0.1952
     42  CA       -13.4010   -7.1110   12.3580 C.3    68  SER68       0.1924
     43  C        -13.4400   -8.1330   13.4890 C.2    68  SER68       0.2314
     44  O        -13.7990   -7.7910   14.6210 O.2    68  SER68      -0.2863
     45  CB       -14.7280   -7.1090   11.6040 C.3    68  SER68       0.2116
     46  OG       -14.8890   -8.3120   10.8760 O.3    68  SER68      -0.2180
     47  N         -9.6570   -8.1330   15.7880 N.3    71  ASN71      -0.1225
     48  CA        -9.0900   -6.8580   16.2190 C.3    71  ASN71       0.1785
     49  C         -8.8780   -6.7720   17.7260 C.2    71  ASN71       0.2597
     50  O         -8.1750   -5.8630   18.1810 O.2    71  ASN71      -0.2718
     51  CB        -9.9820   -5.6890   15.7740 C.3    71  ASN71       0.1169
     52  CG       -11.4270   -5.8270   16.2400 C.2    71  ASN71       0.2627
     53  OD1      -11.7460   -6.6550   17.0930 O.2    71  ASN71      -0.2716
     54  ND2      -12.3060   -5.0020   15.6800 N.am   71  ASN71      -0.0877
     55  N         -9.4580   -7.6870   18.5040 N.am   72  TRP72      -0.1976
     56  CA        -9.2810   -7.6910   19.9500 C.3    72  TRP72       0.1640
     57  C         -7.8680   -8.0530   20.3940 C.2    72  TRP72       0.2290
     58  O         -7.5480   -7.8470   21.5660 O.2    72  TRP72      -0.2864
     59  CB       -10.2820   -8.6440   20.6000 C.3    72  TRP72       0.0576
     60  CG       -10.3120  -10.0000   19.9870 C.ar   72  TRP72       0.0006
     61  CD1      -11.1350  -10.4230   18.9880 C.ar   72  TRP72       0.0946
     62  CD2       -9.4750  -11.1150   20.3200 C.ar   72  TRP72       0.0152
     63  NE1      -10.8730  -11.7380   18.6840 N.ar   72  TRP72      -0.2442
     64  CE2       -9.8560  -12.1850   19.4860 C.ar   72  TRP72       0.0810
     65  CE3       -8.4450  -11.3130   21.2440 C.ar   72  TRP72       0.0012
     66  CZ2       -9.2420  -13.4360   19.5490 C.ar   72  TRP72       0.0191
     67  CZ3       -7.8370  -12.5540   21.3060 C.ar   72  TRP72       0.0001
     68  CH2       -8.2360  -13.6000   20.4640 C.ar   72  TRP72       0.0015
     69  N         -5.4400   -6.4160   19.8040 N.3    74  TYR74      -0.1227
     70  CA        -4.7750   -5.1370   20.0160 C.3    74  TYR74       0.1736
     71  C         -4.5650   -4.8550   21.4960 C.2    74  TYR74       0.2595
     72  O         -3.5340   -4.2970   21.8890 O.2    74  TYR74      -0.2718
     73  CB        -5.6000   -4.0220   19.3790 C.3    74  TYR74       0.0548
     74  CG        -5.1430   -2.6260   19.7350 C.ar   74  TYR74      -0.0200
     75  CD1       -4.0510   -2.0540   19.0990 C.ar   74  TYR74      -0.0009
     76  CD2       -5.7910   -1.8870   20.7190 C.ar   74  TYR74      -0.0009
     77  CE1       -3.6310   -0.7780   19.4170 C.ar   74  TYR74       0.0417
     78  CE2       -5.3710   -0.6110   21.0490 C.ar   74  TYR74       0.0417
     79  CZ        -4.2890   -0.0630   20.3950 C.ar   74  TYR74       0.1957
     80  OH        -3.8680    1.2070   20.7200 O.3    74  TYR74      -0.2866
     81  N         -5.5400   -5.2190   22.3310 N.am   75  VAL75      -0.1980
     82  CA        -5.4820   -4.8450   23.7400 C.3    75  VAL75       0.1595
     83  C         -4.3340   -5.5480   24.4500 C.2    75  VAL75       0.2287
     84  O         -3.7830   -5.0200   25.4240 O.2    75  VAL75      -0.2864
     85  CB        -6.8270   -5.1530   24.4160 C.3    75  VAL75       0.0276
     86  CG1       -7.9490   -4.3750   23.7500 C.3    75  VAL75       0.0022
     87  CG2       -7.1020   -6.6290   24.3410 C.3    75  VAL75       0.0022
     88  N         -1.5020   -0.6520   16.1870 N.3    89  ILE89      -0.1245
     89  CA        -2.5040   -0.7400   15.1270 C.3    89  ILE89       0.1561
     90  C         -1.8950   -1.3670   13.8820 C.2    89  ILE89       0.2260
     91  O         -2.5420   -2.1580   13.1840 O.2    89  ILE89      -0.2867
     92  CB        -3.1080    0.6450   14.8280 C.3    89  ILE89       0.0252
     93  CG1       -3.7800    1.2120   16.0780 C.3    89  ILE89       0.0019
     94  CG2       -4.0910    0.5590   13.6690 C.3    89  ILE89       0.0019
     95  CD1       -4.5320    2.4920   15.8260 C.3    89  ILE89       0.0001
     96  N         -1.7690   -5.1230   14.3210 N.3    92  VAL92      -0.1231
     97  CA        -3.0730   -5.7740   14.2190 C.3    92  VAL92       0.1692
     98  C         -3.5030   -5.8880   12.7630 C.2    92  VAL92       0.2591
     99  O         -3.9750   -6.9420   12.3180 O.2    92  VAL92      -0.2718
    100  CB        -4.1170   -5.0210   15.0600 C.3    92  VAL92       0.0266
    101  CG1       -5.5200   -5.5380   14.7560 C.3    92  VAL92       0.0020
    102  CG2       -3.8020   -5.1750   16.5300 C.3    92  VAL92       0.0020
    103  N         -3.3600   -4.8010   12.0020 N.am   93  VAL93      -0.1980
    104  CA        -3.6380   -4.8560   10.5680 C.3    93  VAL93       0.1595
    105  C         -2.7460   -5.8890    9.8980 C.2    93  VAL93       0.2287
    106  O         -3.1730   -6.6010    8.9810 O.2    93  VAL93      -0.2864
    107  CB        -3.4630   -3.4630    9.9390 C.3    93  VAL93       0.0276
    108  CG1       -3.6300   -3.5400    8.4320 C.3    93  VAL93       0.0022
    109  CG2       -4.4530   -2.4910   10.5410 C.3    93  VAL93       0.0022
@<TRIPOS>BOND
     1     1     2    1
     2    15    14    1
     3     5     2    1
     4     5     6    1
     5     2     3    1
     6     9     3   am
     7     9    10    1
     8    13    14    1
     9    13    10    1
    10    14    16    1
    11     8     6    1
    12     3     4    2
    13     6     7    1
    14    10    11    1
    15    11    12    2
    16    26    27    1
    17    26    23    1
    18    22    23    1
    19    27    29   ar
    20    27    28   ar
    21    23    24    1
    22    33    24   am
    23    33    34    1
    24    29    31   ar
    25    28    30   ar
    26    24    25    2
    27    34    35    1
    28    31    32   ar
    29    30    32   ar
    30    17    18    1
    31    35    36    2
    32    21    18    1
    33    18    19    1
    34   108   107    1
    35    19    20    2
    36   106   105    2
    37   105   104    1
    38   107   109    1
    39   107   104    1
    40    37    38    1
    41   104   103    1
    42    38    39    1
    43    46    45    1
    44    41    39   am
    45    41    42    1
    46    45    42    1
    47    39    40    2
    48   103    98   am
    49    99    98    2
    50    42    43    1
    51    98    97    1
    52    91    90    2
    53    43    44    2
    54    94    92    1
    55    90    89    1
    56    97    96    1
    57    97   100    1
    58   101   100    1
    59    92    89    1
    60    92    93    1
    61   100   102    1
    62    89    88    1
    63    54    52   am
    64    51    48    1
    65    51    52    1
    66    47    48    1
    67    95    93    1
    68    48    49    1
    69    52    53    2
    70    49    50    2
    71    49    55   am
    72    55    56    1
    73    63    61   ar
    74    63    64   ar
    75    61    60   ar
    76    75    77   ar
    77    75    74   ar
    78    73    74    1
    79    73    70    1
    80    77    79   ar
    81    64    66   ar
    82    64    62   ar
    83    66    68   ar
    84    74    76   ar
    85    69    70    1
    86    56    57    1
    87    56    59    1
    88    60    62   ar
    89    60    59    1
    90    70    71    1
    91    62    65   ar
    92    57    58    2
    93    79    80    1
    94    79    78   ar
    95    68    67   ar
    96    76    78   ar
    97    65    67   ar
    98    71    72    2
    99    71    81   am
   100    81    82    1
   101    82    85    1
   102    82    83    1
   103    86    85    1
   104    87    85    1
   105    83    84    2
