@<TRIPOS>MOLECULE
tmp/5n6lA15.pdb
 117 112 0 0 0
SMALL
GASTEIGER

@<TRIPOS>ATOM
      1  N        -24.2660  -32.7640   13.1440 N.3   161  LEU161     -0.1245
      2  CA       -23.1420  -33.2540   12.3570 C.3   161  LEU161      0.1561
      3  C        -21.8500  -33.2860   13.1570 C.2   161  LEU161      0.2260
      4  O        -20.9340  -34.0350   12.8000 O.2   161  LEU161     -0.2867
      5  CB       -22.9680  -32.3850   11.1100 C.3   161  LEU161      0.0270
      6  CG       -22.4940  -33.0800    9.8350 C.3   161  LEU161      0.0019
      7  CD1      -23.2960  -34.3460    9.5680 C.3   161  LEU161      0.0001
      8  CD2      -22.5930  -32.1230    8.6560 C.3   161  LEU161      0.0001
      9  N        -20.3600  -36.5080   14.7650 N.3   164  ILE164     -0.1231
     10  CA       -20.0210  -37.5340   13.7850 C.3   164  ILE164      0.1692
     11  C        -18.6980  -37.2010   13.1040 C.2   164  ILE164      0.2591
     12  O        -17.6880  -37.8730   13.3380 O.2   164  ILE164     -0.2718
     13  CB       -21.1550  -37.7120   12.7590 C.3   164  ILE164      0.0266
     14  CG1      -22.5100  -37.7720   13.4720 C.3   164  ILE164      0.0019
     15  CG2      -20.9390  -38.9640   11.9280 C.3   164  ILE164      0.0020
     16  CD1      -23.6670  -38.0820   12.5600 C.3   164  ILE164      0.0001
     17  N        -18.6840  -36.1720   12.2550 N.am  165  MET165     -0.1979
     18  CA       -17.4810  -35.8130   11.5110 C.3   165  MET165      0.1605
     19  C        -16.7110  -34.6190   12.0730 C.2   165  MET165      0.2287
     20  O        -15.6540  -34.2780   11.5290 O.2   165  MET165     -0.2864
     21  CB       -17.8330  -35.5650   10.0420 C.3   165  MET165      0.0413
     22  CG       -18.3490  -36.8100    9.3380 C.3   165  MET165      0.0598
     23  SD       -18.5480  -36.6190    7.5570 S.3   165  MET165     -0.1393
     24  CE       -20.3320  -36.5720    7.4240 C.3   165  MET165      0.0692
     25  N        -29.6040  -30.2510    1.4040 N.3   199  LEU199     -0.1245
     26  CA       -28.3150  -30.4530    2.0560 C.3   199  LEU199      0.1561
     27  C        -28.2900  -29.8150    3.4410 C.2   199  LEU199      0.2260
     28  O        -27.6500  -30.3370    4.3610 O.2   199  LEU199     -0.2867
     29  CB       -27.1870  -29.9040    1.1840 C.3   199  LEU199      0.0270
     30  CG       -26.7890  -30.7610   -0.0190 C.3   199  LEU199      0.0019
     31  CD1      -25.6240  -30.1220   -0.7510 C.3   199  LEU199      0.0001
     32  CD2      -26.4360  -32.1750    0.4210 C.3   199  LEU199      0.0001
     33  N        -31.2420  -31.9280    5.8740 N.3   202  LEU202     -0.1231
     34  CA       -31.0060  -33.3310    6.2060 C.3   202  LEU202      0.1678
     35  C        -30.2250  -33.5460    7.5000 C.2   202  LEU202      0.2434
     36  O        -30.5670  -34.4860    8.2360 O.2   202  LEU202     -0.2733
     37  CB       -30.3080  -34.0330    5.0320 C.3   202  LEU202      0.0284
     38  CG       -31.1600  -34.2470    3.7830 C.3   202  LEU202      0.0019
     39  CD1      -30.3200  -34.9060    2.7220 C.3   202  LEU202      0.0001
     40  CD2      -32.3940  -35.0770    4.0890 C.3   202  LEU202      0.0001
     41  N        -29.1790  -32.7790    7.8280 N.am  203  PRO203     -0.2729
     42  CA       -28.4850  -33.0110    9.1070 C.3   203  PRO203      0.1401
     43  C        -29.3150  -32.6770   10.3390 C.2   203  PRO203      0.2269
     44  O        -28.9110  -33.0610   11.4450 O.2   203  PRO203     -0.2865
     45  CB       -27.2530  -32.1040    9.0110 C.3   203  PRO203      0.0296
     46  CG       -27.0510  -31.9090    7.5510 C.3   203  PRO203      0.0237
     47  CD       -28.4220  -31.8480    6.9750 C.3   203  PRO203      0.0939
     48  N        -30.1010  -35.3000   12.9380 N.3   206  LEU206     -0.1245
     49  CA       -28.9380  -35.8790   13.5990 C.3   206  LEU206      0.1561
     50  C        -28.6500  -35.2580   14.9610 C.2   206  LEU206      0.2260
     51  O        -27.8650  -35.8290   15.7250 O.2   206  LEU206     -0.2867
     52  CB       -27.7090  -35.7370   12.7020 C.3   206  LEU206      0.0270
     53  CG       -27.7990  -36.4440   11.3470 C.3   206  LEU206      0.0019
     54  CD1      -26.5010  -36.2700   10.5820 C.3   206  LEU206      0.0001
     55  CD2      -28.1450  -37.9160   11.5090 C.3   206  LEU206      0.0001
     56  N        -29.6620  -37.5570   17.9770 N.3   209  ILE209     -0.1245
     57  CA       -28.8920  -38.7380   18.3350 C.3   209  ILE209      0.1561
     58  C        -28.0950  -38.4340   19.5960 C.2   209  ILE209      0.2260
     59  O        -27.4810  -37.3650   19.7220 O.2   209  ILE209     -0.2867
     60  CB       -27.9580  -39.1480   17.1810 C.3   209  ILE209      0.0252
     61  CG1      -28.7320  -39.3030   15.8670 C.3   209  ILE209      0.0019
     62  CG2      -27.2360  -40.4420   17.5160 C.3   209  ILE209      0.0019
     63  CD1      -27.8940  -39.8490   14.7160 C.3   209  ILE209      0.0001
     64  N        -24.9990  -40.1010   21.3810 N.3   211  TRP211     -0.1241
     65  CA       -23.9410  -41.0970   21.2960 C.3   211  TRP211      0.1605
     66  C        -23.3620  -41.4420   22.6550 C.2   211  TRP211      0.2264
     67  O        -22.5230  -42.3430   22.7470 O.2   211  TRP211     -0.2867
     68  CB       -22.8250  -40.6030   20.3730 C.3   211  TRP211      0.0550
     69  CG       -23.2490  -40.5120   18.9490 C.ar  211  TRP211      0.0003
     70  CD1      -23.5530  -39.3810   18.2480 C.ar  211  TRP211      0.0946
     71  CD2      -23.4400  -41.6070   18.0490 C.ar  211  TRP211      0.0152
     72  NE1      -23.9130  -39.7060   16.9610 N.ar  211  TRP211     -0.2442
     73  CE2      -23.8520  -41.0670   16.8150 C.ar  211  TRP211      0.0810
     74  CE3      -23.2980  -42.9930   18.1670 C.ar  211  TRP211      0.0012
     75  CZ2      -24.1250  -41.8670   15.7060 C.ar  211  TRP211      0.0191
     76  CZ3      -23.5690  -43.7860   17.0640 C.ar  211  TRP211      0.0001
     77  CH2      -23.9770  -43.2210   15.8500 C.ar  211  TRP211      0.0015
     78  N        -19.1640  -43.1080   23.3030 N.3   478  LEU478     -0.1231
     79  CA       -18.1550  -42.8440   22.2820 C.3   478  LEU478      0.1693
     80  C        -18.8440  -42.3550   21.0160 C.2   478  LEU478      0.2593
     81  O        -19.6320  -43.0900   20.4110 O.2   478  LEU478     -0.2718
     82  CB       -17.3240  -44.0940   21.9830 C.3   478  LEU478      0.0284
     83  CG       -16.1380  -44.3900   22.9000 C.3   478  LEU478      0.0019
     84  CD1      -15.3970  -45.6250   22.4180 C.3   478  LEU478      0.0001
     85  CD2      -15.2100  -43.1920   22.9500 C.3   478  LEU478      0.0001
     86  N        -18.5480  -41.1230   20.6180 N.am  479  THR479     -0.1940
     87  CA       -19.0710  -40.5830   19.3740 C.3   479  THR479      0.2013
     88  C        -18.3000  -41.1370   18.1810 C.2   479  THR479      0.2484
     89  O        -17.1830  -41.6400   18.3310 O.2   479  THR479     -0.2729
     90  CB       -18.9630  -39.0640   19.3740 C.3   479  THR479      0.1807
     91  OG1      -17.5790  -38.6930   19.3950 O.3   479  THR479     -0.2208
     92  CG2      -19.6580  -38.4810   20.5820 C.3   479  THR479      0.0379
     93  N        -18.8870  -41.0780   16.9800 N.am  480  PRO480     -0.2726
     94  CA       -18.1040  -41.4220   15.7820 C.3   480  PRO480      0.1402
     95  C        -16.8420  -40.5900   15.6450 C.2   480  PRO480      0.2269
     96  O        -15.8010  -41.1140   15.2300 O.2   480  PRO480     -0.2865
     97  CB       -19.0920  -41.1680   14.6370 C.3   480  PRO480      0.0296
     98  CG       -20.4280  -41.3800   15.2480 C.3   480  PRO480      0.0237
     99  CD       -20.3120  -40.8730   16.6630 C.3   480  PRO480      0.0939
    100  N        -13.9160  -41.8470   17.7040 N.3   483  ARG483     -0.1231
    101  CA       -13.2830  -43.0370   17.1440 C.3   483  ARG483      0.1694
    102  C        -12.4430  -42.6980   15.9170 C.2   483  ARG483      0.2592
    103  O        -11.2320  -42.9530   15.8860 O.2   483  ARG483     -0.2718
    104  CB       -14.3570  -44.0670   16.7950 C.3   483  ARG483      0.0321
    105  CG       -13.8360  -45.2900   16.0840 C.3   483  ARG483      0.0489
    106  CD       -12.9110  -46.0840   16.9850 C.3   483  ARG483      0.2205
    107  NE       -12.4810  -47.3230   16.3450 N.pl3 483  ARG483     -0.0865
    108  CZ       -11.4130  -47.4250   15.5590 C.cat 483  ARG483      0.5346
    109  NH1      -10.6610  -46.3610   15.3170 N.pl3 483  ARG483      0.1354
    110  NH2      -11.0960  -48.5910   15.0130 N.pl3 483  ARG483      0.1354
    111  N        -13.0700  -42.1090   14.8980 N.am  484  THR484     -0.1953
    112  CA       -12.4050  -41.8610   13.6260 C.3   484  THR484      0.1897
    113  C        -11.5740  -40.5870   13.6050 C.2   484  THR484      0.2313
    114  O        -10.5930  -40.5200   12.8560 O.2   484  THR484     -0.2863
    115  CB       -13.4320  -41.8190   12.4890 C.3   484  THR484      0.1794
    116  OG1      -14.3240  -40.7190   12.6830 O.3   484  THR484     -0.2208
    117  CG2      -14.2120  -43.1200   12.4380 C.3   484  THR484      0.0378
@<TRIPOS>BOND
     1    31    30    1
     2    30    32    1
     3    30    29    1
     4    29    26    1
     5    25    26    1
     6    26    27    1
     7    39    38    1
     8    27    28    2
     9    38    40    1
    10    38    37    1
    11    37    34    1
    12    33    34    1
    13    34    35    1
    14    47    46    1
    15    47    41    1
    16    24    23    1
    17    35    41   am
    18    35    36    2
    19    46    45    1
    20    23    22    1
    21    41    42    1
    22     8     6    1
    23    45    42    1
    24    42    43    1
    25    22    21    1
    26     7     6    1
    27     6     5    1
    28    21    18    1
    29    43    44    2
    30    54    53    1
    31     5     2    1
    32    53    55    1
    33    53    52    1
    34    18    19    1
    35    18    17    1
    36    20    19    2
    37    15    13    1
    38    17    11   am
    39     2     1    1
    40     2     3    1
    41   117   115    1
    42   115   116    1
    43   115   112    1
    44    16    14    1
    45    52    49    1
    46    13    14    1
    47    13    10    1
    48     4     3    2
    49   114   113    2
    50    48    49    1
    51    11    12    2
    52    11    10    1
    53    49    50    1
    54   113   112    1
    55   112   111    1
    56    10     9    1
    57    97    98    1
    58    97    94    1
    59    63    61    1
    60   111   102   am
    61    50    51    2
    62   110   108    1
    63    96    95    2
    64    98    99    1
    65   109   108    1
    66   108   107    2
    67    95    94    1
    68    75    77   ar
    69    75    73   ar
    70    94    93    1
    71    77    76   ar
    72    61    60    1
    73   103   102    2
    74   102   101    1
    75   105   104    1
    76   105   106    1
    77   107   106    1
    78    99    93    1
    79   104   101    1
    80    73    72   ar
    81    73    71   ar
    82    72    70   ar
    83    93    88   am
    84    76    74   ar
    85   101   100    1
    86    60    62    1
    87    60    57    1
    88    56    57    1
    89    71    74   ar
    90    71    69   ar
    91    88    89    2
    92    88    87    1
    93    70    69   ar
    94    57    58    1
    95    69    68    1
    96    90    87    1
    97    90    91    1
    98    90    92    1
    99    87    86    1
   100    58    59    2
   101    68    65    1
   102    81    80    2
   103    86    80   am
   104    80    79    1
   105    65    64    1
   106    65    66    1
   107    82    79    1
   108    82    83    1
   109    79    78    1
   110    84    83    1
   111    66    67    2
   112    83    85    1
