@<TRIPOS>MOLECULE
tmp/5n6lB04.pdb
 86 80 0 0 0
SMALL
GASTEIGER

@<TRIPOS>ATOM
      1  N        -34.0550   21.2080   18.4230 N.3    50  ARG50      -0.1245
      2  CA       -34.7890   22.4610   18.3670 C.3    50  ARG50       0.1563
      3  C        -35.2530   22.7450   16.9370 C.2    50  ARG50       0.2260
      4  O        -34.6260   22.2960   15.9710 O.2    50  ARG50      -0.2867
      5  CB       -33.8890   23.5920   18.8470 C.3    50  ARG50       0.0307
      6  CG       -34.4960   24.6630   19.7550 C.3    50  ARG50       0.0489
      7  CD       -33.3520   25.4680   20.3750 C.3    50  ARG50       0.2205
      8  NE       -32.2680   25.6940   19.4190 N.pl3  50  ARG50      -0.0865
      9  CZ       -32.2610   26.6770   18.5250 C.cat  50  ARG50       0.5346
     10  NH1      -33.2810   27.5200   18.4680 N.pl3  50  ARG50       0.1354
     11  NH2      -31.2390   26.8210   17.6910 N.pl3  50  ARG50       0.1354
     12  N        -35.0480   25.2310   14.9350 N.3    52  LEU52      -0.1231
     13  CA       -34.0300   25.8240   14.0720 C.3    52  LEU52       0.1693
     14  C        -32.9840   24.8020   13.6460 C.2    52  LEU52       0.2591
     15  O        -32.7210   24.6380   12.4520 O.2    52  LEU52      -0.2718
     16  CB       -33.3390   27.0000   14.7710 C.3    52  LEU52       0.0284
     17  CG       -32.4400   27.8290   13.8430 C.3    52  LEU52       0.0019
     18  CD1      -33.1780   28.2530   12.5830 C.3    52  LEU52       0.0001
     19  CD2      -31.8150   29.0270   14.5650 C.3    52  LEU52       0.0001
     20  N        -32.3920   24.0890   14.6100 N.am   53  GLN53      -0.1979
     21  CA       -31.2910   23.1790   14.2970 C.3    53  GLN53       0.1601
     22  C        -31.7470   21.9790   13.4760 C.2    53  GLN53       0.2287
     23  O        -30.9660   21.4410   12.6820 O.2    53  GLN53      -0.2864
     24  CB       -30.5660   22.7550   15.5750 C.3    53  GLN53       0.0394
     25  CG       -31.4410   22.3100   16.7200 C.3    53  GLN53       0.0908
     26  CD       -30.6520   22.1380   18.0000 C.2    53  GLN53       0.2608
     27  OE1      -31.1660   21.6330   18.9950 O.2    53  GLN53      -0.2717
     28  NE2      -29.3920   22.5610   17.9810 N.am   53  GLN53      -0.0878
     29  N        -33.8300   21.9870   11.0280 N.3    55  ALA55      -0.1231
     30  CA       -33.7200   22.4360    9.6420 C.3    55  ALA55       0.1694
     31  C        -32.2840   22.3580    9.1350 C.2    55  ALA55       0.2591
     32  O        -32.0500   22.0270    7.9660 O.2    55  ALA55      -0.2718
     33  CB       -34.2540   23.8620    9.4980 C.3    55  ALA55       0.0304
     34  N        -31.3120   22.6860    9.9920 N.am   56  ALA56      -0.1980
     35  CA       -29.9060   22.5540    9.6170 C.3    56  ALA56       0.1597
     36  C        -29.5670   21.1080    9.2820 C.2    56  ALA56       0.2287
     37  O        -28.9170   20.8300    8.2680 O.2    56  ALA56      -0.2864
     38  CB       -29.0140   23.0740   10.7420 C.3    56  ALA56       0.0319
     39  N        -31.3410   20.4190    6.0200 N.3    59  PHE59      -0.1241
     40  CA       -30.5790   20.9740    4.9070 C.3    59  PHE59       0.1605
     41  C        -29.3330   20.1420    4.6320 C.2    59  PHE59       0.2264
     42  O        -29.0210   19.8320    3.4760 O.2    59  PHE59      -0.2867
     43  CB       -30.1970   22.4280    5.1870 C.3    59  PHE59       0.0534
     44  CG       -29.3740   23.0560    4.0940 C.ar   59  PHE59      -0.0203
     45  CD1      -27.9930   22.9320    4.0810 C.ar   59  PHE59      -0.0042
     46  CD2      -29.9880   23.7590    3.0700 C.ar   59  PHE59      -0.0042
     47  CE1      -27.2430   23.4970    3.0690 C.ar   59  PHE59      -0.0003
     48  CE2      -29.2420   24.3300    2.0570 C.ar   59  PHE59      -0.0003
     49  CZ       -27.8680   24.2000    2.0550 C.ar   59  PHE59      -0.0000
     50  N        -24.8780   25.7810   -5.4740 N.3    94  LEU94      -0.1245
     51  CA       -26.0750   26.6040   -5.3170 C.3    94  LEU94       0.1561
     52  C        -27.3420   25.8010   -5.5840 C.2    94  LEU94       0.2260
     53  O        -28.3310   25.9230   -4.8500 O.2    94  LEU94      -0.2867
     54  CB       -26.0070   27.8110   -6.2530 C.3    94  LEU94       0.0270
     55  CG       -27.1050   28.8650   -6.1020 C.3    94  LEU94       0.0019
     56  CD1      -26.8380   29.7420   -4.8950 C.3    94  LEU94       0.0001
     57  CD2      -27.2190   29.7090   -7.3640 C.3    94  LEU94       0.0001
     58  N        -28.1120   23.5540   -2.7580 N.3    97  ALA97      -0.1231
     59  CA       -28.6210   24.3170   -1.6220 C.3    97  ALA97       0.1694
     60  C        -30.1140   24.6020   -1.7600 C.2    97  ALA97       0.2592
     61  O        -30.8880   24.3720   -0.8220 O.2    97  ALA97      -0.2718
     62  CB       -27.8340   25.6200   -1.4800 C.3    97  ALA97       0.0304
     63  N        -30.5360   25.1220   -2.9180 N.am   98  TYR98      -0.1976
     64  CA       -31.9530   25.4080   -3.1310 C.3    98  TYR98       0.1639
     65  C        -32.8000   24.1580   -2.9410 C.2    98  TYR98       0.2290
     66  O        -33.8700   24.2080   -2.3230 O.2    98  TYR98      -0.2864
     67  CB       -32.1800   25.9920   -4.5260 C.3    98  TYR98       0.0560
     68  CG       -33.6300   25.9610   -4.9640 C.ar   98  TYR98      -0.0198
     69  CD1      -34.5380   26.8990   -4.4900 C.ar   98  TYR98      -0.0009
     70  CD2      -34.0940   24.9930   -5.8440 C.ar   98  TYR98      -0.0009
     71  CE1      -35.8650   26.8760   -4.8820 C.ar   98  TYR98       0.0417
     72  CE2      -35.4210   24.9610   -6.2410 C.ar   98  TYR98       0.0417
     73  CZ       -36.3010   25.9050   -5.7570 C.ar   98  TYR98       0.1957
     74  OH       -37.6220   25.8810   -6.1490 O.3    98  TYR98      -0.2866
     75  N        -33.0860   23.1600    0.7300 N.3   101  LEU101     -0.1245
     76  CA       -33.9580   23.9940    1.5510 C.3   101  LEU101      0.1561
     77  C        -35.2030   23.2330    1.9740 C.2   101  LEU101      0.2260
     78  O        -35.5970   23.2580    3.1450 O.2   101  LEU101     -0.2867
     79  CB       -34.3520   25.2590    0.7850 C.3   101  LEU101      0.0270
     80  CG       -33.2540   26.2350    0.3670 C.3   101  LEU101      0.0019
     81  CD1      -33.8640   27.4240   -0.3590 C.3   101  LEU101      0.0001
     82  CD2      -32.4430   26.6890    1.5680 C.3   101  LEU101      0.0001
     83  N        -34.5740   20.7850    4.6780 N.3   104  GLY104     -0.1225
     84  CA       -34.4730   21.5290    5.9210 C.3   104  GLY104      0.1811
     85  C        -35.8070   22.1060    6.3570 C.2   104  GLY104      0.2280
     86  O        -36.1250   22.1320    7.5480 O.2   104  GLY104     -0.2866
@<TRIPOS>BOND
     1    57    55    1
     2    54    55    1
     3    54    51    1
     4    72    70   ar
     5    72    73   ar
     6    74    73    1
     7    55    56    1
     8    70    68   ar
     9    73    71   ar
    10    52    51    1
    11    52    53    2
    12    50    51    1
    13    68    67    1
    14    68    69   ar
    15    71    69   ar
    16    67    64    1
    17    64    65    1
    18    64    63    1
    19    65    66    2
    20    63    60   am
    21    58    59    1
    22    60    59    1
    23    60    61    2
    24    59    62    1
    25    81    80    1
    26    80    79    1
    27    80    82    1
    28    75    76    1
    29    79    76    1
    30    76    77    1
    31    77    78    2
    32    49    48   ar
    33    49    47   ar
    34    48    46   ar
    35    47    45   ar
    36    46    44   ar
    37    42    41    2
    38    45    44   ar
    39    44    43    1
    40    41    40    1
    41    83    84    1
    42    40    43    1
    43    40    39    1
    44    84    85    1
    45    85    86    2
    46    32    31    2
    47    37    36    2
    48    31    30    1
    49    31    34   am
    50    36    35    1
    51    33    30    1
    52    35    34    1
    53    35    38    1
    54    30    29    1
    55    15    14    2
    56    18    17    1
    57    23    22    2
    58    22    21    1
    59    14    13    1
    60    14    20   am
    61    17    19    1
    62    17    16    1
    63    13    16    1
    64    13    12    1
    65    21    20    1
    66    21    24    1
    67    24    25    1
    68     4     3    2
    69    25    26    1
    70     3     2    1
    71    11     9    1
    72    28    26   am
    73    26    27    2
    74     2     1    1
    75     2     5    1
    76    10     9    1
    77     9     8    2
    78     5     6    1
    79     8     7    1
    80     6     7    1
