@<TRIPOS>MOLECULE
tmp/5n6lA12.pdb
 148 143 0 0 0
SMALL
GASTEIGER

@<TRIPOS>ATOM
      1  N         -6.7440  -19.9910   -6.1590 N.3   109  VAL109     -0.1245
      2  CA        -6.6920  -21.3520   -6.6810 C.3   109  VAL109      0.1561
      3  C         -8.0560  -21.7760   -7.2120 C.2   109  VAL109      0.2260
      4  O         -8.1530  -22.4440   -8.2480 O.2   109  VAL109     -0.2867
      5  CB        -6.1780  -22.3140   -5.5940 C.3   109  VAL109      0.0252
      6  CG1       -6.1500  -23.7440   -6.1090 C.3   109  VAL109      0.0019
      7  CG2       -4.7970  -21.8890   -5.1310 C.3   109  VAL109      0.0019
      8  N         -8.3740  -23.0480  -11.4430 N.3   113  LEU113     -0.1231
      9  CA        -8.7850  -24.3840  -11.8730 C.3   113  LEU113      0.1693
     10  C        -10.2740  -24.5140  -12.1770 C.2   113  LEU113      0.2592
     11  O        -10.6540  -25.4170  -12.9290 O.2   113  LEU113     -0.2718
     12  CB        -8.3830  -25.4550  -10.8480 C.3   113  LEU113      0.0284
     13  CG        -6.9210  -25.9000  -10.6460 C.3   113  LEU113      0.0019
     14  CD1       -5.8770  -24.8670  -11.0430 C.3   113  LEU113      0.0001
     15  CD2       -6.6840  -26.3840   -9.2190 C.3   113  LEU113      0.0001
     16  N        -11.1320  -23.6590  -11.6300 N.am  114  TRP114     -0.1976
     17  CA       -12.5770  -23.7770  -11.8380 C.3   114  TRP114      0.1640
     18  C        -13.1540  -22.4070  -12.1690 C.2   114  TRP114      0.2290
     19  O        -13.9370  -21.8400  -11.3980 O.2   114  TRP114     -0.2864
     20  CB       -13.2480  -24.3980  -10.6100 C.3   114  TRP114      0.0576
     21  CG       -12.6960  -25.7680  -10.2880 C.ar  114  TRP114      0.0006
     22  CD1      -13.0530  -26.9550  -10.8640 C.ar  114  TRP114      0.0946
     23  CD2      -11.6800  -26.0810   -9.3270 C.ar  114  TRP114      0.0152
     24  NE1      -12.3240  -27.9860  -10.3210 N.ar  114  TRP114     -0.2442
     25  CE2      -11.4750  -27.4760   -9.3740 C.ar  114  TRP114      0.0810
     26  CE3      -10.9270  -25.3200   -8.4290 C.ar  114  TRP114      0.0012
     27  CZ2      -10.5500  -28.1220   -8.5590 C.ar  114  TRP114      0.0191
     28  CZ3      -10.0070  -25.9640   -7.6210 C.ar  114  TRP114      0.0001
     29  CH2       -9.8280  -27.3510   -7.6910 C.ar  114  TRP114      0.0015
     30  N        -15.5130  -28.3610   -5.5620 N.3   125  ALA125     -0.1245
     31  CA       -14.1680  -27.7940   -5.5160 C.3   125  ALA125      0.1562
     32  C        -13.9650  -26.9440   -4.2690 C.2   125  ALA125      0.2260
     33  O        -13.0310  -27.1680   -3.4890 O.2   125  ALA125     -0.2867
     34  CB       -13.9180  -26.9710   -6.7770 C.3   125  ALA125      0.0290
     35  N        -13.7390  -28.6150   -0.5820 N.3   128  ALA128     -0.1231
     36  CA       -12.5060  -29.3760   -0.4170 C.3   128  ALA128      0.1694
     37  C        -11.3010  -28.4470   -0.3800 C.2   128  ALA128      0.2591
     38  O        -10.4240  -28.5890    0.4780 O.2   128  ALA128     -0.2718
     39  CB       -12.3650  -30.4040   -1.5390 C.3   128  ALA128      0.0304
     40  N        -11.2450  -27.4900   -1.3110 N.am  129  LEU129     -0.1980
     41  CA       -10.1670  -26.5050   -1.3030 C.3   129  LEU129      0.1596
     42  C        -10.1970  -25.6820   -0.0220 C.2   129  LEU129      0.2287
     43  O         -9.1490  -25.4180    0.5780 O.2   129  LEU129     -0.2864
     44  CB       -10.2800  -25.6000   -2.5300 C.3   129  LEU129      0.0297
     45  CG        -9.2260  -24.5120   -2.7280 C.3   129  LEU129      0.0022
     46  CD1       -7.8220  -25.0980   -2.6990 C.3   129  LEU129      0.0001
     47  CD2       -9.4730  -23.7660   -4.0290 C.3   129  LEU129      0.0001
     48  N         -8.6570  -27.6280    2.7290 N.3   132  VAL132     -0.1245
     49  CA        -7.1990  -27.5750    2.6800 C.3   132  VAL132      0.1561
     50  C         -6.7080  -26.1960    3.0930 C.2   132  VAL132      0.2260
     51  O         -5.7890  -26.0620    3.9080 O.2   132  VAL132     -0.2867
     52  CB        -6.6920  -27.9580    1.2780 C.3   132  VAL132      0.0252
     53  CG1       -5.1750  -27.8360    1.2120 C.3   132  VAL132      0.0019
     54  CG2       -7.1390  -29.3630    0.9160 C.3   132  VAL132      0.0019
     55  N         -8.3260  -31.5080   16.9180 N.3   392  GLU392     -0.1245
     56  CA        -7.6510  -32.7830   16.7270 C.3   392  GLU392      0.1567
     57  C         -6.7710  -33.1250   17.9230 C.2   392  GLU392      0.2260
     58  O         -6.7130  -34.2840   18.3470 O.2   392  GLU392     -0.2867
     59  CB        -6.8360  -32.7570   15.4380 C.3   392  GLU392      0.0388
     60  CG        -6.4060  -34.1370   14.9880 C.3   392  GLU392      0.1160
     61  CD        -7.5980  -35.0510   14.7340 C.2   392  GLU392      0.3649
     62  OE1       -8.6860  -34.5380   14.3860 O.co2 392  GLU392     -0.2457
     63  OE2       -7.4510  -36.2810   14.8900 O.co2 392  GLU392     -0.2457
     64  N         -7.2250  -36.5060   20.3260 N.3   396  ASP396     -0.1239
     65  CA        -6.1830  -37.5300   20.4540 C.3   396  ASP396      0.1674
     66  C         -5.8530  -37.8150   21.9190 C.2   396  ASP396      0.2266
     67  O         -5.5330  -38.9570   22.2750 O.2   396  ASP396     -0.2867
     68  CB        -4.9080  -37.1230   19.7030 C.3   396  ASP396      0.1410
     69  CG        -5.0870  -37.1070   18.2020 C.2   396  ASP396      0.3668
     70  OD1       -6.2390  -37.2520   17.7460 O.co2 396  ASP396     -0.2456
     71  OD2       -4.0840  -36.9380   17.4750 O.co2 396  ASP396     -0.2456
     72  N        -11.1080  -36.7650   12.3000 N.3   486  ASN486     -0.1225
     73  CA       -11.4950  -36.0940   11.0690 C.3   486  ASN486      0.1785
     74  C        -10.9930  -36.8190    9.8240 C.2   486  ASN486      0.2597
     75  O        -11.1070  -36.2780    8.7180 O.2   486  ASN486     -0.2718
     76  CB       -11.0130  -34.6410   11.0860 C.3   486  ASN486      0.1169
     77  CG        -9.5300  -34.5160   11.3520 C.2   486  ASN486      0.2627
     78  OD1       -8.7820  -35.4850   11.2550 O.2   486  ASN486     -0.2716
     79  ND2       -9.0970  -33.3090   11.6940 N.am  486  ASN486     -0.0877
     80  N        -10.4200  -38.0160    9.9900 N.am  487  TRP487     -0.1976
     81  CA       -10.1020  -38.8970    8.8610 C.3   487  TRP487      0.1640
     82  C        -11.2320  -39.0260    7.8440 C.2   487  TRP487      0.2290
     83  O        -10.9500  -38.9350    6.6410 O.2   487  TRP487     -0.2864
     84  CB        -9.7080  -40.2940    9.3690 C.3   487  TRP487      0.0576
     85  CG        -8.3320  -40.3890    9.9640 C.ar  487  TRP487      0.0006
     86  CD1       -7.9850  -40.1620   11.2640 C.ar  487  TRP487      0.0946
     87  CD2       -7.1200  -40.7500    9.2840 C.ar  487  TRP487      0.0152
     88  NE1       -6.6340  -40.3480   11.4340 N.ar  487  TRP487     -0.2442
     89  CE2       -6.0820  -40.7160   10.2360 C.ar  487  TRP487      0.0810
     90  CE3       -6.8120  -41.1010    7.9660 C.ar  487  TRP487      0.0012
     91  CZ2       -4.7580  -41.0010    9.9100 C.ar  487  TRP487      0.0191
     92  CZ3       -5.4970  -41.3990    7.6500 C.ar  487  TRP487      0.0001
     93  CH2       -4.4880  -41.3420    8.6170 C.ar  487  TRP487      0.0015
     94  N        -11.3040  -35.8900    5.6890 N.3   490  TRP490     -0.1227
     95  CA       -10.1870  -35.7910    4.7560 C.3   490  TRP490      0.1737
     96  C        -10.3390  -36.7700    3.6000 C.2   490  TRP490      0.2595
     97  O         -9.9850  -36.4500    2.4600 O.2   490  TRP490     -0.2718
     98  CB        -8.8700  -36.0200    5.4910 C.3   490  TRP490      0.0564
     99  CG        -8.3770  -34.8020    6.2040 C.ar  490  TRP490      0.0003
    100  CD1       -8.3660  -34.5940    7.5500 C.ar  490  TRP490      0.0946
    101  CD2       -7.8370  -33.6150    5.6090 C.ar  490  TRP490      0.0152
    102  NE1       -7.8440  -33.3570    7.8330 N.ar  490  TRP490     -0.2442
    103  CE2       -7.5120  -32.7350    6.6590 C.ar  490  TRP490      0.0810
    104  CE3       -7.5930  -33.2140    4.2920 C.ar  490  TRP490      0.0012
    105  CZ2       -6.9580  -31.4790    6.4350 C.ar  490  TRP490      0.0191
    106  CZ3       -7.0410  -31.9660    4.0720 C.ar  490  TRP490      0.0001
    107  CH2       -6.7300  -31.1130    5.1380 C.ar  490  TRP490      0.0015
    108  N        -10.8620  -37.9680    3.8730 N.am  491  VAL491     -0.1980
    109  CA       -11.1740  -38.9010    2.7940 C.3   491  VAL491      0.1595
    110  C        -12.2130  -38.2900    1.8630 C.2   491  VAL491      0.2287
    111  O        -12.0770  -38.3310    0.6330 O.2   491  VAL491     -0.2864
    112  CB       -11.6440  -40.2480    3.3700 C.3   491  VAL491      0.0276
    113  CG1      -12.2470  -41.1180    2.2770 C.3   491  VAL491      0.0022
    114  CG2      -10.4910  -40.9620    4.0550 C.3   491  VAL491      0.0022
    115  N        -12.7340  -35.0930    1.6060 N.3   493  THR493     -0.1203
    116  CA       -12.0620  -33.9580    0.9830 C.3   493  THR493      0.1994
    117  C        -11.1500  -34.4210   -0.1450 C.2   493  THR493      0.2617
    118  O        -11.0070  -33.7300   -1.1600 O.2   493  THR493     -0.2717
    119  CB       -11.2640  -33.1830    2.0310 C.3   493  THR493      0.1784
    120  OG1      -12.1290  -32.8210    3.1150 O.3   493  THR493     -0.2211
    121  CG2      -10.6630  -31.9290    1.4320 C.3   493  THR493      0.0376
    122  N        -10.5260  -35.5890    0.0150 N.am  494  ALA494     -0.1979
    123  CA        -9.7320  -36.1530   -1.0700 C.3   494  ALA494      0.1597
    124  C        -10.6250  -36.5570   -2.2350 C.2   494  ALA494      0.2287
    125  O        -10.3320  -36.2360   -3.3900 O.2   494  ALA494     -0.2864
    126  CB        -8.9200  -37.3470   -0.5720 C.3   494  ALA494      0.0319
    127  N        -11.8890  -33.4530   -3.8340 N.3   497  GLY497     -0.1210
    128  CA       -10.7590  -32.8550   -4.5260 C.3   497  GLY497      0.1956
    129  C        -10.3080  -33.6650   -5.7280 C.2   497  GLY497      0.2611
    130  O        -10.1300  -33.1250   -6.8220 O.2   497  GLY497     -0.2717
    131  N        -10.0840  -34.9680   -5.5300 N.am  498  PHE498     -0.1976
    132  CA        -9.6660  -35.8370   -6.6270 C.3   498  PHE498      0.1639
    133  C        -10.6000  -35.6880   -7.8240 C.2   498  PHE498      0.2290
    134  O        -10.1520  -35.5310   -8.9650 O.2   498  PHE498     -0.2864
    135  CB        -9.6180  -37.2950   -6.1560 C.3   498  PHE498      0.0560
    136  CG        -9.4020  -38.2970   -7.2630 C.ar  498  PHE498     -0.0200
    137  CD1       -8.1150  -38.7100   -7.5780 C.ar  498  PHE498     -0.0042
    138  CD2      -10.4660  -38.8480   -7.9640 C.ar  498  PHE498     -0.0042
    139  CE1       -7.8850  -39.6330   -8.5820 C.ar  498  PHE498     -0.0003
    140  CE2      -10.2440  -39.7700   -8.9790 C.ar  498  PHE498     -0.0003
    141  CZ        -8.9500  -40.1640   -9.2850 C.ar  498  PHE498     -0.0000
    142  N        -10.4020  -31.8920   -9.1700 N.3   501  VAL501     -0.1245
    143  CA        -9.1480  -31.6370   -9.8690 C.3   501  VAL501      0.1561
    144  C         -9.1160  -32.4060  -11.1810 C.2   501  VAL501      0.2260
    145  O         -8.6590  -31.8940  -12.2100 O.2   501  VAL501     -0.2867
    146  CB        -7.9450  -31.9720   -8.9710 C.3   501  VAL501      0.0252
    147  CG1       -6.6560  -31.8770   -9.7610 C.3   501  VAL501      0.0019
    148  CG2       -7.9070  -31.0220   -7.7930 C.3   501  VAL501      0.0019
@<TRIPOS>BOND
     1    11    10    2
     2   145   144    2
     3    10     9    1
     4    10    16   am
     5    18    17    1
     6    18    19    2
     7     9     8    1
     8     9    12    1
     9    17    16    1
    10    17    20    1
    11   144   143    1
    12    14    13    1
    13    22    24   ar
    14    22    21   ar
    15    12    13    1
    16    13    15    1
    17    20    21    1
    18    24    25   ar
    19    21    23   ar
    20   143   142    1
    21   143   146    1
    22   147   146    1
    23    25    23   ar
    24    25    27   ar
    25    23    26   ar
    26   141   140   ar
    27   141   139   ar
    28   140   138   ar
    29   146   148    1
    30   134   133    2
    31   139   137   ar
    32    27    29   ar
    33    26    28   ar
    34     4     3    2
    35   138   136   ar
    36   133   132    1
    37    29    28   ar
    38   137   136   ar
    39   136   135    1
    40     3     2    1
    41   130   129    2
    42    34    31    1
    43     2     1    1
    44     2     5    1
    45   132   135    1
    46   132   131    1
    47     6     5    1
    48   129   131   am
    49   129   128    1
    50     5     7    1
    51    30    31    1
    52    31    32    1
    53   128   127    1
    54    32    33    2
    55    47    45    1
    56   125   124    2
    57    45    46    1
    58    45    44    1
    59    44    41    1
    60   124   123    1
    61    39    36    1
    62    40    41    1
    63    40    37   am
    64    41    42    1
    65   118   117    2
    66   123   126    1
    67   123   122    1
    68    35    36    1
    69    36    37    1
    70    37    38    2
    71   117   122   am
    72   117   116    1
    73    42    43    2
    74   111   110    2
    75    54    52    1
    76   116   115    1
    77   116   119    1
    78    53    52    1
    79    52    49    1
    80   121   119    1
    81   110   109    1
    82   119   120    1
    83   113   112    1
    84    97    96    2
    85    49    48    1
    86    49    50    1
    87   109   112    1
    88   109   108    1
    89    50    51    2
    90   112   114    1
    91    96   108   am
    92    96    95    1
    93   106   104   ar
    94   106   107   ar
    95   104   101   ar
    96    95    98    1
    97    95    94    1
    98   107   105   ar
    99    98    99    1
   100   101    99   ar
   101   101   103   ar
   102    99   100   ar
   103   105   103   ar
   104    83    82    2
   105   103   102   ar
   106   100   102   ar
   107    92    90   ar
   108    92    93   ar
   109    82    81    1
   110    90    87   ar
   111    93    91   ar
   112    75    74    2
   113    81    84    1
   114    81    80    1
   115    87    85   ar
   116    87    89   ar
   117    84    85    1
   118    74    80   am
   119    74    73    1
   120    91    89   ar
   121    85    86   ar
   122    89    88   ar
   123    73    76    1
   124    73    72    1
   125    76    77    1
   126    78    77    2
   127    86    88   ar
   128    77    79   am
   129    62    61   ar
   130    61    63   ar
   131    61    60    1
   132    60    59    1
   133    59    56    1
   134    56    55    1
   135    56    57    1
   136    71    69   ar
   137    70    69   ar
   138    57    58    2
   139    69    68    1
   140    68    65    1
   141    64    65    1
   142    65    66    1
   143    66    67    2
