@<TRIPOS>MOLECULE
tmp/5n6lA02.pdb
 82 79 0 0 0
SMALL
GASTEIGER

@<TRIPOS>ATOM
      1  N         -3.9560   -6.7410   23.9910 N.3    76  SER76      -0.1202
      2  CA        -2.7740   -7.3980   24.5340 C.3    76  SER76       0.2020
      3  C         -1.5000   -6.7510   24.0090 C.2    76  SER76       0.2618
      4  O         -0.5350   -6.5660   24.7600 O.2    76  SER76      -0.2717
      5  CB        -2.7990   -8.8870   24.2000 C.3    76  SER76       0.2103
      6  OG        -1.6290   -9.5260   24.6770 O.3    76  SER76      -0.2182
      7  N         -1.4800   -6.4090   22.7190 N.am   77  ILE77      -0.1979
      8  CA        -0.2990   -5.7920   22.1230 C.3    77  ILE77       0.1595
      9  C         -0.0430   -4.4300   22.7510 C.2    77  ILE77       0.2287
     10  O          1.1050   -4.0590   23.0230 O.2    77  ILE77      -0.2864
     11  CB        -0.4680   -5.6920   20.5960 C.3    77  ILE77       0.0276
     12  CG1       -0.6390   -7.0780   19.9790 C.3    77  ILE77       0.0022
     13  CG2        0.7290   -5.0230   19.9710 C.3    77  ILE77       0.0022
     14  CD1       -0.8170   -7.0420   18.4790 C.3    77  ILE77       0.0001
     15  N          1.2650   -5.0390   26.8250 N.3    80  PHE80      -0.1227
     16  CA         2.5670   -5.6550   27.0550 C.3    80  PHE80       0.1736
     17  C          3.5440   -5.5100   25.8960 C.2    80  PHE80       0.2596
     18  O          4.6710   -6.0070   25.9930 O.2    80  PHE80      -0.2718
     19  CB         2.3890   -7.1290   27.4150 C.3    80  PHE80       0.0547
     20  CG         1.5370   -7.3410   28.6240 C.ar   80  PHE80      -0.0202
     21  CD1        2.0660   -7.1440   29.8910 C.ar   80  PHE80      -0.0042
     22  CD2        0.2070   -7.7090   28.5020 C.ar   80  PHE80      -0.0042
     23  CE1        1.2920   -7.3240   31.0180 C.ar   80  PHE80      -0.0003
     24  CE2       -0.5780   -7.8910   29.6270 C.ar   80  PHE80      -0.0003
     25  CZ        -0.0330   -7.6980   30.8880 C.ar   80  PHE80      -0.0000
     26  N          3.1500   -4.8540   24.8070 N.am   81  GLY81      -0.1957
     27  CA         4.0380   -4.7710   23.6620 C.3    81  GLY81       0.1869
     28  C          5.1910   -3.8190   23.8860 C.2    81  GLY81       0.2309
     29  O          6.2780   -4.0140   23.3340 O.2    81  GLY81      -0.2863
     30  N          5.0960   -0.7840   22.8280 N.3    83  MET83      -0.1245
     31  CA         5.1730   -0.1890   21.5140 C.3    83  MET83       0.1570
     32  C          4.2920    1.0480   21.4460 C.2    83  MET83       0.2261
     33  O          3.3380    1.1810   22.2180 O.2    83  MET83      -0.2867
     34  CB         4.7010   -1.1930   20.4550 C.3    83  MET83       0.0387
     35  CG         5.5560   -2.4420   20.3300 C.3    83  MET83       0.0595
     36  SD         6.6330   -2.4490   18.8880 S.3    83  MET83      -0.1393
     37  CE         6.8530   -4.2120   18.6550 C.3    83  MET83       0.0692
     38  N          0.5080   -3.5520   13.7880 N.3    91  LEU91      -0.1245
     39  CA         0.6570   -4.9830   14.0370 C.3    91  LEU91       0.1561
     40  C         -0.6650   -5.7220   13.8650 C.2    91  LEU91       0.2260
     41  O         -0.6930   -6.8330   13.3270 O.2    91  LEU91      -0.2867
     42  CB         1.2170   -5.2130   15.4420 C.3    91  LEU91       0.0270
     43  CG         2.6030   -4.6370   15.7330 C.3    91  LEU91       0.0019
     44  CD1        2.9830   -4.8380   17.1920 C.3    91  LEU91       0.0001
     45  CD2        3.6470   -5.2480   14.8170 C.3    91  LEU91       0.0001
     46  N         -1.4960   -5.9930   10.3530 N.3    94  LEU94      -0.1245
     47  CA        -0.5810   -6.9860    9.8020 C.3    94  LEU94       0.1561
     48  C         -1.0910   -8.4030   10.0510 C.2    94  LEU94       0.2260
     49  O         -1.0360   -9.2540    9.1540 O.2    94  LEU94      -0.2867
     50  CB         0.8100   -6.7970   10.4070 C.3    94  LEU94       0.0270
     51  CG         1.9620   -7.6100    9.8170 C.3    94  LEU94       0.0019
     52  CD1        2.4260   -6.9930    8.5050 C.3    94  LEU94       0.0001
     53  CD2        3.1140   -7.7280   10.8050 C.3    94  LEU94       0.0001
     54  N          3.5980  -15.2200   20.2160 N.3   339  PHE339     -0.1227
     55  CA         4.3740  -14.1260   20.7840 C.3   339  PHE339      0.1736
     56  C          4.2370  -13.9860   22.2940 C.2   339  PHE339      0.2596
     57  O          5.0400  -13.2740   22.9070 O.2   339  PHE339     -0.2718
     58  CB         3.9930  -12.8090   20.1000 C.3   339  PHE339      0.0547
     59  CG         4.4910  -12.7080   18.6900 C.ar  339  PHE339     -0.0202
     60  CD1        5.7030  -12.1000   18.4100 C.ar  339  PHE339     -0.0042
     61  CD2        3.7580  -13.2480   17.6450 C.ar  339  PHE339     -0.0042
     62  CE1        6.1670  -12.0190   17.1130 C.ar  339  PHE339     -0.0003
     63  CE2        4.2160  -13.1700   16.3460 C.ar  339  PHE339     -0.0003
     64  CZ         5.4220  -12.5540   16.0790 C.ar  339  PHE339     -0.0000
     65  N          3.2510  -14.6350   22.9040 N.am  340  GLY340     -0.1957
     66  CA         3.0890  -14.5450   24.3400 C.3   340  GLY340      0.1869
     67  C          3.9940  -15.4240   25.1780 C.2   340  GLY340      0.2309
     68  O          4.6770  -14.9370   26.0840 O.2   340  GLY340     -0.2863
     69  N         -6.2340  -10.7220   29.8270 N.3   413  TRP413     -0.1241
     70  CA        -6.0330   -9.9600   28.6040 C.3   413  TRP413      0.1605
     71  C         -7.2290  -10.1810   27.6940 C.2   413  TRP413      0.2264
     72  O         -7.8320  -11.2550   27.6960 O.2   413  TRP413     -0.2867
     73  CB        -4.7440  -10.3820   27.8960 C.3   413  TRP413      0.0550
     74  CG        -4.1930  -11.7010   28.3650 C.ar  413  TRP413      0.0003
     75  CD1       -4.7800  -12.9310   28.2480 C.ar  413  TRP413      0.0946
     76  CD2       -2.9340  -11.9190   29.0110 C.ar  413  TRP413      0.0152
     77  NE1       -3.9670  -13.8970   28.7920 N.ar  413  TRP413     -0.2442
     78  CE2       -2.8270  -13.3020   29.2660 C.ar  413  TRP413      0.0810
     79  CE3       -1.8880  -11.0790   29.4030 C.ar  413  TRP413      0.0012
     80  CZ2       -1.7190  -13.8610   29.8930 C.ar  413  TRP413      0.0191
     81  CZ3       -0.7890  -11.6350   30.0250 C.ar  413  TRP413      0.0001
     82  CH2       -0.7120  -13.0130   30.2640 C.ar  413  TRP413      0.0015
@<TRIPOS>BOND
     1    52    51    1
     2    49    48    2
     3    47    48    1
     4    47    46    1
     5    47    50    1
     6    51    50    1
     7    51    53    1
     8    41    40    2
     9    38    39    1
    10    40    39    1
    11    39    42    1
    12    45    43    1
    13    42    43    1
    14    43    44    1
    15    64    63   ar
    16    64    62   ar
    17    63    61   ar
    18    62    60   ar
    19    61    59   ar
    20    60    59   ar
    21    14    12    1
    22    37    36    1
    23    59    58    1
    24    36    35    1
    25    13    11    1
    26    12    11    1
    27    58    55    1
    28    54    55    1
    29    35    34    1
    30    34    31    1
    31    11     8    1
    32    55    56    1
    33    32    31    1
    34    32    33    2
    35    31    30    1
    36     8     7    1
    37     8     9    1
    38    56    65   am
    39    56    57    2
    40     7     3   am
    41     9    10    2
    42    65    66    1
    43    29    28    2
    44    27    28    1
    45    27    26    1
    46     1     2    1
    47     3     2    1
    48     3     4    2
    49     5     2    1
    50     5     6    1
    51    66    67    1
    52    26    17   am
    53    67    68    2
    54    17    18    2
    55    17    16    1
    56    15    16    1
    57    16    19    1
    58    19    20    1
    59    71    72    2
    60    71    70    1
    61    73    74    1
    62    73    70    1
    63    75    74   ar
    64    75    77   ar
    65    74    76   ar
    66    22    20   ar
    67    22    24   ar
    68    70    69    1
    69    20    21   ar
    70    77    78   ar
    71    76    78   ar
    72    76    79   ar
    73    78    80   ar
    74    79    81   ar
    75    24    25   ar
    76    21    23   ar
    77    80    82   ar
    78    81    82   ar
    79    25    23   ar
