@<TRIPOS>MOLECULE
tmp/5n6lA05.pdb
 143 145 0 0 0
SMALL
GASTEIGER

@<TRIPOS>ATOM
      1  N         -9.4580   -7.6870   18.5040 N.3    72  TRP72      -0.1227
      2  CA        -9.2810   -7.6910   19.9500 C.3    72  TRP72       0.1737
      3  C         -7.8680   -8.0530   20.3940 C.2    72  TRP72       0.2595
      4  O         -7.5480   -7.8470   21.5660 O.2    72  TRP72      -0.2718
      5  CB       -10.2820   -8.6440   20.6000 C.3    72  TRP72       0.0564
      6  CG       -10.3120  -10.0000   19.9870 C.ar   72  TRP72       0.0003
      7  CD1      -11.1350  -10.4230   18.9880 C.ar   72  TRP72       0.0946
      8  CD2       -9.4750  -11.1150   20.3200 C.ar   72  TRP72       0.0152
      9  NE1      -10.8730  -11.7380   18.6840 N.ar   72  TRP72      -0.2442
     10  CE2       -9.8560  -12.1850   19.4860 C.ar   72  TRP72       0.0810
     11  CE3       -8.4450  -11.3130   21.2440 C.ar   72  TRP72       0.0012
     12  CZ2       -9.2420  -13.4360   19.5490 C.ar   72  TRP72       0.0191
     13  CZ3       -7.8370  -12.5540   21.3060 C.ar   72  TRP72       0.0001
     14  CH2       -8.2360  -13.6000   20.4640 C.ar   72  TRP72       0.0015
     15  N         -7.0230   -8.5960   19.5150 N.am   73  VAL73      -0.1980
     16  CA        -5.6340   -8.8490   19.8800 C.3    73  VAL73       0.1595
     17  C         -4.8720   -7.5660   20.1690 C.2    73  VAL73       0.2287
     18  O         -3.7640   -7.6170   20.7120 O.2    73  VAL73      -0.2864
     19  CB        -4.9070   -9.6480   18.7740 C.3    73  VAL73       0.0276
     20  CG1       -5.5960  -10.9770   18.5340 C.3    73  VAL73       0.0022
     21  CG2       -4.8110   -8.8320   17.4870 C.3    73  VAL73       0.0022
     22  N         -1.5860   -8.6790   11.2640 N.3    95  LEU95      -0.1245
     23  CA        -2.1070  -10.0090   11.5720 C.3    95  LEU95       0.1561
     24  C         -3.3010  -10.3600   10.6960 C.2    95  LEU95       0.2260
     25  O         -3.3590  -11.4500   10.1150 O.2    95  LEU95      -0.2867
     26  CB        -2.4920  -10.0950   13.0490 C.3    95  LEU95       0.0270
     27  CG        -3.1860  -11.3930   13.4670 C.3    95  LEU95       0.0019
     28  CD1       -2.2210  -12.5660   13.4190 C.3    95  LEU95       0.0001
     29  CD2       -3.7850  -11.2490   14.8470 C.3    95  LEU95       0.0001
     30  N         -2.0430  -11.0760    7.2390 N.3    98  TYR98      -0.1241
     31  CA        -1.4310  -12.3980    7.1570 C.3    98  TYR98       0.1605
     32  C         -2.4820  -13.4990    7.0680 C.2    98  TYR98       0.2264
     33  O         -2.3340  -14.4460    6.2860 O.2    98  TYR98      -0.2867
     34  CB        -0.5120  -12.6310    8.3580 C.3    98  TYR98       0.0534
     35  CG        -0.1930  -14.0920    8.5780 C.ar   98  TYR98      -0.0201
     36  CD1        0.7370  -14.7490    7.7870 C.ar   98  TYR98      -0.0009
     37  CD2       -0.8310  -14.8190    9.5730 C.ar   98  TYR98      -0.0009
     38  CE1        1.0210  -16.0890    7.9820 C.ar   98  TYR98       0.0417
     39  CE2       -0.5520  -16.1580    9.7750 C.ar   98  TYR98       0.0417
     40  CZ         0.3740  -16.7880    8.9770 C.ar   98  TYR98       0.1957
     41  OH         0.6530  -18.1200    9.1780 O.3    98  TYR98      -0.2866
     42  N          3.2470  -22.0910   10.8290 N.3   141  LEU141     -0.1231
     43  CA         3.8550  -21.2700   11.8780 C.3   141  LEU141      0.1693
     44  C          3.0820  -21.3370   13.1960 C.2   141  LEU141      0.2593
     45  O          2.6660  -20.3200   13.7600 O.2   141  LEU141     -0.2718
     46  CB         4.0440  -19.8230   11.4200 C.3   141  LEU141      0.0284
     47  CG         5.1960  -19.6280   10.4380 C.3   141  LEU141      0.0019
     48  CD1        5.3020  -18.1720   10.0270 C.3   141  LEU141      0.0001
     49  CD2        6.4930  -20.1070   11.0760 C.3   141  LEU141      0.0001
     50  N          2.8670  -22.5690   13.6610 N.am  142  THR142     -0.1939
     51  CA         2.2840  -22.8340   14.9760 C.3   142  THR142      0.2028
     52  C          0.8510  -22.3170   15.0790 C.2   142  THR142      0.2643
     53  O          0.4990  -21.5640   15.9900 O.2   142  THR142     -0.2714
     54  CB         3.1520  -22.2660   16.1050 C.3   142  THR142      0.1808
     55  OG1        3.1010  -20.8320   16.0890 O.3   142  THR142     -0.2208
     56  CG2        4.5970  -22.7250   15.9570 C.3   142  THR142      0.0379
     57  N          0.0210  -22.7200   14.1260 N.am  143  GLY143     -0.1939
     58  CA        -1.4010  -22.5370   14.3090 C.3   143  GLY143      0.2014
     59  C         -2.0680  -21.2180   13.9750 C.2   143  GLY143      0.2638
     60  O         -1.7680  -20.5660   12.9710 O.2   143  GLY143     -0.2714
     61  N         -2.9900  -20.8400   14.8550 N.am  144  PHE144     -0.1973
     62  CA        -3.9990  -19.7840   14.8240 C.3   144  PHE144      0.1639
     63  C         -5.0730  -20.0330   13.7690 C.2   144  PHE144      0.2290
     64  O         -5.1940  -19.2760   12.7970 O.2   144  PHE144     -0.2864
     65  CB        -3.3630  -18.4100   14.6070 C.3   144  PHE144      0.0560
     66  CG        -4.2530  -17.2810   15.0280 C.ar  144  PHE144     -0.0200
     67  CD1       -5.0160  -17.3910   16.1800 C.ar  144  PHE144     -0.0042
     68  CD2       -4.3420  -16.1210   14.2840 C.ar  144  PHE144     -0.0042
     69  CE1       -5.8500  -16.3650   16.5800 C.ar  144  PHE144     -0.0003
     70  CE2       -5.1720  -15.0910   14.6840 C.ar  144  PHE144     -0.0003
     71  CZ        -5.9270  -15.2120   15.8290 C.ar  144  PHE144     -0.0000
     72  N         -8.3450  -19.5250   13.9440 N.3   146  TRP146     -0.1241
     73  CA        -9.4660  -18.8370   14.5700 C.3   146  TRP146      0.1605
     74  C        -10.5600  -18.5150   13.5480 C.2   146  TRP146      0.2264
     75  O        -10.3100  -18.3960   12.3440 O.2   146  TRP146     -0.2867
     76  CB        -8.9970  -17.5440   15.2420 C.3   146  TRP146      0.0550
     77  CG        -9.7210  -17.2210   16.5320 C.ar  146  TRP146      0.0003
     78  CD1      -10.8600  -16.4760   16.6730 C.ar  146  TRP146      0.0946
     79  CD2       -9.3200  -17.5890   17.8630 C.ar  146  TRP146      0.0152
     80  NE1      -11.2070  -16.3840   18.0030 N.ar  146  TRP146     -0.2442
     81  CE2      -10.2760  -17.0540   18.7520 C.ar  146  TRP146      0.0810
     82  CE3       -8.2540  -18.3260   18.3870 C.ar  146  TRP146      0.0012
     83  CZ2      -10.1960  -17.2320   20.1320 C.ar  146  TRP146      0.0191
     84  CZ3       -8.1780  -18.5000   19.7570 C.ar  146  TRP146      0.0001
     85  CH2       -9.1430  -17.9560   20.6130 C.ar  146  TRP146      0.0015
     86  N          1.4260  -20.0460   22.6970 N.3   337  VAL337     -0.1231
     87  CA         0.9720  -18.9060   21.9010 C.3   337  VAL337      0.1678
     88  C          2.1780  -18.1930   21.3100 C.2   337  VAL337      0.2434
     89  O          3.1580  -17.9310   22.0340 O.2   337  VAL337     -0.2733
     90  CB         0.1260  -17.9670   22.7590 C.3   337  VAL337      0.0265
     91  CG1       -0.0430  -16.6450   22.0630 C.3   337  VAL337      0.0020
     92  CG2       -1.2270  -18.6140   22.9930 C.3   337  VAL337      0.0020
     93  N          2.1550  -17.8560   20.0170 N.am  338  PRO338     -0.2718
     94  CA         3.4090  -17.5110   19.3270 C.3   338  PRO338      0.1535
     95  C          4.2080  -16.3670   19.9300 C.2   338  PRO338      0.2598
     96  O          5.4180  -16.5230   20.1240 O.2   338  PRO338     -0.2715
     97  CB         2.9190  -17.1810   17.9130 C.3   338  PRO338      0.0310
     98  CG         1.7560  -18.0930   17.7260 C.3   338  PRO338      0.0237
     99  CD         1.0600  -18.1130   19.0650 C.3   338  PRO338      0.0939
    100  N          3.5980  -15.2200   20.2160 N.am  339  PHE339     -0.1974
    101  CA         4.3740  -14.1260   20.7840 C.3   339  PHE339      0.1639
    102  C          4.2370  -13.9860   22.2940 C.2   339  PHE339      0.2290
    103  O          5.0400  -13.2740   22.9070 O.2   339  PHE339     -0.2864
    104  CB         3.9930  -12.8090   20.1000 C.3   339  PHE339      0.0560
    105  CG         4.4910  -12.7080   18.6900 C.ar  339  PHE339     -0.0200
    106  CD1        5.7030  -12.1000   18.4100 C.ar  339  PHE339     -0.0042
    107  CD2        3.7580  -13.2480   17.6450 C.ar  339  PHE339     -0.0042
    108  CE1        6.1670  -12.0190   17.1130 C.ar  339  PHE339     -0.0003
    109  CE2        4.2160  -13.1700   16.3460 C.ar  339  PHE339     -0.0003
    110  CZ         5.4220  -12.5540   16.0790 C.ar  339  PHE339     -0.0000
    111  N         -5.6790  -21.5510   24.9930 N.3   386  TYR386     -0.1241
    112  CA        -5.7180  -21.6940   23.5390 C.3   386  TYR386      0.1605
    113  C         -5.8820  -23.1400   23.0870 C.2   386  TYR386      0.2264
    114  O         -6.5210  -23.3980   22.0610 O.2   386  TYR386     -0.2867
    115  CB        -4.4290  -21.0920   22.9570 C.3   386  TYR386      0.0534
    116  CG        -4.3010  -21.1480   21.4480 C.ar  386  TYR386     -0.0201
    117  CD1       -4.6390  -20.0590   20.6520 C.ar  386  TYR386     -0.0009
    118  CD2       -3.8330  -22.2940   20.8200 C.ar  386  TYR386     -0.0009
    119  CE1       -4.5260  -20.1230   19.2660 C.ar  386  TYR386      0.0417
    120  CE2       -3.7220  -22.3660   19.4520 C.ar  386  TYR386      0.0417
    121  CZ        -4.0660  -21.2850   18.6810 C.ar  386  TYR386      0.1957
    122  OH        -3.9360  -21.4040   17.3240 O.3   386  TYR386     -0.2866
    123  N         -7.5540   -9.1630   26.8970 N.3   414  PHE414     -0.1241
    124  CA        -8.7050   -9.0890   25.9870 C.3   414  PHE414      0.1605
    125  C         -9.9850   -8.6980   26.7220 C.2   414  PHE414      0.2264
    126  O        -11.0370   -8.6340   26.0790 O.2   414  PHE414     -0.2867
    127  CB        -8.9710  -10.3860   25.1960 C.3   414  PHE414      0.0534
    128  CG        -7.7200  -11.1210   24.7910 C.ar  414  PHE414     -0.0203
    129  CD1       -6.6390  -10.4430   24.2490 C.ar  414  PHE414     -0.0042
    130  CD2       -7.6230  -12.4960   24.9760 C.ar  414  PHE414     -0.0042
    131  CE1       -5.4830  -11.1240   23.8960 C.ar  414  PHE414     -0.0003
    132  CE2       -6.4760  -13.1800   24.6270 C.ar  414  PHE414     -0.0003
    133  CZ        -5.4040  -12.4940   24.0850 C.ar  414  PHE414     -0.0000
    134  N        -13.5000  -17.3130   22.0690 N.3   423  HIS423     -0.1241
    135  CA       -12.8090  -18.4020   22.7530 C.3   423  HIS423      0.1621
    136  C        -13.7930  -19.3450   23.4340 C.2   423  HIS423      0.2264
    137  O        -13.6830  -20.5690   23.3120 O.2   423  HIS423     -0.2867
    138  CB       -11.8260  -17.8200   23.7730 C.3   423  HIS423      0.0745
    139  CG       -10.8970  -18.8270   24.3820 C.ar  423  HIS423      0.0817
    140  ND1      -11.0910  -20.1890   24.2850 N.ar  423  HIS423     -0.2268
    141  CD2       -9.7610  -18.6610   25.1000 C.ar  423  HIS423      0.1154
    142  CE1      -10.1150  -20.8170   24.9170 C.ar  423  HIS423      0.1986
    143  NE2       -9.2940  -19.9130   25.4190 N.ar  423  HIS423     -0.2212
@<TRIPOS>BOND
     1    33    32    2
     2    32    31    1
     3    31    30    1
     4    31    34    1
     5    36    38   ar
     6    36    35   ar
     7    38    40   ar
     8    34    35    1
     9    35    37   ar
    10    40    41    1
    11    40    39   ar
    12    37    39   ar
    13    48    47    1
    14    25    24    2
    15    47    49    1
    16    47    46    1
    17    24    23    1
    18    42    43    1
    19    22    23    1
    20    46    43    1
    21    23    26    1
    22    43    44    1
    23    75    74    2
    24    64    63    2
    25    60    59    2
    26    26    27    1
    27    44    50   am
    28    44    45    2
    29    28    27    1
    30    27    29    1
    31    74    73    1
    32    50    51    1
    33    63    62    1
    34    72    73    1
    35    59    58    1
    36    59    61   am
    37    57    58    1
    38    57    52   am
    39    68    70   ar
    40    68    66   ar
    41    73    76    1
    42    65    62    1
    43    65    66    1
    44    70    71   ar
    45    62    61    1
    46    51    52    1
    47    51    54    1
    48    66    67   ar
    49    52    53    2
    50    76    77    1
    51    71    69   ar
    52    56    54    1
    53   110   109   ar
    54   110   108   ar
    55    55    54    1
    56    67    69   ar
    57   109   107   ar
    58    77    78   ar
    59    77    79   ar
    60    78    80   ar
    61   108   106   ar
    62   122   121    1
    63    21    19    1
    64   107   105   ar
    65    98    97    1
    66    98    99    1
    67    79    82   ar
    68    79    81   ar
    69    97    94    1
    70    80    81   ar
    71    82    84   ar
    72   106   105   ar
    73     1     2    1
    74    20    19    1
    75   121   119   ar
    76   121   120   ar
    77     9     7   ar
    78     9    10   ar
    79   105   104    1
    80    81    83   ar
    81    19    16    1
    82     7     6   ar
    83    99    93    1
    84   119   117   ar
    85    94    95    1
    86    94    93    1
    87   120   118   ar
    88    10    12   ar
    89    10     8   ar
    90    15    16    1
    91    15     3   am
    92    12    14   ar
    93    84    85   ar
    94    16    17    1
    95    95    96    2
    96    95   100   am
    97     2     3    1
    98     2     5    1
    99     6     8   ar
   100     6     5    1
   101    93    88   am
   102   104   101    1
   103    83    85   ar
   104    17    18    2
   105   100   101    1
   106     8    11   ar
   107     3     4    2
   108    14    13   ar
   109   117   116   ar
   110   101   102    1
   111   118   116   ar
   112    11    13   ar
   113    88    87    1
   114    88    89    2
   115   116   115    1
   116    87    86    1
   117    87    90    1
   118   114   113    2
   119    91    90    1
   120   134   135    1
   121   102   103    2
   122   135   136    1
   123   135   138    1
   124    90    92    1
   125   115   112    1
   126   113   112    1
   127   137   136    2
   128   112   111    1
   129   138   139    1
   130   131   133   ar
   131   131   129   ar
   132   133   132   ar
   133   129   128   ar
   134   140   139   ar
   135   140   142   ar
   136   139   141   ar
   137   132   130   ar
   138   128   130   ar
   139   128   127    1
   140   142   143   ar
   141   141   143   ar
   142   127   124    1
   143   124   125    1
   144   124   123    1
   145   126   125    2
