@<TRIPOS>MOLECULE
tmp/5n6lA13.pdb
 83 78 0 0 0
SMALL
GASTEIGER

@<TRIPOS>ATOM
      1  N        -13.5200   -2.7200   -8.6210 N.3     9  ARG9       -0.1245
      2  CA       -13.4470   -1.8630   -7.4420 C.3     9  ARG9        0.1563
      3  C        -14.6400   -2.0680   -6.5230 C.2     9  ARG9        0.2260
      4  O        -14.4970   -2.0480   -5.2960 O.2     9  ARG9       -0.2867
      5  CB       -13.3480   -0.3970   -7.8650 C.3     9  ARG9        0.0307
      6  CG       -11.9970    0.0010   -8.4190 C.3     9  ARG9        0.0489
      7  CD       -11.9090    1.5140   -8.5380 C.3     9  ARG9        0.2205
      8  NE       -10.7590    2.0700   -7.8270 N.pl3   9  ARG9       -0.0865
      9  CZ        -9.7160    2.6370   -8.4250 C.cat   9  ARG9        0.5346
     10  NH1       -9.6790    2.7220   -9.7470 N.pl3   9  ARG9        0.1354
     11  NH2       -8.7120    3.1220   -7.7060 N.pl3   9  ARG9        0.1354
     12  N        -14.2130   -5.6270   -4.4600 N.3    12  LEU12      -0.1231
     13  CA       -13.3170   -5.5580   -3.3040 C.3    12  LEU12       0.1693
     14  C        -14.0100   -4.9150   -2.1100 C.2    12  LEU12       0.2591
     15  O        -13.8230   -5.3450   -0.9660 O.2    12  LEU12      -0.2718
     16  CB       -12.0350   -4.8010   -3.6620 C.3    12  LEU12       0.0284
     17  CG       -11.0720   -5.4060   -4.6890 C.3    12  LEU12       0.0019
     18  CD1       -9.9050   -4.4700   -4.9290 C.3    12  LEU12       0.0001
     19  CD2      -10.5490   -6.7480   -4.2080 C.3    12  LEU12       0.0001
     20  N        -14.8130   -3.8790   -2.3610 N.am   13  LEU13      -0.1980
     21  CA       -15.5520   -3.2270   -1.2870 C.3    13  LEU13       0.1596
     22  C        -16.6260   -4.1490   -0.7270 C.2    13  LEU13       0.2287
     23  O        -16.7860   -4.2670    0.4940 O.2    13  LEU13      -0.2864
     24  CB       -16.1790   -1.9380   -1.8130 C.3    13  LEU13       0.0297
     25  CG       -17.0420   -1.1420   -0.8410 C.3    13  LEU13       0.0022
     26  CD1      -16.2860   -0.8780    0.4510 C.3    13  LEU13       0.0001
     27  CD2      -17.5190    0.1470   -1.4860 C.3    13  LEU13       0.0001
     28  N        -15.1830   -6.7890    1.3720 N.3    16  LEU16      -0.1245
     29  CA       -14.8530   -6.2740    2.6940 C.3    16  LEU16       0.1561
     30  C        -16.0620   -6.3300    3.6200 C.2    16  LEU16       0.2260
     31  O        -15.9340   -6.6620    4.8040 O.2    16  LEU16      -0.2867
     32  CB       -14.3310   -4.8440    2.5560 C.3    16  LEU16       0.0270
     33  CG       -13.6810   -4.1470    3.7460 C.3    16  LEU16       0.0019
     34  CD1      -12.4630   -4.9200    4.2130 C.3    16  LEU16       0.0001
     35  CD2      -13.3000   -2.7290    3.3600 C.3    16  LEU16       0.0001
     36  N         -8.7550  -11.9430   -0.5790 N.3    59  PHE59      -0.1227
     37  CA        -7.9760  -11.2510    0.4420 C.3    59  PHE59       0.1736
     38  C         -8.8110  -10.2050    1.1690 C.2    59  PHE59       0.2595
     39  O         -8.7570  -10.1090    2.4010 O.2    59  PHE59      -0.2718
     40  CB        -6.7440  -10.6080   -0.1900 C.3    59  PHE59       0.0547
     41  CG        -5.9140   -9.8160    0.7760 C.ar   59  PHE59      -0.0202
     42  CD1       -6.0820   -8.4490    0.8900 C.ar   59  PHE59      -0.0042
     43  CD2       -4.9690  -10.4380    1.5730 C.ar   59  PHE59      -0.0042
     44  CE1       -5.3230   -7.7170    1.7770 C.ar   59  PHE59      -0.0003
     45  CE2       -4.2050   -9.7100    2.4640 C.ar   59  PHE59      -0.0003
     46  CZ        -4.3820   -8.3480    2.5660 C.ar   59  PHE59      -0.0000
     47  N         -9.5790   -9.4050    0.4250 N.am   60  CYS60      -0.1970
     48  CA       -10.4210   -8.3870    1.0490 C.3    60  CYS60       0.1712
     49  C        -11.4710   -9.0230    1.9540 C.2    60  CYS60       0.2296
     50  O        -11.6980   -8.5600    3.0780 O.2    60  CYS60      -0.2864
     51  CB       -11.0780   -7.5120   -0.0190 C.3    60  CYS60       0.0983
     52  SG        -9.9660   -6.2920   -0.7620 S.3    60  CYS60      -0.0798
     53  N         -9.9060   -9.9000    4.9990 N.3    63  PHE63      -0.1241
     54  CA        -9.5610   -8.7090    5.7640 C.3    63  PHE63       0.1605
     55  C        -10.7800   -8.1670    6.4990 C.2    63  PHE63       0.2264
     56  O        -10.6770   -7.7170    7.6470 O.2    63  PHE63      -0.2867
     57  CB        -8.9680   -7.6520    4.8350 C.3    63  PHE63       0.0534
     58  CG        -8.1410   -6.6270    5.5420 C.ar   63  PHE63      -0.0203
     59  CD1       -6.8330   -6.9130    5.8930 C.ar   63  PHE63      -0.0042
     60  CD2       -8.6630   -5.3890    5.8710 C.ar   63  PHE63      -0.0042
     61  CE1       -6.0580   -5.9840    6.5500 C.ar   63  PHE63      -0.0003
     62  CE2       -7.8920   -4.4540    6.5300 C.ar   63  PHE63      -0.0003
     63  CZ        -6.5870   -4.7520    6.8710 C.ar   63  PHE63      -0.0000
     64  N         -3.3600   -4.8010   12.0020 N.3    93  VAL93      -0.1231
     65  CA        -3.6380   -4.8560   10.5680 C.3    93  VAL93       0.1692
     66  C         -2.7460   -5.8890    9.8980 C.2    93  VAL93       0.2591
     67  O         -3.1730   -6.6010    8.9810 O.2    93  VAL93      -0.2718
     68  CB        -3.4630   -3.4630    9.9390 C.3    93  VAL93       0.0266
     69  CG1       -3.6300   -3.5400    8.4320 C.3    93  VAL93       0.0020
     70  CG2       -4.4530   -2.4910   10.5410 C.3    93  VAL93       0.0020
     71  N         -1.4960   -5.9930   10.3530 N.am   94  LEU94      -0.1980
     72  CA        -0.5810   -6.9860    9.8020 C.3    94  LEU94       0.1596
     73  C         -1.0910   -8.4030   10.0510 C.2    94  LEU94       0.2287
     74  O         -1.0360   -9.2540    9.1540 O.2    94  LEU94      -0.2864
     75  CB         0.8100   -6.7970   10.4070 C.3    94  LEU94       0.0297
     76  CG         1.9620   -7.6100    9.8170 C.3    94  LEU94       0.0022
     77  CD1        2.4260   -6.9930    8.5050 C.3    94  LEU94       0.0001
     78  CD2        3.1140   -7.7280   10.8050 C.3    94  LEU94       0.0001
     79  N         -4.0110   -9.1190    7.8450 N.3    97  ALA97      -0.1245
     80  CA        -3.4990   -9.2720    6.4880 C.3    97  ALA97       0.1562
     81  C         -2.8870  -10.6520    6.2940 C.2    97  ALA97       0.2260
     82  O         -3.1490  -11.3260    5.2910 O.2    97  ALA97      -0.2867
     83  CB        -2.4760   -8.1760    6.1890 C.3    97  ALA97       0.0290
@<TRIPOS>BOND
     1    10     9    1
     2     1     2    1
     3     7     6    1
     4     7     8    1
     5     9     8    2
     6     9    11    1
     7     6     5    1
     8     5     2    1
     9     2     3    1
    10     3     4    2
    11    18    17    1
    12    17    19    1
    13    17    16    1
    14    12    13    1
    15    16    13    1
    16    13    14    1
    17    20    14   am
    18    20    21    1
    19    14    15    2
    20    24    21    1
    21    24    25    1
    22    27    25    1
    23    21    22    1
    24    25    26    1
    25    52    51    1
    26    22    23    2
    27    36    37    1
    28    40    37    1
    29    40    41    1
    30    51    48    1
    31    47    48    1
    32    47    38   am
    33    37    38    1
    34    41    42   ar
    35    41    43   ar
    36    42    44   ar
    37    48    49    1
    38    38    39    2
    39    28    29    1
    40    43    45   ar
    41    44    46   ar
    42    49    50    2
    43    45    46   ar
    44    32    29    1
    45    32    33    1
    46    29    30    1
    47    35    33    1
    48    30    31    2
    49    33    34    1
    50    57    58    1
    51    57    54    1
    52    53    54    1
    53    82    81    2
    54    58    60   ar
    55    58    59   ar
    56    54    55    1
    57    60    62   ar
    58    59    61   ar
    59    83    80    1
    60    81    80    1
    61    80    79    1
    62    55    56    2
    63    62    63   ar
    64    61    63   ar
    65    69    68    1
    66    77    76    1
    67    67    66    2
    68    74    73    2
    69    72    73    1
    70    72    71    1
    71    72    75    1
    72    76    75    1
    73    76    78    1
    74    66    71   am
    75    66    65    1
    76    68    70    1
    77    68    65    1
    78    65    64    1
