@<TRIPOS>MOLECULE
tmp/5n6mA01.pdb
 109 111 0 0 0
SMALL
GASTEIGER

@<TRIPOS>ATOM
      1  N         98.0720    8.0990   14.3140 N.3     6  GLY6       -0.1210
      2  CA        97.9540    6.6550   14.3180 C.3     6  GLY6        0.1956
      3  C         96.8050    6.1830   15.1950 C.2     6  GLY6        0.2611
      4  O         96.0640    6.9660   15.7930 O.2     6  GLY6       -0.2717
      5  N         96.6620    4.8630   15.2330 N.am    7  TRP7       -0.1976
      6  CA        95.5730    4.1800   15.9230 C.3     7  TRP7        0.1640
      7  C         95.6140    4.3020   17.4470 C.2     7  TRP7        0.2290
      8  O         94.5490    4.4660   18.0550 O.2     7  TRP7       -0.2864
      9  CB        95.5440    2.7110   15.5020 C.3     7  TRP7        0.0576
     10  CG        95.2320    2.5590   14.0510 C.ar    7  TRP7        0.0006
     11  CD1       96.1080    2.2600   13.0510 C.ar    7  TRP7        0.0946
     12  CD2       93.9540    2.7350   13.4270 C.ar    7  TRP7        0.0152
     13  NE1       95.4530    2.2220   11.8440 N.ar    7  TRP7       -0.2442
     14  CE2       94.1300    2.5110   12.0480 C.ar    7  TRP7        0.0810
     15  CE3       92.6780    3.0520   13.9030 C.ar    7  TRP7        0.0012
     16  CZ2       93.0780    2.5940   11.1390 C.ar    7  TRP7        0.0191
     17  CZ3       91.6350    3.1340   12.9980 C.ar    7  TRP7        0.0001
     18  CH2       91.8410    2.9060   11.6320 C.ar    7  TRP7        0.0015
     19  N         93.6880    7.2190   18.2550 N.3    10  HIS10      -0.1241
     20  CA        92.3140    7.0820   17.7780 C.3    10  HIS10       0.1621
     21  C         91.4610    6.3200   18.7810 C.2    10  HIS10       0.2264
     22  O         90.3460    6.7370   19.1130 O.2    10  HIS10      -0.2867
     23  CB        92.2920    6.3680   16.4260 C.3    10  HIS10       0.0745
     24  CG        92.6270    7.2500   15.2640 C.ar   10  HIS10       0.0817
     25  ND1       92.9270    8.5870   15.4040 N.ar   10  HIS10      -0.2268
     26  CD2       92.7020    6.9840   13.9390 C.ar   10  HIS10       0.1154
     27  CE1       93.1770    9.1070   14.2150 C.ar   10  HIS10       0.1986
     28  NE2       93.0460    8.1550   13.3090 N.ar   10  HIS10      -0.2212
     29  N         95.0530   16.0540    8.4140 N.3    50  LYS50      -0.1231
     30  CA        94.7400   14.7680    7.7990 C.3    50  LYS50       0.1693
     31  C         94.2600   13.7560    8.8330 C.2    50  LYS50       0.2592
     32  O         93.2760   13.0450    8.6010 O.2    50  LYS50      -0.2718
     33  CB        95.9600   14.2380    7.0400 C.3    50  LYS50       0.0285
     34  CG        97.2450   14.2000    7.8590 C.3    50  LYS50       0.0035
     35  CD        98.4480   13.7540    7.0350 C.3    50  LYS50       0.0206
     36  CE        98.8820   14.8330    6.0520 C.3    50  LYS50       0.1093
     37  NZ       100.1070   14.4600    5.2840 N.3    50  LYS50      -0.1314
     38  N         94.9470   13.6620    9.9720 N.am   51  SER51      -0.1952
     39  CA        94.5520   12.7250   11.0140 C.3    51  SER51       0.1924
     40  C         93.7300   13.3490   12.1380 C.2    51  SER51       0.2314
     41  O         93.2210   12.6080   12.9840 O.2    51  SER51      -0.2863
     42  CB        95.7930   12.0550   11.6200 C.3    51  SER51       0.2116
     43  OG        96.6450   13.0110   12.2260 O.3    51  SER51      -0.2180
     44  N         89.9550   12.5200   11.8490 N.3    54  TRP54      -0.1241
     45  CA        89.5760   11.1710   12.2430 C.3    54  TRP54       0.1605
     46  C         89.5740   10.9740   13.7520 C.2    54  TRP54       0.2264
     47  O         88.8160   10.1360   14.2550 O.2    54  TRP54      -0.2867
     48  CB        90.4890   10.1680   11.5480 C.3    54  TRP54       0.0550
     49  CG        90.2940   10.2420   10.0780 C.ar   54  TRP54       0.0003
     50  CD1       91.2170   10.5980    9.1400 C.ar   54  TRP54       0.0946
     51  CD2       89.0710   10.0090    9.3720 C.ar   54  TRP54       0.0152
     52  NE1       90.6500   10.5740    7.8880 N.ar   54  TRP54      -0.2442
     53  CE2       89.3320   10.2160    8.0040 C.ar   54  TRP54       0.0810
     54  CE3       87.7820    9.6300    9.7630 C.ar   54  TRP54       0.0012
     55  CZ2       88.3530   10.0580    7.0260 C.ar   54  TRP54       0.0191
     56  CZ3       86.8120    9.4730    8.7920 C.ar   54  TRP54       0.0001
     57  CH2       87.1020    9.6880    7.4400 C.ar   54  TRP54       0.0015
     58  N         86.3200   12.2580   14.5670 N.3    57  TRP57      -0.1227
     59  CA        85.3250   11.2850   14.1330 C.3    57  TRP57       0.1737
     60  C         85.2860   10.0840   15.0710 C.2    57  TRP57       0.2595
     61  O         84.2080    9.5570   15.3670 O.2    57  TRP57      -0.2718
     62  CB        85.6030   10.8370   12.7000 C.3    57  TRP57       0.0564
     63  CG        84.5460    9.9240   12.1690 C.ar   57  TRP57       0.0003
     64  CD1       83.4290   10.2820   11.4740 C.ar   57  TRP57       0.0946
     65  CD2       84.4960    8.4990   12.3030 C.ar   57  TRP57       0.0152
     66  NE1       82.6900    9.1680   11.1600 N.ar   57  TRP57      -0.2442
     67  CE2       83.3230    8.0600   11.6590 C.ar   57  TRP57       0.0810
     68  CE3       85.3320    7.5510   12.9030 C.ar   57  TRP57       0.0012
     69  CZ2       82.9630    6.7150   11.5970 C.ar   57  TRP57       0.0191
     70  CZ3       84.9730    6.2160   12.8400 C.ar   57  TRP57       0.0001
     71  CH2       83.7990    5.8110   12.1920 C.ar   57  TRP57       0.0015
     72  N         86.4510    9.6350   15.5460 N.am   58  TRP58      -0.1976
     73  CA        86.4790    8.5300   16.4960 C.3    58  TRP58       0.1640
     74  C         85.9690    8.9390   17.8710 C.2    58  TRP58       0.2290
     75  O         85.4970    8.0800   18.6230 O.2    58  TRP58      -0.2864
     76  CB        87.8930    7.9600   16.6110 C.3    58  TRP58       0.0576
     77  CG        88.2580    7.0150   15.5040 C.ar   58  TRP58       0.0006
     78  CD1       89.2560    7.1730   14.5880 C.ar   58  TRP58       0.0946
     79  CD2       87.6280    5.7640   15.1990 C.ar   58  TRP58       0.0152
     80  NE1       89.2880    6.0990   13.7320 N.ar   58  TRP58      -0.2442
     81  CE2       88.2980    5.2200   14.0860 C.ar   58  TRP58       0.0810
     82  CE3       86.5620    5.0520   15.7590 C.ar   58  TRP58       0.0012
     83  CZ2       87.9390    3.9970   13.5220 C.ar   58  TRP58       0.0191
     84  CZ3       86.2060    3.8380   15.1970 C.ar   58  TRP58       0.0001
     85  CH2       86.8920    3.3230   14.0900 C.ar   58  TRP58       0.0015
     86  N         75.2450    2.8210   10.9130 N.3    92  GLY92      -0.1225
     87  CA        75.2380    3.8180    9.8560 C.3    92  GLY92       0.1811
     88  C         74.9090    5.2050   10.3710 C.2    92  GLY92       0.2280
     89  O         75.4710    6.2010    9.9050 O.2    92  GLY92      -0.2866
     90  N         78.0410    6.5140   12.5820 N.3    95  ALA95      -0.1231
     91  CA        79.1740    6.9490   11.7780 C.3    95  ALA95       0.1694
     92  C         78.8860    8.2570   11.0500 C.2    95  ALA95       0.2592
     93  O         79.8070    9.0480   10.8240 O.2    95  ALA95      -0.2718
     94  CB        79.5610    5.8650   10.7780 C.3    95  ALA95       0.0304
     95  N         77.6300    8.4990   10.6670 N.am   96  GLY96      -0.1957
     96  CA        77.3020    9.7570   10.0190 C.3    96  GLY96       0.1869
     97  C         77.2510   10.9180   10.9920 C.2    96  GLY96       0.2309
     98  O         77.8120   11.9900   10.7360 O.2    96  GLY96      -0.2863
     99  N         80.4060   12.9360   12.4260 N.3    99  PHE99      -0.1241
    100  CA        81.1100   14.0240   11.7640 C.3    99  PHE99       0.1605
    101  C         80.8150   15.3810   12.3820 C.2    99  PHE99       0.2264
    102  O         81.4920   16.3570   12.0390 O.2    99  PHE99      -0.2867
    103  CB        80.7730   14.0420   10.2740 C.3    99  PHE99       0.0534
    104  CG        81.4440   12.9520    9.4960 C.ar   99  PHE99      -0.0203
    105  CD1       82.7930   13.0330    9.1940 C.ar   99  PHE99      -0.0042
    106  CD2       80.7330   11.8430    9.0750 C.ar   99  PHE99      -0.0042
    107  CE1       83.4200   12.0300    8.4810 C.ar   99  PHE99      -0.0003
    108  CE2       81.3550   10.8360    8.3610 C.ar   99  PHE99      -0.0003
    109  CZ        82.7010   10.9310    8.0640 C.ar   99  PHE99      -0.0000
@<TRIPOS>BOND
     1    37    36    1
     2    36    35    1
     3    55    57   ar
     4    55    53   ar
     5    35    34    1
     6    33    30    1
     7    33    34    1
     8    57    56   ar
     9    30    29    1
    10    30    31    1
    11    52    53   ar
    12    52    50   ar
    13    53    51   ar
    14   109   108   ar
    15   109   107   ar
    16   108   106   ar
    17   107   105   ar
    18    32    31    2
    19    56    54   ar
    20    31    38   am
    21   106   104   ar
    22    50    49   ar
    23   105   104   ar
    24    51    54   ar
    25    51    49   ar
    26   104   103    1
    27    87    88    1
    28    87    86    1
    29    89    88    2
    30    38    39    1
    31    96    95    1
    32    96    97    1
    33    49    48    1
    34   103   100    1
    35    95    92   am
    36    98    97    2
    37    94    91    1
    38    93    92    2
    39    39    42    1
    40    39    40    1
    41    92    91    1
    42    16    18   ar
    43    16    14   ar
    44    66    64   ar
    45    66    67   ar
    46    64    63   ar
    47    48    45    1
    48    69    67   ar
    49    69    71   ar
    50    42    43    1
    51    18    17   ar
    52    67    65   ar
    53   100   101    1
    54   100    99    1
    55    91    90    1
    56    13    14   ar
    57    13    11   ar
    58    44    45    1
    59   102   101    2
    60    14    12   ar
    61    40    41    2
    62    63    65   ar
    63    63    62    1
    64    71    70   ar
    65    45    46    1
    66    65    68   ar
    67    62    59    1
    68    70    68   ar
    69    17    15   ar
    70    11    10   ar
    71    28    26   ar
    72    28    27   ar
    73    12    15   ar
    74    12    10   ar
    75    83    81   ar
    76    83    85   ar
    77    80    81   ar
    78    80    78   ar
    79    46    47    2
    80    26    24   ar
    81    10     9    1
    82    81    79   ar
    83    85    84   ar
    84    59    58    1
    85    59    60    1
    86    27    25   ar
    87     1     2    1
    88     2     3    1
    89    78    77   ar
    90    60    61    2
    91    60    72   am
    92     3     5   am
    93     3     4    2
    94    84    82   ar
    95    79    77   ar
    96    79    82   ar
    97     5     6    1
    98    24    25   ar
    99    24    23    1
   100     9     6    1
   101    77    76    1
   102    72    73    1
   103     6     7    1
   104    23    20    1
   105    73    76    1
   106    73    74    1
   107     7     8    2
   108    20    19    1
   109    20    21    1
   110    74    75    2
   111    21    22    2
