@<TRIPOS>MOLECULE
tmp/5n6mA04.pdb
 147 138 0 0 0
SMALL
GASTEIGER

@<TRIPOS>ATOM
      1  N         91.1740   28.9120   25.9570 N.3   123  LEU123     -0.1245
      2  CA        90.0270   29.7530   25.6340 C.3   123  LEU123      0.1561
      3  C         89.4900   29.4340   24.2460 C.2   123  LEU123      0.2260
      4  O         88.2770   29.4800   24.0130 O.2   123  LEU123     -0.2867
      5  CB        90.4090   31.2330   25.7260 C.3   123  LEU123      0.0270
      6  CG        90.3050   31.9610   27.0750 C.3   123  LEU123      0.0019
      7  CD1       88.9010   31.8420   27.6480 C.3   123  LEU123      0.0001
      8  CD2       91.3490   31.4760   28.0740 C.3   123  LEU123      0.0001
      9  N         75.2410   28.5810   36.8980 N.3   160  LEU160     -0.1245
     10  CA        75.5140   29.2320   35.6280 C.3   160  LEU160      0.1561
     11  C         74.5070   28.8750   34.5460 C.2   160  LEU160      0.2260
     12  O         74.4830   29.5360   33.5020 O.2   160  LEU160     -0.2867
     13  CB        76.9240   28.8770   35.1440 C.3   160  LEU160      0.0270
     14  CG        78.0540   29.2560   36.1040 C.3   160  LEU160      0.0019
     15  CD1       79.4100   28.9060   35.5090 C.3   160  LEU160      0.0001
     16  CD2       77.9840   30.7340   36.4640 C.3   160  LEU160      0.0001
     17  N         72.1750   31.6530   34.1170 N.3   163  VAL163     -0.1245
     18  CA        72.8710   32.7990   33.5390 C.3   163  VAL163      0.1561
     19  C         73.0800   32.5950   32.0400 C.2   163  VAL163      0.2260
     20  O         72.6620   33.4180   31.2200 O.2   163  VAL163     -0.2867
     21  CB        74.2040   33.0450   34.2640 C.3   163  VAL163      0.0252
     22  CG1       74.9050   34.2600   33.6780 C.3   163  VAL163      0.0019
     23  CG2       73.9630   33.2210   35.7510 C.3   163  VAL163      0.0019
     24  N         76.5500   27.9680   28.4290 N.3   168  LEU168     -0.1245
     25  CA        77.5900   28.4090   29.3510 C.3   168  LEU168      0.1561
     26  C         78.1440   27.2450   30.1620 C.2   168  LEU168      0.2260
     27  O         79.3460   27.2030   30.4530 O.2   168  LEU168     -0.2867
     28  CB        77.0390   29.4980   30.2700 C.3   168  LEU168      0.0270
     29  CG        78.0070   30.1410   31.2610 C.3   168  LEU168      0.0019
     30  CD1       79.1640   30.7720   30.5160 C.3   168  LEU168      0.0001
     31  CD2       77.2880   31.1720   32.1170 C.3   168  LEU168      0.0001
     32  N         80.5010   25.6480   27.9620 N.3   171  PHE171     -0.1227
     33  CA        81.6750   26.4840   27.7410 C.3   171  PHE171      0.1736
     34  C         82.6480   26.3700   28.9060 C.2   171  PHE171      0.2595
     35  O         83.8610   26.2390   28.7090 O.2   171  PHE171     -0.2718
     36  CB        81.2470   27.9370   27.5280 C.3   171  PHE171      0.0547
     37  CG        82.3040   28.7960   26.8890 C.ar  171  PHE171     -0.0202
     38  CD1       83.1880   29.5270   27.6660 C.ar  171  PHE171     -0.0042
     39  CD2       82.4040   28.8840   25.5100 C.ar  171  PHE171     -0.0042
     40  CE1       84.1540   30.3230   27.0790 C.ar  171  PHE171     -0.0003
     41  CE2       83.3670   29.6800   24.9170 C.ar  171  PHE171     -0.0003
     42  CZ        84.2430   30.4000   25.7020 C.ar  171  PHE171     -0.0000
     43  N         82.1280   26.3960   30.1340 N.am  172  VAL172     -0.1980
     44  CA        82.9900   26.2980   31.3040 C.3   172  VAL172      0.1595
     45  C         83.6520   24.9280   31.3710 C.2   172  VAL172      0.2287
     46  O         84.8460   24.8150   31.6750 O.2   172  VAL172     -0.2864
     47  CB        82.1830   26.6050   32.5770 C.3   172  VAL172      0.0276
     48  CG1       83.0500   26.4070   33.7990 C.3   172  VAL172      0.0022
     49  CG2       81.6540   28.0230   32.5210 C.3   172  VAL172      0.0022
     50  N         86.3760   24.8450   28.7810 N.3   175  LEU175     -0.1245
     51  CA        87.4910   25.6830   29.2040 C.3   175  LEU175      0.1561
     52  C         88.2440   25.0440   30.3640 C.2   175  LEU175      0.2260
     53  O         89.4800   25.0320   30.3830 O.2   175  LEU175     -0.2867
     54  CB        86.9850   27.0730   29.5850 C.3   175  LEU175      0.0270
     55  CG        87.9950   28.0540   30.1770 C.3   175  LEU175      0.0019
     56  CD1       89.0880   28.3720   29.1720 C.3   175  LEU175      0.0001
     57  CD2       87.2830   29.3190   30.6210 C.3   175  LEU175      0.0001
     58  N         90.6630   31.7730   35.5230 N.3   199  LEU199     -0.1245
     59  CA        89.8330   31.2250   34.4620 C.3   199  LEU199      0.1561
     60  C         89.3370   29.8230   34.7980 C.2   199  LEU199      0.2260
     61  O         88.2390   29.4450   34.3770 O.2   199  LEU199     -0.2867
     62  CB        90.6100   31.2150   33.1450 C.3   199  LEU199      0.0270
     63  CG        90.9990   32.5990   32.6150 C.3   199  LEU199      0.0019
     64  CD1       92.2030   32.5060   31.6930 C.3   199  LEU199      0.0001
     65  CD2       89.8240   33.2380   31.8940 C.3   199  LEU199      0.0001
     66  N         87.3500   30.5010   38.7100 N.3   202  GLY202     -0.1210
     67  CA        86.3970   31.5870   38.7320 C.3   202  GLY202      0.1940
     68  C         84.9610   31.1780   38.4590 C.2   202  GLY202      0.2453
     69  O         84.0560   31.4660   39.2500 O.2   202  GLY202     -0.2732
     70  N         84.7190   30.4960   37.3330 N.am  203  PRO203     -0.2728
     71  CA        83.3380   30.1090   37.0110 C.3   203  PRO203      0.1401
     72  C         82.7700   29.0690   37.9560 C.2   203  PRO203      0.2269
     73  O         81.5470   29.0100   38.1290 O.2   203  PRO203     -0.2865
     74  CB        83.4470   29.5670   35.5780 C.3   203  PRO203      0.0296
     75  CG        84.7270   30.1250   35.0490 C.3   203  PRO203      0.0237
     76  CD        85.6380   30.1760   36.2280 C.3   203  PRO203      0.0939
     77  N         81.6630   30.9980   41.0430 N.3   206  ALA206     -0.1245
     78  CA        80.4410   31.7250   40.7160 C.3   206  ALA206      0.1562
     79  C         79.2530   30.7860   40.5530 C.2   206  ALA206      0.2260
     80  O         78.1190   31.1650   40.8680 O.2   206  ALA206     -0.2867
     81  CB        80.6390   32.5520   39.4450 C.3   206  ALA206      0.0290
     82  N         75.7510   30.9100   42.9720 N.3   210  LEU210     -0.1245
     83  CA        74.4790   31.1690   42.3150 C.3   210  LEU210      0.1561
     84  C         73.5580   29.9540   42.2880 C.2   210  LEU210      0.2260
     85  O         72.4820   30.0280   41.6840 O.2   210  LEU210     -0.2867
     86  CB        74.7240   31.6710   40.8900 C.3   210  LEU210      0.0270
     87  CG        75.3630   33.0570   40.7940 C.3   210  LEU210      0.0019
     88  CD1       75.9780   33.2670   39.4220 C.3   210  LEU210      0.0001
     89  CD2       74.3400   34.1430   41.0920 C.3   210  LEU210      0.0001
     90  N         65.6880   33.6100   40.4780 N.3   215  TRP215     -0.1241
     91  CA        65.6920   34.7340   39.5580 C.3   215  TRP215      0.1605
     92  C         64.2860   35.1740   39.1910 C.2   215  TRP215      0.2264
     93  O         64.1120   36.2620   38.6320 O.2   215  TRP215     -0.2867
     94  CB        66.4600   34.3740   38.2770 C.3   215  TRP215      0.0550
     95  CG        67.9350   34.0720   38.4540 C.ar  215  TRP215      0.0003
     96  CD1       68.5210   32.8380   38.5060 C.ar  215  TRP215      0.0946
     97  CD2       69.0020   35.0250   38.5650 C.ar  215  TRP215      0.0152
     98  NE1       69.8830   32.9650   38.6530 N.ar  215  TRP215     -0.2442
     99  CE2       70.2030   34.2970   38.6920 C.ar  215  TRP215      0.0810
    100  CE3       69.0580   36.4220   38.5730 C.ar  215  TRP215      0.0012
    101  CZ2       71.4440   34.9190   38.8280 C.ar  215  TRP215      0.0191
    102  CZ3       70.2900   37.0380   38.7080 C.ar  215  TRP215      0.0001
    103  CH2       71.4650   36.2880   38.8340 C.ar  215  TRP215      0.0015
    104  N         68.3820   35.5480   33.7790 N.3   464  PRO464     -0.2116
    105  CA        69.3940   36.1890   32.9210 C.3   464  PRO464      0.1372
    106  C         69.5760   35.5250   31.5650 C.2   464  PRO464      0.2244
    107  O         69.9350   36.2100   30.6030 O.2   464  PRO464     -0.2868
    108  CB        70.6730   36.0950   33.7670 C.3   464  PRO464      0.0268
    109  CG        70.1840   36.0500   35.1710 C.3   464  PRO464      0.0207
    110  CD        68.9010   35.2680   35.1300 C.3   464  PRO464      0.0892
    111  N         66.9200   36.8730   29.3700 N.3   467  GLN467     -0.1231
    112  CA        67.1310   38.2530   28.9640 C.3   467  GLN467      0.1698
    113  C         68.1070   38.2670   27.7980 C.2   467  GLN467      0.2592
    114  O         67.6870   38.2950   26.6400 O.2   467  GLN467     -0.2718
    115  CB        67.6720   39.0970   30.1220 C.3   467  GLN467      0.0381
    116  CG        66.6380   39.5880   31.1230 C.3   467  GLN467      0.0905
    117  CD        67.2510   40.5300   32.1440 C.2   467  GLN467      0.2608
    118  OE1       67.8790   40.0940   33.1100 O.2   467  GLN467     -0.2717
    119  NE2       67.0900   41.8290   31.9210 N.am  467  GLN467     -0.0878
    120  N         69.3940   38.0920   28.0720 N.am  468  TYR468     -0.1976
    121  CA        70.3850   37.9820   27.0100 C.3   468  TYR468      0.1639
    122  C         70.5160   36.5020   26.6910 C.2   468  TYR468      0.2290
    123  O         71.0860   35.7380   27.4750 O.2   468  TYR468     -0.2864
    124  CB        71.7390   38.5680   27.4150 C.3   468  TYR468      0.0560
    125  CG        71.7890   39.2720   28.7580 C.ar  468  TYR468     -0.0198
    126  CD1       72.0630   40.6250   28.8370 C.ar  468  TYR468     -0.0009
    127  CD2       71.5920   38.5780   29.9470 C.ar  468  TYR468     -0.0009
    128  CE1       72.1160   41.2760   30.0590 C.ar  468  TYR468      0.0417
    129  CE2       71.6350   39.2240   31.1710 C.ar  468  TYR468      0.0417
    130  CZ        71.9020   40.5740   31.2190 C.ar  468  TYR468      0.1957
    131  OH        71.9570   41.2250   32.4300 O.3   468  TYR468     -0.2866
    132  N         77.5240   35.2410   24.8740 N.3   473  LEU473     -0.1245
    133  CA        78.5200   34.1790   24.9550 C.3   473  LEU473      0.1561
    134  C         79.0550   33.8160   23.5750 C.2   473  LEU473      0.2260
    135  O         80.2640   33.6180   23.4070 O.2   473  LEU473     -0.2867
    136  CB        77.9270   32.9490   25.6370 C.3   473  LEU473      0.0270
    137  CG        78.9130   31.8250   25.9570 C.3   473  LEU473      0.0019
    138  CD1       80.0040   32.3190   26.8950 C.3   473  LEU473      0.0001
    139  CD2       78.1830   30.6380   26.5560 C.3   473  LEU473      0.0001
    140  N         81.5840   36.4670   22.5280 N.3   476  LEU476     -0.1245
    141  CA        82.8850   36.2340   23.1460 C.3   476  LEU476      0.1561
    142  C         83.6120   35.0720   22.4800 C.2   476  LEU476      0.2260
    143  O         84.8380   35.1060   22.3150 O.2   476  LEU476     -0.2867
    144  CB        82.7080   35.9650   24.6390 C.3   476  LEU476      0.0270
    145  CG        83.9230   35.4410   25.4000 C.3   476  LEU476      0.0019
    146  CD1       84.8580   36.5850   25.7410 C.3   476  LEU476      0.0001
    147  CD2       83.4840   34.6950   26.6500 C.3   476  LEU476      0.0001
@<TRIPOS>BOND
     1   143   142    2
     2   142   141    1
     3   140   141    1
     4   141   144    1
     5   135   134    2
     6   134   133    1
     7     4     3    2
     8     3     2    1
     9   144   145    1
    10   132   133    1
    11    41    39   ar
    12    41    42   ar
    13   133   136    1
    14   145   146    1
    15   145   147    1
    16    39    37   ar
    17     2     5    1
    18     2     1    1
    19   136   137    1
    20    42    40   ar
    21     5     6    1
    22   137   139    1
    23   137   138    1
    24   114   113    2
    25   122   121    1
    26   122   123    2
    27    37    36    1
    28    37    38   ar
    29   121   124    1
    30   121   120    1
    31     6     7    1
    32     6     8    1
    33    40    38   ar
    34   124   125    1
    35    36    33    1
    36    33    32    1
    37    33    34    1
    38   113   120   am
    39   113   112    1
    40    24    25    1
    41    35    34    2
    42   125   126   ar
    43   125   127   ar
    44    50    51    1
    45   126   128   ar
    46    34    43   am
    47   112   111    1
    48   112   115    1
    49    56    55    1
    50    51    54    1
    51    51    52    1
    52    25    26    1
    53    25    28    1
    54    54    55    1
    55   127   129   ar
    56   128   130   ar
    57   115   116    1
    58    43    44    1
    59    26    27    2
    60    55    57    1
    61    28    29    1
    62    52    53    2
    63    30    29    1
    64   107   106    2
    65   116   117    1
    66   129   130   ar
    67   130   131    1
    68    20    19    2
    69    29    31    1
    70    44    45    1
    71    44    47    1
    72    45    46    2
    73   106   105    1
    74    64    63    1
    75    65    63    1
    76   119   117   am
    77    19    18    1
    78   117   118    2
    79    49    47    1
    80    47    48    1
    81    63    62    1
    82   105   108    1
    83   105   104    1
    84    62    59    1
    85    12    11    2
    86    18    17    1
    87    18    21    1
    88    22    21    1
    89   108   109    1
    90   104   110    1
    91    21    23    1
    92    61    60    2
    93    59    60    1
    94    59    58    1
    95    11    10    1
    96    75    74    1
    97    75    76    1
    98   110   109    1
    99    13    10    1
   100    13    14    1
   101    15    14    1
   102    74    71    1
   103    10     9    1
   104    14    16    1
   105    76    70    1
   106    71    70    1
   107    71    72    1
   108    70    68   am
   109    72    73    2
   110    94    95    1
   111    94    91    1
   112    95    96   ar
   113    95    97   ar
   114    68    67    1
   115    68    69    2
   116    96    98   ar
   117    97   100   ar
   118    97    99   ar
   119   100   102   ar
   120    93    92    2
   121    98    99   ar
   122    99   101   ar
   123   102   103   ar
   124    66    67    1
   125   101   103   ar
   126    92    91    1
   127    88    87    1
   128    81    78    1
   129    91    90    1
   130    79    78    1
   131    79    80    2
   132    78    77    1
   133    87    86    1
   134    87    89    1
   135    86    83    1
   136    85    84    2
   137    84    83    1
   138    83    82    1
