@<TRIPOS>MOLECULE
tmp/5n6nC00.pdb
 205 202 0 0 0
SMALL
GASTEIGER

@<TRIPOS>ATOM
      1  N        -44.5630    2.9470  -20.3410 N.3   170  LYS170     -0.1245
      2  CA       -43.5780    4.0020  -20.5530 C.3   170  LYS170      0.1561
      3  C        -43.3720    4.3680  -22.0160 C.2   170  LYS170      0.2260
      4  O        -42.8250    5.4440  -22.2890 O.2   170  LYS170     -0.2867
      5  CB       -42.2430    3.5970  -19.9220 C.3   170  LYS170      0.0271
      6  CG       -42.4250    3.0050  -18.5420 C.3   170  LYS170      0.0035
      7  CD       -41.1970    2.2720  -18.1090 C.3   170  LYS170      0.0206
      8  CE       -39.9790    3.1500  -18.1890 C.3   170  LYS170      0.1093
      9  NZ       -39.7760    3.8590  -16.9010 N.3   170  LYS170     -0.1314
     10  N        -38.5200   -3.5920   -6.5710 N.3   255  PRO255     -0.2116
     11  CA       -38.1170   -2.5420   -5.6260 C.3   255  PRO255      0.1372
     12  C        -39.2950   -1.8150   -4.9970 C.2   255  PRO255      0.2244
     13  O        -39.1560   -1.2890   -3.8860 O.2   255  PRO255     -0.2868
     14  CB       -37.2560   -1.5970   -6.4870 C.3   255  PRO255      0.0268
     15  CG       -36.9620   -2.3360   -7.7330 C.3   255  PRO255      0.0207
     16  CD       -38.0970   -3.2810   -7.9420 C.3   255  PRO255      0.0892
     17  N        -45.3420   -0.5190   -7.4160 N.3   258  ARG258     -0.1231
     18  CA       -45.7400   -0.1480   -8.7720 C.3   258  ARG258      0.1694
     19  C        -44.9210   -0.8570   -9.8510 C.2   258  ARG258      0.2592
     20  O        -45.2050   -0.6750  -11.0430 O.2   258  ARG258     -0.2718
     21  CB       -45.6360    1.3720   -8.9560 C.3   258  ARG258      0.0321
     22  CG       -46.5520    2.2020   -8.0850 C.3   258  ARG258      0.0489
     23  CD       -46.3260    3.6960   -8.3020 C.3   258  ARG258      0.2205
     24  NE       -44.9730    4.1440   -8.0260 N.pl3 258  ARG258     -0.0865
     25  CZ       -44.3090    4.0200   -6.8850 C.cat 258  ARG258      0.5346
     26  NH1      -44.8860    3.4650   -5.8220 N.pl3 258  ARG258      0.1354
     27  NH2      -43.0480    4.4180   -6.7930 N.pl3 258  ARG258      0.1354
     28  N        -43.9290   -1.6570   -9.4670 N.am  259  PHE259     -0.1976
     29  CA       -43.0170   -2.3310  -10.3810 C.3   259  PHE259      0.1639
     30  C        -43.4770   -3.7610  -10.6400 C.2   259  PHE259      0.2290
     31  O        -43.9570   -4.4360   -9.7380 O.2   259  PHE259     -0.2864
     32  CB       -41.5960   -2.4170   -9.8010 C.3   259  PHE259      0.0560
     33  CG       -40.9620   -1.1060   -9.4550 C.ar  259  PHE259     -0.0200
     34  CD1      -41.5130   -0.2630   -8.5080 C.ar  259  PHE259     -0.0042
     35  CD2      -39.7680   -0.7410  -10.0440 C.ar  259  PHE259     -0.0042
     36  CE1      -40.9110    0.9320   -8.1820 C.ar  259  PHE259     -0.0003
     37  CE2      -39.1590    0.4620   -9.7220 C.ar  259  PHE259     -0.0003
     38  CZ       -39.7360    1.2960   -8.7870 C.ar  259  PHE259     -0.0000
     39  N        -35.1360   -5.8890  -11.0010 N.3   263  TYR263     -0.1241
     40  CA       -34.0890   -4.8830  -11.1630 C.3   263  TYR263      0.1605
     41  C        -32.7210   -5.4620  -10.7920 C.2   263  TYR263      0.2264
     42  O        -32.5950   -6.5980  -10.3190 O.2   263  TYR263     -0.2867
     43  CB       -34.3920   -3.6420  -10.3210 C.3   263  TYR263      0.0534
     44  CG       -35.1630   -2.5600  -11.0670 C.ar  263  TYR263     -0.0201
     45  CD1      -36.4990   -2.7460  -11.4110 C.ar  263  TYR263     -0.0009
     46  CD2      -34.5480   -1.3510  -11.4320 C.ar  263  TYR263     -0.0009
     47  CE1      -37.2090   -1.7660  -12.1040 C.ar  263  TYR263      0.0417
     48  CE2      -35.2400   -0.3710  -12.1260 C.ar  263  TYR263      0.0417
     49  CZ       -36.5770   -0.5730  -12.4550 C.ar  263  TYR263      0.1957
     50  OH       -37.2930    0.3960  -13.1350 O.3   263  TYR263     -0.2866
     51  N        -29.1820   -3.9670   -9.0640 N.3   265  TRP265     -0.1227
     52  CA       -28.5040   -3.9430   -7.7770 C.3   265  TRP265      0.1737
     53  C        -29.4580   -3.8650   -6.5720 C.2   265  TRP265      0.2595
     54  O        -29.0440   -4.1910   -5.4530 O.2   265  TRP265     -0.2718
     55  CB       -27.4850   -2.8120   -7.7610 C.3   265  TRP265      0.0564
     56  CG       -27.9680   -1.3890   -7.7970 C.ar  265  TRP265      0.0003
     57  CD1      -28.9950   -0.8500   -8.5470 C.ar  265  TRP265      0.0946
     58  CD2      -27.3920   -0.3010   -7.0630 C.ar  265  TRP265      0.0152
     59  NE1      -29.0940    0.5110   -8.2990 N.ar  265  TRP265     -0.2442
     60  CE2      -28.1240    0.8650   -7.3890 C.ar  265  TRP265      0.0810
     61  CE3      -26.3320   -0.2070   -6.1450 C.ar  265  TRP265      0.0012
     62  CZ2      -27.8110    2.1120   -6.8440 C.ar  265  TRP265      0.0191
     63  CZ3      -26.0320    1.0180   -5.5960 C.ar  265  TRP265      0.0001
     64  CH2      -26.7720    2.1730   -5.9480 C.ar  265  TRP265      0.0015
     65  N        -30.7080   -3.4220   -6.7550 N.am  266  ASP266     -0.1974
     66  CA       -31.7060   -3.5830   -5.6960 C.3   266  ASP266      0.1709
     67  C        -31.7930   -5.0270   -5.2220 C.2   266  ASP266      0.2293
     68  O        -31.9110   -5.2950   -4.0190 O.2   266  ASP266     -0.2864
     69  CB       -33.0770   -3.1700   -6.2040 C.3   266  ASP266      0.1436
     70  CG       -33.1270   -1.7400   -6.6480 C.2   266  ASP266      0.3671
     71  OD1      -32.4070   -1.3770   -7.6060 O.co2 266  ASP266     -0.2456
     72  OD2      -33.9220   -1.0030   -6.0420 O.co2 266  ASP266     -0.2456
     73  N        -30.4040   -3.8890  -16.0600 N.3   302  ASN302     -0.1240
     74  CA       -31.0890   -2.8410  -15.2840 C.3   302  ASN302      0.1653
     75  C        -32.4890   -3.2910  -14.8810 C.2   302  ASN302      0.2266
     76  O        -32.8670   -3.2360  -13.7060 O.2   302  ASN302     -0.2867
     77  CB       -31.1670   -1.5490  -16.1260 C.3   302  ASN302      0.1155
     78  CG       -31.5620   -0.2710  -15.3110 C.2   302  ASN302      0.2627
     79  OD1      -31.3450    0.8380  -15.7840 O.2   302  ASN302     -0.2716
     80  ND2      -32.1210   -0.4310  -14.1110 N.am  302  ASN302     -0.0877
     81  N        -33.7980   -2.3320  -22.2320 N.3   308  TYR308     -0.1241
     82  CA       -32.6760   -2.3580  -21.2990 C.3   308  TYR308      0.1605
     83  C        -31.6040   -3.3580  -21.6970 C.2   308  TYR308      0.2264
     84  O        -30.6480   -3.5520  -20.9380 O.2   308  TYR308     -0.2867
     85  CB       -33.1400   -2.7010  -19.8910 C.3   308  TYR308      0.0534
     86  CG       -34.0990   -1.7190  -19.2720 C.ar  308  TYR308     -0.0201
     87  CD1      -33.6710   -0.4590  -18.8950 C.ar  308  TYR308     -0.0009
     88  CD2      -35.4230   -2.0700  -19.0210 C.ar  308  TYR308     -0.0009
     89  CE1      -34.5350    0.4440  -18.3080 C.ar  308  TYR308      0.0417
     90  CE2      -36.2910   -1.1720  -18.4290 C.ar  308  TYR308      0.0417
     91  CZ       -35.8400    0.0860  -18.0760 C.ar  308  TYR308      0.1957
     92  OH       -36.6920    0.9950  -17.4980 O.3   308  TYR308     -0.2866
     93  N        -26.2070   -2.6660  -14.4480 N.3   312  GLN312     -0.1245
     94  CA       -26.3140   -1.9650  -13.1790 C.3   312  GLN312      0.1566
     95  C        -25.1560   -2.4400  -12.3140 C.2   312  GLN312      0.2260
     96  O        -24.4740   -3.4110  -12.6740 O.2   312  GLN312     -0.2867
     97  CB       -27.6840   -2.2270  -12.5080 C.3   312  GLN312      0.0367
     98  CG       -28.6950   -1.1100  -12.7860 C.3   312  GLN312      0.0905
     99  CD       -29.8310   -1.0280  -11.7790 C.2   312  GLN312      0.2608
    100  OE1      -30.3180   -2.0510  -11.2770 O.2   312  GLN312     -0.2717
    101  NE2      -30.2690    0.1990  -11.4840 N.am  312  GLN312     -0.0878
    102  N        -27.5680    5.8560  -16.0190 N.3   417  ARG417     -0.1245
    103  CA       -28.5580    4.8660  -15.5910 C.3   417  ARG417      0.1563
    104  C        -27.8840    3.5860  -15.1200 C.2   417  ARG417      0.2260
    105  O        -28.2330    3.0380  -14.0710 O.2   417  ARG417     -0.2867
    106  CB       -29.5310    4.5580  -16.7330 C.3   417  ARG417      0.0307
    107  CG       -30.1970    5.7940  -17.3530 C.3   417  ARG417      0.0489
    108  CD       -31.6990    5.8520  -17.0810 C.3   417  ARG417      0.2205
    109  NE       -32.2620    7.1810  -17.3580 N.pl3 417  ARG417     -0.0865
    110  CZ       -32.6210    7.6200  -18.5680 C.cat 417  ARG417      0.5346
    111  NH1      -32.4900    6.8360  -19.6370 N.pl3 417  ARG417      0.1354
    112  NH2      -33.1130    8.8510  -18.7140 N.pl3 417  ARG417      0.1354
    113  N        -26.5720    3.2460  -11.6060 N.3   420  GLY420     -0.1225
    114  CA       -27.5180    3.2490  -10.5040 C.3   420  GLY420      0.1811
    115  C        -27.8090    4.6160   -9.9250 C.2   420  GLY420      0.2280
    116  O        -28.8650    4.8010   -9.2950 O.2   420  GLY420     -0.2866
    117  N        -28.8730    7.6230  -10.9970 N.3   422  ASP422     -0.1239
    118  CA       -29.5650    8.5020  -11.9400 C.3   422  ASP422      0.1674
    119  C        -30.5770    9.3580  -11.1710 C.2   422  ASP422      0.2266
    120  O        -31.6770    8.9020  -10.8620 O.2   422  ASP422     -0.2867
    121  CB       -30.2240    7.6970  -13.0700 C.3   422  ASP422      0.1410
    122  CG       -31.1370    6.5110  -12.5770 C.2   422  ASP422      0.3668
    123  OD1      -30.8570    5.8630  -11.5390 O.co2 422  ASP422     -0.2456
    124  OD2      -32.1380    6.1980  -13.2700 O.co2 422  ASP422     -0.2456
    125  N        -31.4160   13.6980   -7.2700 N.3   567  GLN567     -0.1231
    126  CA       -31.7740   12.8500   -6.1390 C.3   567  GLN567      0.1698
    127  C        -30.6030   12.0490   -5.5600 C.2   567  GLN567      0.2592
    128  O        -30.6620   11.6930   -4.3770 O.2   567  GLN567     -0.2718
    129  CB       -32.9240   11.9220   -6.5190 C.3   567  GLN567      0.0381
    130  CG       -32.7050   11.0150   -7.6990 C.3   567  GLN567      0.0905
    131  CD       -33.9230   10.1610   -7.9620 C.2   567  GLN567      0.2608
    132  OE1      -34.8710   10.1520   -7.1700 O.2   567  GLN567     -0.2717
    133  NE2      -33.9200    9.4520   -9.0800 N.am  567  GLN567     -0.0878
    134  N        -29.5210   11.7970   -6.3130 N.am  568  TRP568     -0.1976
    135  CA       -28.3730   11.0980   -5.7360 C.3   568  TRP568      0.1640
    136  C        -27.2810   12.0570   -5.2710 C.2   568  TRP568      0.2290
    137  O        -26.0910   11.7060   -5.3010 O.2   568  TRP568     -0.2864
    138  CB       -27.8070   10.0670   -6.7100 C.3   568  TRP568      0.0576
    139  CG       -28.6510    8.8410   -6.8300 C.ar  568  TRP568      0.0006
    140  CD1      -29.6690    8.6250   -7.7240 C.ar  568  TRP568      0.0946
    141  CD2      -28.5570    7.6470   -6.0380 C.ar  568  TRP568      0.0152
    142  NE1      -30.2010    7.3730   -7.5350 N.ar  568  TRP568     -0.2442
    143  CE2      -29.5440    6.7590   -6.5010 C.ar  568  TRP568      0.0810
    144  CE3      -27.7340    7.2460   -4.9760 C.ar  568  TRP568      0.0012
    145  CZ2      -29.7220    5.4820   -5.9510 C.ar  568  TRP568      0.0191
    146  CZ3      -27.9230    5.9850   -4.4210 C.ar  568  TRP568      0.0001
    147  CH2      -28.9060    5.1160   -4.9120 C.ar  568  TRP568      0.0015
    148  N        -29.4760    7.4370    0.7230 N.3   574  TRP574     -0.1241
    149  CA       -30.0640    6.2530    0.1290 C.3   574  TRP574      0.1605
    150  C        -29.6300    5.0200    0.9060 C.2   574  TRP574      0.2264
    151  O        -28.5050    4.9510    1.4150 O.2   574  TRP574     -0.2867
    152  CB       -29.6610    6.1110   -1.3230 C.3   574  TRP574      0.0550
    153  CG       -30.2220    7.1530   -2.2120 C.ar  574  TRP574      0.0003
    154  CD1      -29.8820    8.4710   -2.2430 C.ar  574  TRP574      0.0946
    155  CD2      -31.2150    6.9700   -3.2290 C.ar  574  TRP574      0.0152
    156  NE1      -30.6010    9.1230   -3.2130 N.ar  574  TRP574     -0.2442
    157  CE2      -31.4280    8.2270   -3.8350 C.ar  574  TRP574      0.0810
    158  CE3      -31.9590    5.8730   -3.6740 C.ar  574  TRP574      0.0012
    159  CZ2      -32.3320    8.4100   -4.8760 C.ar  574  TRP574      0.0191
    160  CZ3      -32.8530    6.0580   -4.7060 C.ar  574  TRP574      0.0001
    161  CH2      -33.0310    7.3160   -5.3000 C.ar  574  TRP574      0.0015
    162  N        -38.8190    6.0190   -0.6030 N.3   618  GLU618     -0.1245
    163  CA       -37.7720    5.5880   -1.5280 C.3   618  GLU618      0.1567
    164  C        -36.3870    6.0430   -1.0780 C.2   618  GLU618      0.2260
    165  O        -35.4270    5.2690   -1.1310 O.2   618  GLU618     -0.2867
    166  CB       -38.0650    6.1220   -2.9330 C.3   618  GLU618      0.0388
    167  CG       -39.3720    5.6230   -3.5460 C.3   618  GLU618      0.1160
    168  CD       -40.5380    6.6250   -3.4110 C.2   618  GLU618      0.3649
    169  OE1      -40.9270    6.9730   -2.2590 O.co2 618  GLU618     -0.2457
    170  OE2      -41.0820    7.0360   -4.4660 O.co2 618  GLU618     -0.2457
    171  N        -36.1050   15.6710   -8.4640 N.3   634  GLU634     -0.1231
    172  CA       -36.4990   15.0730   -9.7420 C.3   634  GLU634      0.1699
    173  C        -37.9900   14.7270   -9.7320 C.2   634  GLU634      0.2592
    174  O        -38.8240   15.6280   -9.6890 O.2   634  GLU634     -0.2718
    175  CB       -35.6180   13.8610  -10.0660 C.3   634  GLU634      0.0402
    176  CG       -34.1400   14.1590   -9.8250 C.3   634  GLU634      0.1161
    177  CD       -33.1900   13.2200  -10.5510 C.2   634  GLU634      0.3649
    178  OE1      -32.0860   12.9920  -10.0220 O.co2 634  GLU634     -0.2457
    179  OE2      -33.5340   12.7220  -11.6460 O.co2 634  GLU634     -0.2457
    180  N        -38.3410   13.4420   -9.7410 N.am  635  TYR635     -0.1976
    181  CA       -39.7500   13.0480   -9.6900 C.3   635  TYR635      0.1639
    182  C        -40.2560   12.7890   -8.2710 C.2   635  TYR635      0.2290
    183  O        -41.4260   12.4430   -8.1010 O.2   635  TYR635     -0.2864
    184  CB       -40.0180   11.8590  -10.6020 C.3   635  TYR635      0.0560
    185  CG       -39.6350   12.1400  -12.0430 C.ar  635  TYR635     -0.0198
    186  CD1      -38.8580   11.2440  -12.7700 C.ar  635  TYR635     -0.0009
    187  CD2      -40.0200   13.3310  -12.6660 C.ar  635  TYR635     -0.0009
    188  CE1      -38.4840   11.5100  -14.0990 C.ar  635  TYR635      0.0417
    189  CE2      -39.6570   13.6120  -13.9780 C.ar  635  TYR635      0.0417
    190  CZ       -38.8860   12.6930  -14.6980 C.ar  635  TYR635      0.1957
    191  OH       -38.5130   12.9530  -16.0070 O.3   635  TYR635     -0.2866
    192  N        -34.8500   -1.9990   -0.8580 N.3   652  TRP652     -0.1241
    193  CA       -33.6020   -1.8680   -0.1190 C.3   652  TRP652      0.1605
    194  C        -33.7570   -0.9830    1.1030 C.2   652  TRP652      0.2264
    195  O        -32.9560   -1.1020    2.0450 O.2   652  TRP652     -0.2867
    196  CB       -32.4600   -1.3530   -1.0260 C.3   652  TRP652      0.0550
    197  CG       -32.7330   -0.1420   -1.9200 C.ar  652  TRP652      0.0003
    198  CD1      -33.6900    0.8280   -1.7510 C.ar  652  TRP652      0.0946
    199  CD2      -31.9800    0.2470   -3.0870 C.ar  652  TRP652      0.0152
    200  NE1      -33.5960    1.7750   -2.7510 N.ar  652  TRP652     -0.2442
    201  CE2      -32.5620    1.4380   -3.5880 C.ar  652  TRP652      0.0810
    202  CE3      -30.8850   -0.3100   -3.7700 C.ar  652  TRP652      0.0012
    203  CZ2      -32.0760    2.0890   -4.7300 C.ar  652  TRP652      0.0191
    204  CZ3      -30.4150    0.3370   -4.9220 C.ar  652  TRP652      0.0001
    205  CH2      -31.0110    1.5260   -5.3810 C.ar  652  TRP652      0.0015
@<TRIPOS>BOND
     1     4     3    2
     2    81    82    1
     3     3     2    1
     4    83    82    1
     5    83    84    2
     6    82    85    1
     7     2     1    1
     8     2     5    1
     9     5     6    1
    10    85    86    1
    11   111   110    1
    12    86    88   ar
    13    86    87   ar
    14    88    90   ar
    15    87    89   ar
    16   112   110    1
    17   110   109    2
    18     6     7    1
    19    90    91   ar
    20    89    91   ar
    21     8     7    1
    22     8     9    1
    23    91    92    1
    24   109   108    1
    25   107   108    1
    26   107   106    1
    27   106   103    1
    28    77    78    1
    29    77    74    1
    30    73    74    1
    31   102   103    1
    32   191   190    1
    33    79    78    2
    34   103   104    1
    35    78    80   am
    36    74    75    1
    37   104   105    2
    38    75    76    2
    39   190   188   ar
    40   190   189   ar
    41    93    94    1
    42   188   186   ar
    43   189   187   ar
    44   124   122   ar
    45    94    97    1
    46    94    95    1
    47    50    49    1
    48   121   122    1
    49   121   118    1
    50    98    97    1
    51    98    99    1
    52   186   185   ar
    53    96    95    2
    54   187   185   ar
    55   122   123   ar
    56    49    48   ar
    57    49    47   ar
    58    48    46   ar
    59    47    45   ar
    60   185   184    1
    61   118   119    1
    62   118   117    1
    63    99   101   am
    64    99   100    2
    65   179   177   ar
    66   113   114    1
    67    46    44   ar
    68    45    44   ar
    69   119   120    2
    70    40    39    1
    71    40    41    1
    72    40    43    1
    73    44    43    1
    74    20    19    2
    75    41    42    2
    76    30    29    1
    77    30    31    2
    78   184   181    1
    79   177   178   ar
    80   177   176    1
    81   114   115    1
    82    29    32    1
    83    29    28    1
    84   175   176    1
    85   175   172    1
    86    35    37   ar
    87    35    33   ar
    88   115   116    2
    89    19    28   am
    90    19    18    1
    91    32    33    1
    92   172   173    1
    93   172   171    1
    94   180   173   am
    95   180   181    1
    96   173   174    2
    97    37    38   ar
    98   181   182    1
    99    33    34   ar
   100   133   131   am
   101    51    52    1
   102    21    18    1
   103    21    22    1
   104    38    36   ar
   105    18    17    1
   106    57    59   ar
   107    57    56   ar
   108    34    36   ar
   109    23    22    1
   110    23    24    1
   111    59    60   ar
   112   182   183    2
   113    24    25    2
   114   131   130    1
   115   131   132    2
   116    16    15    1
   117    16    10    1
   118    56    55    1
   119    56    58   ar
   120    52    55    1
   121    52    53    1
   122    15    14    1
   123   140   142   ar
   124   140   139   ar
   125   130   129    1
   126    71    70   ar
   127   142   143   ar
   128    60    58   ar
   129    60    62   ar
   130   125   126    1
   131    58    61   ar
   132    25    27    1
   133    25    26    1
   134    62    64   ar
   135   139   138    1
   136   139   141   ar
   137    65    53   am
   138    65    66    1
   139   138   135    1
   140    70    69    1
   141    70    72   ar
   142    53    54    2
   143    10    11    1
   144   129   126    1
   145   143   141   ar
   146   143   145   ar
   147    14    11    1
   148   134   135    1
   149   134   127   am
   150    69    66    1
   151    61    63   ar
   152   126   127    1
   153   141   144   ar
   154   145   147   ar
   155    64    63   ar
   156   135   136    1
   157    66    67    1
   158    11    12    1
   159   127   128    2
   160   205   204   ar
   161   205   203   ar
   162   137   136    2
   163   161   159   ar
   164   161   160   ar
   165    67    68    2
   166    12    13    2
   167   144   146   ar
   168   204   202   ar
   169   147   146   ar
   170   159   157   ar
   171   203   201   ar
   172   160   158   ar
   173   170   168   ar
   174   157   155   ar
   175   157   156   ar
   176   202   199   ar
   177   158   155   ar
   178   201   199   ar
   179   201   200   ar
   180   167   168    1
   181   167   166    1
   182   168   169   ar
   183   155   153   ar
   184   156   154   ar
   185   199   197   ar
   186   166   163    1
   187   200   198   ar
   188   154   153   ar
   189   153   152    1
   190   197   198   ar
   191   197   196    1
   192   163   164    1
   193   163   162    1
   194   152   149    1
   195   165   164    2
   196   196   193    1
   197   192   193    1
   198   193   194    1
   199   149   148    1
   200   149   150    1
   201   150   151    2
   202   194   195    2
