@<TRIPOS>MOLECULE
tmp/5n6nC01.pdb
 126 126 0 0 0
SMALL
GASTEIGER

@<TRIPOS>ATOM
      1  N        -35.5750  -15.9060  -25.3680 N.3   184  PRO184     -0.2102
      2  CA       -34.2980  -16.2810  -26.0030 C.3   184  PRO184      0.1504
      3  C        -34.5390  -17.3180  -27.0860 C.2   184  PRO184      0.2576
      4  O        -35.4180  -18.1830  -26.9580 O.2   184  PRO184     -0.2718
      5  CB       -33.4670  -16.8530  -24.8450 C.3   184  PRO184      0.0282
      6  CG       -34.0460  -16.1640  -23.5980 C.3   184  PRO184      0.0208
      7  CD       -35.5400  -16.0730  -23.9010 C.3   184  PRO184      0.0893
      8  N        -33.7780  -17.2030  -28.1810 N.am  185  TYR185     -0.1963
      9  CA       -34.0320  -18.0470  -29.3440 C.3   185  TYR185      0.1771
     10  C        -33.9100  -19.5290  -29.0210 C.2   185  TYR185      0.2619
     11  O        -34.5020  -20.3440  -29.7320 O.2   185  TYR185     -0.2715
     12  CB       -33.0910  -17.6840  -30.4980 C.3   185  TYR185      0.0574
     13  CG       -31.8340  -18.5370  -30.5690 C.ar  185  TYR185     -0.0198
     14  CD1      -30.7080  -18.2050  -29.8160 C.ar  185  TYR185     -0.0009
     15  CD2      -31.7670  -19.6680  -31.3820 C.ar  185  TYR185     -0.0009
     16  CE1      -29.5640  -18.9610  -29.8700 C.ar  185  TYR185      0.0417
     17  CE2      -30.6180  -20.4320  -31.4370 C.ar  185  TYR185      0.0417
     18  CZ       -29.5250  -20.0650  -30.6820 C.ar  185  TYR185      0.1957
     19  OH       -28.3820  -20.8010  -30.7170 O.3   185  TYR185     -0.2866
     20  N        -33.1850  -19.9020  -27.9630 N.am  186  ASP186     -0.1971
     21  CA       -32.9840  -21.3110  -27.6270 C.3   186  ASP186      0.1709
     22  C        -33.7790  -21.7370  -26.3950 C.2   186  ASP186      0.2293
     23  O        -33.3680  -22.6480  -25.6620 O.2   186  ASP186     -0.2864
     24  CB       -31.4990  -21.6390  -27.4300 C.3   186  ASP186      0.1436
     25  CG       -30.7910  -20.6700  -26.5010 C.2   186  ASP186      0.3671
     26  OD1      -31.2190  -19.5020  -26.3700 O.co2 186  ASP186     -0.2456
     27  OD2      -29.7780  -21.0730  -25.9030 O.co2 186  ASP186     -0.2456
     28  N        -36.3060  -13.7090  -29.6630 N.3   211  LEU211     -0.1231
     29  CA       -35.1520  -12.8430  -29.8670 C.3   211  LEU211      0.1678
     30  C        -34.2020  -13.4620  -30.8940 C.2   211  LEU211      0.2434
     31  O        -34.2090  -14.6820  -31.1050 O.2   211  LEU211     -0.2733
     32  CB       -34.4220  -12.6260  -28.5450 C.3   211  LEU211      0.0284
     33  CG       -35.1470  -11.7800  -27.5010 C.3   211  LEU211      0.0019
     34  CD1      -34.4940  -11.9240  -26.1250 C.3   211  LEU211      0.0001
     35  CD2      -35.1580  -10.3230  -27.9320 C.3   211  LEU211      0.0001
     36  N        -33.3710  -12.6460  -31.5490 N.am  212  PRO212     -0.2718
     37  CA       -32.4290  -13.1990  -32.5290 C.3   212  PRO212      0.1535
     38  C        -31.3290  -13.9820  -31.8340 C.2   212  PRO212      0.2598
     39  O        -31.1190  -13.8670  -30.6250 O.2   212  PRO212     -0.2715
     40  CB       -31.8710  -11.9580  -33.2330 C.3   212  PRO212      0.0310
     41  CG       -31.9550  -10.8880  -32.1920 C.3   212  PRO212      0.0237
     42  CD       -33.2200  -11.1850  -31.4090 C.3   212  PRO212      0.0939
     43  N        -30.6260  -14.8020  -32.6200 N.am  213  LYS213     -0.1964
     44  CA       -29.5080  -15.5610  -32.0630 C.3   213  LYS213      0.1728
     45  C        -28.4580  -14.6400  -31.4530 C.2   213  LYS213      0.2616
     46  O        -27.8570  -14.9690  -30.4250 O.2   213  LYS213     -0.2715
     47  CB       -28.8730  -16.4430  -33.1340 C.3   213  LYS213      0.0311
     48  CG       -29.8570  -17.3610  -33.7960 C.3   213  LYS213      0.0038
     49  CD       -29.2410  -18.2330  -34.8530 C.3   213  LYS213      0.0206
     50  CE       -30.3440  -19.0850  -35.4270 C.3   213  LYS213      0.1093
     51  NZ       -29.9520  -19.9390  -36.5700 N.3   213  LYS213     -0.1314
     52  N        -28.2270  -13.4790  -32.0540 N.am  214  LYS214     -0.1963
     53  CA       -27.2380  -12.5410  -31.5320 C.3   214  LYS214      0.1728
     54  C        -27.8790  -11.1740  -31.3690 C.2   214  LYS214      0.2616
     55  O        -28.4560  -10.6300  -32.3200 O.2   214  LYS214     -0.2715
     56  CB       -26.0000  -12.4820  -32.4350 C.3   214  LYS214      0.0311
     57  CG       -25.2660  -13.8460  -32.5270 C.3   214  LYS214      0.0038
     58  CD       -24.7680  -14.3530  -31.1410 C.3   214  LYS214      0.0206
     59  CE       -24.6960  -15.9090  -31.0380 C.3   214  LYS214      0.1093
     60  NZ       -25.9890  -16.6130  -30.6170 N.3   214  LYS214     -0.1314
     61  N        -27.7970  -10.6350  -30.1560 N.am  215  ILE215     -0.1977
     62  CA       -28.5220   -9.4310  -29.7780 C.3   215  ILE215      0.1596
     63  C        -27.5490   -8.2650  -29.8540 C.2   215  ILE215      0.2287
     64  O        -26.6430   -8.1400  -29.0260 O.2   215  ILE215     -0.2864
     65  CB       -29.1470   -9.5610  -28.3850 C.3   215  ILE215      0.0276
     66  CG1      -30.0300  -10.8150  -28.3300 C.3   215  ILE215      0.0022
     67  CG2      -29.9440   -8.3080  -28.0590 C.3   215  ILE215      0.0022
     68  CD1      -30.6400  -11.0930  -26.9730 C.3   215  ILE215      0.0001
     69  N        -27.5130  -13.3860  -17.5540 N.3   294  ILE294     -0.1231
     70  CA       -26.1410  -13.4330  -18.0260 C.3   294  ILE294      0.1692
     71  C        -26.0100  -14.4170  -19.1800 C.2   294  ILE294      0.2592
     72  O        -25.4000  -14.0970  -20.2130 O.2   294  ILE294     -0.2718
     73  CB       -25.2080  -13.7700  -16.8520 C.3   294  ILE294      0.0266
     74  CG1      -25.1070  -12.5490  -15.9320 C.3   294  ILE294      0.0019
     75  CG2      -23.8290  -14.2560  -17.3560 C.3   294  ILE294      0.0020
     76  CD1      -24.5420  -12.8570  -14.5750 C.3   294  ILE294      0.0001
     77  N        -26.6240  -15.6010  -19.0500 N.am  295  ASN295     -0.1960
     78  CA       -26.5560  -16.6200  -20.1050 C.3   295  ASN295      0.1819
     79  C        -27.2030  -16.1460  -21.4030 C.2   295  ASN295      0.2621
     80  O        -26.6470  -16.3320  -22.4930 O.2   295  ASN295     -0.2715
     81  CB       -27.2480  -17.9130  -19.6590 C.3   295  ASN295      0.1195
     82  CG       -26.4070  -18.7320  -18.7300 C.2   295  ASN295      0.2630
     83  OD1      -25.1870  -18.6490  -18.7510 O.2   295  ASN295     -0.2716
     84  ND2      -27.0610  -19.5260  -17.8830 N.am  295  ASN295     -0.0877
     85  N        -28.4090  -15.5840  -21.3170 N.am  296  HIS296     -0.1959
     86  CA       -29.2040  -15.3190  -22.5110 C.3   296  HIS296      0.1787
     87  C        -29.1730  -13.8730  -22.9940 C.2   296  HIS296      0.2620
     88  O        -29.4900  -13.6340  -24.1660 O.2   296  HIS296     -0.2715
     89  CB       -30.6520  -15.7490  -22.2600 C.3   296  HIS296      0.0785
     90  CG       -30.7900  -17.2180  -22.0130 C.ar  296  HIS296      0.0821
     91  ND1      -30.8680  -18.1350  -23.0350 N.ar  296  HIS296     -0.2267
     92  CD2      -30.8210  -17.9340  -20.8640 C.ar  296  HIS296      0.1154
     93  CE1      -30.9580  -19.3520  -22.5310 C.ar  296  HIS296      0.1986
     94  NE2      -30.9230  -19.2580  -21.2150 N.ar  296  HIS296     -0.2212
     95  N        -28.8080  -12.9040  -22.1390 N.am  297  TYR297     -0.1960
     96  CA       -28.7360  -11.5050  -22.5510 C.3   297  TYR297      0.1771
     97  C        -27.3410  -10.9060  -22.4110 C.2   297  TYR297      0.2620
     98  O        -27.1560   -9.7140  -22.6930 O.2   297  TYR297     -0.2715
     99  CB       -29.7540  -10.6600  -21.7620 C.3   297  TYR297      0.0574
    100  CG       -31.1430  -11.2920  -21.7230 C.ar  297  TYR297     -0.0198
    101  CD1      -31.7630  -11.7180  -22.8900 C.ar  297  TYR297     -0.0009
    102  CD2      -31.8170  -11.4850  -20.5210 C.ar  297  TYR297     -0.0009
    103  CE1      -33.0210  -12.3200  -22.8690 C.ar  297  TYR297      0.0417
    104  CE2      -33.0750  -12.0760  -20.4920 C.ar  297  TYR297      0.0417
    105  CZ       -33.6730  -12.4960  -21.6690 C.ar  297  TYR297      0.1957
    106  OH       -34.9210  -13.1040  -21.6480 O.3   297  TYR297     -0.2866
    107  N        -26.3550  -11.6890  -21.9940 N.am  298  GLY298     -0.1954
    108  CA       -24.9890  -11.2320  -21.9250 C.3   298  GLY298      0.1869
    109  C        -24.6280  -10.5300  -20.6450 C.2   298  GLY298      0.2309
    110  O        -23.4370  -10.2810  -20.4160 O.2   298  GLY298     -0.2863
    111  N        -18.1950  -15.1020  -16.3630 N.3   348  LYS348     -0.1245
    112  CA       -18.5360  -14.6300  -17.6990 C.3   348  LYS348      0.1561
    113  C        -18.8440  -13.1300  -17.6900 C.2   348  LYS348      0.2260
    114  O        -18.3930  -12.3910  -18.5770 O.2   348  LYS348     -0.2867
    115  CB       -19.7170  -15.4360  -18.2470 C.3   348  LYS348      0.0271
    116  CG       -20.3240  -14.8260  -19.4780 C.3   348  LYS348      0.0035
    117  CD       -21.2910  -15.7330  -20.1750 C.3   348  LYS348      0.0206
    118  CE       -21.8900  -14.9960  -21.3650 C.3   348  LYS348      0.1093
    119  NZ       -23.1340  -15.5910  -21.8930 N.3   348  LYS348     -0.1314
    120  N        -16.6740  -10.6170  -20.0560 N.3   352  THR352     -0.1218
    121  CA       -17.2810  -10.1800  -21.3000 C.3   352  THR352      0.1862
    122  C        -18.1440   -8.9260  -21.1590 C.2   352  THR352      0.2287
    123  O        -18.6630   -8.4440  -22.1710 O.2   352  THR352     -0.2866
    124  CB       -18.1210  -11.3090  -21.8760 C.3   352  THR352      0.1770
    125  OG1      -19.2350  -11.5250  -21.0060 O.3   352  THR352     -0.2211
    126  CG2      -17.2980  -12.5860  -21.9510 C.3   352  THR352      0.0375
@<TRIPOS>BOND
     1    51    50    1
     2    50    49    1
     3    49    48    1
     4    48    47    1
     5    40    37    1
     6    40    41    1
     7    47    44    1
     8    43    44    1
     9    43    38   am
    10    37    38    1
    11    37    36    1
    12    57    56    1
    13    57    58    1
    14    56    53    1
    15    55    54    2
    16    41    42    1
    17    44    45    1
    18    52    53    1
    19    52    45   am
    20    38    39    2
    21    36    42    1
    22    36    30   am
    23    53    54    1
    24    45    46    2
    25    17    15   ar
    26    17    18   ar
    27    15    13   ar
    28    54    61   am
    29    58    59    1
    30    31    30    2
    31    59    60    1
    32    30    29    1
    33    19    18    1
    34    18    16   ar
    35    13    12    1
    36    13    14   ar
    37    12     9    1
    38    61    62    1
    39    16    14   ar
    40    29    28    1
    41    29    32    1
    42    63    62    1
    43    63    64    2
    44    62    65    1
    45    11    10    2
    46     9    10    1
    47     9     8    1
    48    10    20   am
    49    32    33    1
    50    65    66    1
    51    65    67    1
    52    66    68    1
    53     8     3   am
    54    20    21    1
    55    35    33    1
    56    21    24    1
    57    21    22    1
    58    33    34    1
    59    24    25    1
    60     3     4    2
    61     3     2    1
    62    25    26   ar
    63    25    27   ar
    64    22    23    2
    65     2     1    1
    66     2     5    1
    67     1     7    1
    68     5     6    1
    69    88    87    2
    70     7     6    1
    71    91    93   ar
    72    91    90   ar
    73    87    86    1
    74    87    95   am
    75   101   103   ar
    76   101   100   ar
    77   103   105   ar
    78    98    97    2
    79    96    97    1
    80    96    95    1
    81    96    99    1
    82    93    94   ar
    83    86    89    1
    84    86    85    1
    85    80    79    2
    86    97   107   am
    87    89    90    1
    88   123   122    2
    89    90    92   ar
    90   107   108    1
    91   126   124    1
    92   108   109    1
    93   119   118    1
    94   124   121    1
    95   124   125    1
    96    99   100    1
    97   100   102   ar
    98   105   106    1
    99   105   104   ar
   100    79    85   am
   101    79    78    1
   102   118   117    1
   103   121   122    1
   104   121   120    1
   105    94    92   ar
   106   109   110    2
   107   102   104   ar
   108    72    71    2
   109   117   116    1
   110    78    81    1
   111    78    77    1
   112    81    82    1
   113   116   115    1
   114    71    77   am
   115    71    70    1
   116    83    82    2
   117    82    84   am
   118   114   113    2
   119   115   112    1
   120    70    69    1
   121    70    73    1
   122   112   113    1
   123   112   111    1
   124    75    73    1
   125    73    74    1
   126    74    76    1
