@<TRIPOS>MOLECULE
tmp/5n6qA00.pdb
 97 92 0 0 0
SMALL
GASTEIGER

@<TRIPOS>ATOM
      1  N         66.5950  -67.0810  331.6970 N.3    22  PRO22      -0.2116
      2  CA        65.7510  -67.5750  332.7990 C.3    22  PRO22       0.1372
      3  C         64.5670  -68.3640  332.2650 C.2    22  PRO22       0.2244
      4  O         63.8750  -67.9120  331.3550 O.2    22  PRO22      -0.2868
      5  CB        65.3010  -66.2910  333.5080 C.3    22  PRO22       0.0268
      6  CG        65.4650  -65.1940  332.4460 C.3    22  PRO22       0.0207
      7  CD        66.6760  -65.6110  331.6710 C.3    22  PRO22       0.0892
      8  N         61.2930  -70.4210  333.8830 N.3    24  CYS24      -0.1235
      9  CA        60.4910  -70.9350  334.9830 C.3    24  CYS24       0.1677
     10  C         60.3060  -72.4360  334.8600 C.2    24  CYS24       0.2270
     11  O         60.1350  -72.9700  333.7600 O.2    24  CYS24      -0.2867
     12  CB        59.1300  -70.2530  335.0020 C.3    24  CYS24       0.0956
     13  SG        59.2310  -68.5650  335.4860 S.3    24  CYS24      -0.0801
     14  N         58.0860  -74.1300  337.2450 N.3    26  TYR26      -0.1241
     15  CA        56.7690  -74.4420  337.7930 C.3    26  TYR26       0.1605
     16  C         56.8440  -75.5780  338.8200 C.2    26  TYR26       0.2264
     17  O         55.8560  -76.2510  339.1090 O.2    26  TYR26      -0.2867
     18  CB        55.7760  -74.7420  336.6630 C.3    26  TYR26       0.0534
     19  CG        55.7810  -73.6160  335.6310 C.ar   26  TYR26      -0.0201
     20  CD1       55.1680  -72.3930  335.9000 C.ar   26  TYR26      -0.0009
     21  CD2       56.4350  -73.7600  334.4080 C.ar   26  TYR26      -0.0009
     22  CE1       55.1980  -71.3560  334.9800 C.ar   26  TYR26       0.0417
     23  CE2       56.4630  -72.7340  333.4830 C.ar   26  TYR26       0.0417
     24  CZ        55.8410  -71.5350  333.7700 C.ar   26  TYR26       0.1957
     25  OH        55.8750  -70.5090  332.8460 O.3    26  TYR26      -0.2866
     26  N         62.7230  -66.6780  336.6210 N.3    56  ALA56      -0.1245
     27  CA        62.0280  -65.5690  337.2510 C.3    56  ALA56       0.1562
     28  C         61.6650  -65.8900  338.7020 C.2    56  ALA56       0.2260
     29  O         60.8630  -66.7940  338.9680 O.2    56  ALA56      -0.2867
     30  CB        60.7740  -65.2590  336.4510 C.3    56  ALA56       0.0290
     31  N         54.3530  -65.4550  338.9850 N.3    65  ILE65      -0.1245
     32  CA        53.4980  -65.6940  337.8170 C.3    65  ILE65       0.1561
     33  C         52.4860  -66.7930  338.1200 C.2    65  ILE65       0.2260
     34  O         51.2950  -66.6560  337.8210 O.2    65  ILE65      -0.2867
     35  CB        54.3280  -66.0510  336.5780 C.3    65  ILE65       0.0252
     36  CG1       55.3900  -64.9880  336.3260 C.3    65  ILE65       0.0019
     37  CG2       53.4020  -66.2160  335.3880 C.3    65  ILE65       0.0019
     38  CD1       56.7290  -65.5710  335.9920 C.3    65  ILE65       0.0001
     39  N         67.1730  -63.8450  337.7990 N.3    98  GLN98      -0.1245
     40  CA        66.1930  -62.8440  337.4010 C.3    98  GLN98       0.1566
     41  C         65.2010  -62.6580  338.5400 C.2    98  GLN98       0.2260
     42  O         64.5360  -63.6140  338.9520 O.2    98  GLN98      -0.2867
     43  CB        65.4600  -63.2660  336.1300 C.3    98  GLN98       0.0367
     44  CG        64.4420  -62.2870  335.6590 C.3    98  GLN98       0.0905
     45  CD        63.6360  -62.8480  334.4930 C.2    98  GLN98       0.2608
     46  OE1       62.8720  -63.7790  334.6790 O.2    98  GLN98      -0.2717
     47  NE2       63.8140  -62.2910  333.2910 N.am   98  GLN98      -0.0878
     48  N         51.5150  -73.5900  332.9570 N.3   111  PRO111     -0.2116
     49  CA        51.2050  -73.7020  331.5140 C.3   111  PRO111      0.1372
     50  C         50.5890  -75.0340  331.0840 C.2   111  PRO111      0.2244
     51  O         49.8170  -75.0640  330.1120 O.2   111  PRO111     -0.2868
     52  CB        52.5700  -73.4670  330.8480 C.3   111  PRO111      0.0268
     53  CG        53.3330  -72.6460  331.8270 C.3   111  PRO111      0.0207
     54  CD        52.8850  -73.1030  333.1940 C.3   111  PRO111      0.0892
     55  N         63.5320  -58.0220  336.0010 N.3   174  HIS174     -0.1241
     56  CA        62.5620  -58.4380  334.9920 C.3   174  HIS174      0.1621
     57  C         61.6240  -57.2780  334.6660 C.2   174  HIS174      0.2264
     58  O         60.5210  -57.1660  335.2110 O.2   174  HIS174     -0.2867
     59  CB        61.7810  -59.6600  335.4460 C.3   174  HIS174      0.0745
     60  CG        61.1250  -60.4090  334.3200 C.ar  174  HIS174      0.0817
     61  ND1       61.0660  -59.9210  333.0280 N.ar  174  HIS174     -0.2268
     62  CD2       60.5660  -61.6470  334.2800 C.ar  174  HIS174      0.1154
     63  CE1       60.4580  -60.8060  332.2570 C.ar  174  HIS174      0.1986
     64  NE2       60.1570  -61.8670  332.9870 N.ar  174  HIS174     -0.2212
     65  N         58.0570  -58.5300  329.2530 N.3   177  HIS177     -0.1241
     66  CA        57.0180  -59.5670  329.1030 C.3   177  HIS177      0.1621
     67  C         55.7010  -59.1920  329.7790 C.2   177  HIS177      0.2264
     68  O         54.9270  -60.0730  330.1800 O.2   177  HIS177     -0.2867
     69  CB        57.5050  -60.9440  329.5860 C.3   177  HIS177      0.0745
     70  CG        58.7130  -61.4430  328.8510 C.ar  177  HIS177      0.0817
     71  ND1       59.4370  -62.5390  329.2630 N.ar  177  HIS177     -0.2268
     72  CD2       59.3450  -60.9720  327.7470 C.ar  177  HIS177      0.1154
     73  CE1       60.4500  -62.7330  328.4360 C.ar  177  HIS177      0.1986
     74  NE2       60.4230  -61.7920  327.5140 N.ar  177  HIS177     -0.2212
     75  N         55.0860  -57.7520  332.6450 N.3   179  TYR179     -0.1241
     76  CA        54.9610  -57.7860  334.0970 C.3   179  TYR179      0.1605
     77  C         55.0270  -56.3790  334.6910 C.2   179  TYR179      0.2264
     78  O         54.8350  -55.3990  333.9630 O.2   179  TYR179     -0.2867
     79  CB        56.0190  -58.7220  334.6500 C.3   179  TYR179      0.0534
     80  CG        55.8100  -60.0920  334.0870 C.ar  179  TYR179     -0.0201
     81  CD1       54.5550  -60.7010  334.1410 C.ar  179  TYR179     -0.0009
     82  CD2       56.8410  -60.7670  333.4600 C.ar  179  TYR179     -0.0009
     83  CE1       54.3470  -61.9760  333.6120 C.ar  179  TYR179      0.0417
     84  CE2       56.6440  -62.0340  332.9170 C.ar  179  TYR179      0.0417
     85  CZ        55.3980  -62.6330  332.9930 C.ar  179  TYR179      0.1957
     86  OH        55.2260  -63.8890  332.4490 O.3   179  TYR179     -0.2866
     87  N         66.1260  -57.2510  331.8190 N.3   227  ARG227     -0.1245
     88  CA        65.4400  -57.7230  330.6220 C.3   227  ARG227      0.1563
     89  C         64.2850  -56.7740  330.3780 C.2   227  ARG227      0.2260
     90  O         63.5850  -56.4020  331.3310 O.2   227  ARG227     -0.2867
     91  CB        64.9240  -59.1530  330.7790 C.3   227  ARG227      0.0307
     92  CG        64.3360  -59.7190  329.4970 C.3   227  ARG227      0.0489
     93  CD        64.1180  -61.2290  329.5890 C.3   227  ARG227      0.2205
     94  NE        64.5950  -61.8820  328.3760 N.pl3 227  ARG227     -0.0865
     95  CZ        64.4640  -63.1740  328.1130 C.cat 227  ARG227      0.5346
     96  NH1       63.8430  -63.9760  328.9810 N.pl3 227  ARG227      0.1354
     97  NH2       64.9830  -63.6600  326.9850 N.pl3 227  ARG227      0.1354
@<TRIPOS>BOND
     1    97    95    1
     2    74    72   ar
     3    74    73   ar
     4    72    70   ar
     5    95    94    2
     6    95    96    1
     7    94    93    1
     8    73    71   ar
     9    70    71   ar
    10    70    69    1
    11    66    65    1
    12    66    69    1
    13    66    67    1
    14    92    93    1
    15    92    91    1
    16    67    68    2
    17    51    50    2
    18    89    88    1
    19    89    90    2
    20    88    91    1
    21    88    87    1
    22    52    49    1
    23    52    53    1
    24    50    49    1
    25     4     3    2
    26    49    48    1
    27     7     1    1
    28     7     6    1
    29     1     2    1
    30    53    54    1
    31    63    64   ar
    32    63    61   ar
    33     3     2    1
    34     6     5    1
    35    86    85    1
    36    75    76    1
    37     2     5    1
    38    25    24    1
    39    84    85   ar
    40    84    82   ar
    41    48    54    1
    42    64    62   ar
    43    85    83   ar
    44    61    60   ar
    45    47    45   am
    46    82    80   ar
    47    23    24   ar
    48    23    21   ar
    49    83    81   ar
    50    11    10    2
    51    24    22   ar
    52     8     9    1
    53    78    77    2
    54    80    81   ar
    55    80    79    1
    56    76    79    1
    57    76    77    1
    58    62    60   ar
    59    60    59    1
    60    21    19   ar
    61    45    46    2
    62    45    44    1
    63    57    56    1
    64    57    58    2
    65    10     9    1
    66    22    20   ar
    67     9    12    1
    68    56    59    1
    69    56    55    1
    70    12    13    1
    71    37    35    1
    72    19    20   ar
    73    19    18    1
    74    44    43    1
    75    38    36    1
    76    43    40    1
    77    36    35    1
    78    30    27    1
    79    35    32    1
    80    26    27    1
    81    18    15    1
    82    14    15    1
    83    27    28    1
    84    40    39    1
    85    40    41    1
    86    15    16    1
    87    32    33    1
    88    32    31    1
    89    34    33    2
    90    41    42    2
    91    28    29    2
    92    16    17    2
