@<TRIPOS>MOLECULE
tmp/5n6sA00.pdb
 228 227 0 0 0
SMALL
GASTEIGER

@<TRIPOS>ATOM
      1  N          3.2960   -6.8570   12.4310 N.3    18  GLN18      -0.1245
      2  CA         2.5410   -5.6090   12.1440 C.3    18  GLN18       0.1566
      3  C          2.8910   -4.4950   13.1340 C.2    18  GLN18       0.2260
      4  O          2.7700   -3.3230   12.7910 O.2    18  GLN18      -0.2867
      5  CB         1.0620   -5.9220   12.1330 C.3    18  GLN18       0.0367
      6  CG         0.6860   -6.8630   11.0250 C.3    18  GLN18       0.0905
      7  CD        -0.8110   -7.0070   10.8400 C.2    18  GLN18       0.2608
      8  OE1       -1.4640   -7.9030   11.4580 O.2    18  GLN18      -0.2717
      9  NE2       -1.3750   -6.1880    9.9050 N.am   18  GLN18      -0.0878
     10  N          0.8140  -16.1820   12.9360 N.3   119  HIS119     -0.1226
     11  CA         0.0270  -15.0830   12.2460 C.3   119  HIS119      0.1752
     12  C          0.9940  -14.5070   11.2160 C.2   119  HIS119      0.2596
     13  O          1.3990  -13.3450   11.3020 O.2   119  HIS119     -0.2718
     14  CB        -0.4170  -14.0490   13.2790 C.3   119  HIS119      0.0759
     15  CG        -1.4430  -13.0640   12.8320 C.ar  119  HIS119      0.0818
     16  ND1       -2.3880  -12.5680   13.7120 N.ar  119  HIS119     -0.2268
     17  CD2       -1.6430  -12.4040   11.6470 C.ar  119  HIS119      0.1154
     18  CE1       -3.1790  -11.7010   13.0700 C.ar  119  HIS119      0.1986
     19  NE2       -2.7200  -11.5400   11.8340 N.ar  119  HIS119     -0.2212
     20  N          1.4200  -15.4430   10.3340 N.am  120  TRP120     -0.1976
     21  CA         1.9660  -15.2380    8.9980 C.3   120  TRP120      0.1640
     22  C          3.5500  -15.0430    8.8770 C.2   120  TRP120      0.2290
     23  O          4.0930  -15.1290    7.7940 O.2   120  TRP120     -0.2864
     24  CB         1.2290  -14.1370    8.2610 C.3   120  TRP120      0.0576
     25  CG        -0.2220  -14.2160    8.2390 C.ar  120  TRP120      0.0006
     26  CD1       -0.9810  -15.2390    8.6210 C.ar  120  TRP120      0.0946
     27  CD2       -1.1090  -13.2580    7.6780 C.ar  120  TRP120      0.0152
     28  NE1       -2.2940  -14.9430    8.4550 N.ar  120  TRP120     -0.2442
     29  CE2       -2.4040  -13.7490    7.8330 C.ar  120  TRP120      0.0810
     30  CE3       -0.9330  -12.0240    7.0870 C.ar  120  TRP120      0.0012
     31  CZ2       -3.5590  -13.0410    7.4410 C.ar  120  TRP120      0.0191
     32  CZ3       -2.1310  -11.2750    6.6860 C.ar  120  TRP120      0.0001
     33  CH2       -3.3960  -11.8340    6.8430 C.ar  120  TRP120      0.0015
     34  N         -3.7700  -18.1890   12.5520 N.3   163  ASN163     -0.1225
     35  CA        -4.5850  -17.0170   12.0910 C.3   163  ASN163      0.1785
     36  C         -4.8230  -17.0580   10.5590 C.2   163  ASN163      0.2597
     37  O         -3.9290  -16.9190    9.7370 O.2   163  ASN163     -0.2718
     38  CB        -3.9960  -15.6480   12.4690 C.3   163  ASN163      0.1169
     39  CG        -4.9240  -14.4580   12.0630 C.2   163  ASN163      0.2627
     40  OD1       -5.9100  -14.1450   12.7420 O.2   163  ASN163     -0.2716
     41  ND2       -4.5400  -13.7500   10.9780 N.am  163  ASN163     -0.0877
     42  N         -6.0640  -17.3440   10.2240 N.am  164  GLU164     -0.1979
     43  CA        -6.5630  -17.2450    8.8980 C.3   164  GLU164      0.1602
     44  C         -5.8120  -18.0880    7.9090 C.2   164  GLU164      0.2287
     45  O         -5.3350  -17.5990    6.9390 O.2   164  GLU164     -0.2864
     46  CB        -6.6420  -15.7820    8.4670 C.3   164  GLU164      0.0415
     47  CG        -7.5990  -14.9620    9.2960 C.3   164  GLU164      0.1163
     48  CD        -7.7260  -13.5630    8.6970 C.2   164  GLU164      0.3649
     49  OE1       -7.0130  -13.2180    7.6860 O.co2 164  GLU164     -0.2457
     50  OE2       -8.5550  -12.7720    9.1840 O.co2 164  GLU164     -0.2457
     51  N         -6.9440  -19.6550    5.4310 N.3   166  TRP166     -0.1227
     52  CA        -7.3660  -19.3300    4.0580 C.3   166  TRP166      0.1737
     53  C         -6.4260  -18.2310    3.4900 C.2   166  TRP166      0.2595
     54  O         -5.9400  -18.3400    2.3460 O.2   166  TRP166     -0.2718
     55  CB        -8.8390  -18.8810    3.9750 C.3   166  TRP166      0.0564
     56  CG        -9.3120  -18.7240    2.5890 C.ar  166  TRP166      0.0003
     57  CD1       -9.7470  -19.7310    1.7450 C.ar  166  TRP166      0.0946
     58  CD2       -9.2590  -17.5290    1.7820 C.ar  166  TRP166      0.0152
     59  NE1      -10.0130  -19.2430    0.5040 N.ar  166  TRP166     -0.2442
     60  CE2       -9.6950  -17.8900    0.4790 C.ar  166  TRP166      0.0810
     61  CE3       -8.8440  -16.1840    2.0220 C.ar  166  TRP166      0.0012
     62  CZ2       -9.8430  -16.9140   -0.5660 C.ar  166  TRP166      0.0191
     63  CZ3       -8.9370  -15.2550    0.9920 C.ar  166  TRP166      0.0001
     64  CH2       -9.4320  -15.6280   -0.3000 C.ar  166  TRP166      0.0015
     65  N         -6.1820  -17.1920    4.2700 N.am  167  VAL167     -0.1980
     66  CA        -5.3740  -16.1050    3.7630 C.3   167  VAL167      0.1595
     67  C         -3.9300  -16.6160    3.5130 C.2   167  VAL167      0.2287
     68  O         -3.3850  -16.4690    2.4410 O.2   167  VAL167     -0.2864
     69  CB        -5.4220  -14.8940    4.6860 C.3   167  VAL167      0.0276
     70  CG1       -4.4930  -13.7710    4.1460 C.3   167  VAL167      0.0022
     71  CG2       -6.8490  -14.3680    4.7860 C.3   167  VAL167      0.0022
     72  N         -4.0510  -16.3420   -0.3610 N.3   171  VAL171     -0.1245
     73  CA        -3.5340  -14.9800   -0.7050 C.3   171  VAL171      0.1561
     74  C         -2.0140  -15.0500   -0.8910 C.2   171  VAL171      0.2260
     75  O         -1.4500  -14.3650   -1.7640 O.2   171  VAL171     -0.2867
     76  CB        -3.9310  -13.9270    0.2900 C.3   171  VAL171      0.0252
     77  CG1       -3.4400  -12.5490   -0.1720 C.3   171  VAL171      0.0019
     78  CG2       -5.4010  -13.8190    0.3280 C.3   171  VAL171      0.0019
     79  N         -3.0720  -15.9830   -5.1560 N.3   175  TYR175     -0.1241
     80  CA        -3.0120  -14.5930   -5.6780 C.3   175  TYR175      0.1605
     81  C         -1.5560  -14.0160   -5.7340 C.2   175  TYR175      0.2264
     82  O         -1.2280  -13.2460   -6.6210 O.2   175  TYR175     -0.2867
     83  CB        -3.9850  -13.6400   -4.9370 C.3   175  TYR175      0.0534
     84  CG        -5.4290  -14.1730   -4.8660 C.ar  175  TYR175     -0.0201
     85  CD1       -5.9770  -14.9550   -5.8810 C.ar  175  TYR175     -0.0009
     86  CD2       -6.2340  -13.9120   -3.7680 C.ar  175  TYR175     -0.0009
     87  CE1       -7.2640  -15.4370   -5.7960 C.ar  175  TYR175      0.0417
     88  CE2       -7.5390  -14.3890   -3.7070 C.ar  175  TYR175      0.0417
     89  CZ        -8.0190  -15.1810   -4.7040 C.ar  175  TYR175      0.1957
     90  OH        -9.2710  -15.7270   -4.6350 O.3   175  TYR175     -0.2866
     91  N          0.3570  -11.8640   -0.7630 N.3   178  HIS178     -0.1241
     92  CA         1.0420  -11.8770    0.5450 C.3   178  HIS178      0.1621
     93  C          2.2280  -12.7970    0.3750 C.2   178  HIS178      0.2264
     94  O          2.2360  -13.5920   -0.5280 O.2   178  HIS178     -0.2867
     95  CB         0.1580  -12.3150    1.7280 C.3   178  HIS178      0.0745
     96  CG        -0.9210  -11.3280    2.0890 C.ar  178  HIS178      0.0817
     97  ND1       -1.8090  -11.5450    3.1260 N.ar  178  HIS178     -0.2268
     98  CD2       -1.2900  -10.1510    1.5180 C.ar  178  HIS178      0.1154
     99  CE1       -2.6360  -10.5150    3.2030 C.ar  178  HIS178      0.1986
    100  NE2       -2.3490   -9.6640    2.2340 N.ar  178  HIS178     -0.2212
    101  N        -10.7750  -16.2110    8.7280 N.3   220  ASN220     -0.1240
    102  CA       -11.4370  -15.0360    8.1100 C.3   220  ASN220      0.1653
    103  C        -12.8240  -15.4600    7.5970 C.2   220  ASN220      0.2266
    104  O        -13.0100  -16.6550    7.1740 O.2   220  ASN220     -0.2867
    105  CB       -10.6020  -14.4660    6.9860 C.3   220  ASN220      0.1155
    106  CG       -10.4220  -15.4410    5.8630 C.2   220  ASN220      0.2627
    107  OD1       -9.8330  -16.5060    6.0520 O.2   220  ASN220     -0.2716
    108  ND2      -10.9120  -15.0750    4.6640 N.am  220  ASN220     -0.0877
    109  N        -14.2520  -19.6840    1.1040 N.3   244  ASN244     -0.1240
    110  CA       -13.5610  -18.5230    1.7290 C.3   244  ASN244      0.1653
    111  C        -13.8080  -18.4950    3.1890 C.2   244  ASN244      0.2266
    112  O        -13.0390  -17.8730    3.9260 O.2   244  ASN244     -0.2867
    113  CB       -14.0690  -17.1870    1.1280 C.3   244  ASN244      0.1155
    114  CG       -13.2280  -16.6460   -0.0370 C.2   244  ASN244      0.2627
    115  OD1      -12.6590  -17.3720   -0.8840 O.2   244  ASN244     -0.2716
    116  ND2      -13.1700  -15.3140   -0.0960 N.am  244  ASN244     -0.0877
    117  N        -15.0460   -8.7550    8.9120 N.3   293  TYR293     -0.1241
    118  CA       -14.9320   -7.3800    8.4620 C.3   293  TYR293      0.1605
    119  C        -16.0070   -6.8300    7.5390 C.2   293  TYR293      0.2264
    120  O        -16.4830   -5.6840    7.7530 O.2   293  TYR293     -0.2867
    121  CB       -13.5830   -7.2220    7.7690 C.3   293  TYR293      0.0534
    122  CG       -12.4920   -7.4050    8.7290 C.ar  293  TYR293     -0.0201
    123  CD1      -12.1300   -6.3370    9.5710 C.ar  293  TYR293     -0.0009
    124  CD2      -11.8420   -8.6730    8.8920 C.ar  293  TYR293     -0.0009
    125  CE1      -11.0900   -6.4720   10.4760 C.ar  293  TYR293      0.0417
    126  CE2      -10.8200   -8.8160    9.8250 C.ar  293  TYR293      0.0417
    127  CZ       -10.4440   -7.7150   10.6190 C.ar  293  TYR293      0.1957
    128  OH        -9.3820   -7.7910   11.5730 O.3   293  TYR293     -0.2866
    129  N        -19.9890   -9.0560    0.7410 N.3   296  HIS296     -0.1241
    130  CA       -19.7730   -9.0600   -0.6990 C.3   296  HIS296      0.1621
    131  C        -21.0170   -9.6000   -1.3600 C.2   296  HIS296      0.2264
    132  O        -21.6120  -10.5590   -0.8470 O.2   296  HIS296     -0.2867
    133  CB       -18.5720   -9.9370   -1.0510 C.3   296  HIS296      0.0745
    134  CG       -17.3300   -9.5630   -0.2880 C.ar  296  HIS296      0.0817
    135  ND1      -16.4350   -8.6140   -0.7400 N.ar  296  HIS296     -0.2268
    136  CD2      -16.8900   -9.9420    0.9380 C.ar  296  HIS296      0.1154
    137  CE1      -15.4690   -8.4740    0.1490 C.ar  296  HIS296      0.1986
    138  NE2      -15.7200   -9.2670    1.1780 N.ar  296  HIS296     -0.2212
    139  N        -17.5060  -10.9670   -8.1360 N.3   310  PHE310     -0.1241
    140  CA       -17.9930   -9.9960   -7.2030 C.3   310  PHE310      0.1605
    141  C        -18.7710   -8.8970   -7.9370 C.2   310  PHE310      0.2264
    142  O        -18.4880   -8.6110   -9.1190 O.2   310  PHE310     -0.2867
    143  CB       -16.8250   -9.4220   -6.4190 C.3   310  PHE310      0.0534
    144  CG       -16.1250  -10.4460   -5.5910 C.ar  310  PHE310     -0.0203
    145  CD1      -15.1000  -11.2100   -6.1330 C.ar  310  PHE310     -0.0042
    146  CD2      -16.5670  -10.7380   -4.2970 C.ar  310  PHE310     -0.0042
    147  CE1      -14.5000  -12.2150   -5.3760 C.ar  310  PHE310     -0.0003
    148  CE2      -15.9770  -11.7430   -3.5510 C.ar  310  PHE310     -0.0003
    149  CZ       -14.9430  -12.4680   -4.0860 C.ar  310  PHE310     -0.0000
    150  N        -10.3600    0.6660    3.2630 N.3   320  MET320     -0.1245
    151  CA        -9.9120   -0.4990    2.4890 C.3   320  MET320      0.1570
    152  C        -10.7880   -0.6800    1.2680 C.2   320  MET320      0.2261
    153  O        -10.4080   -1.3860    0.3240 O.2   320  MET320     -0.2867
    154  CB        -9.9520   -1.7520    3.3630 C.3   320  MET320      0.0387
    155  CG        -9.0810   -1.7290    4.6320 C.3   320  MET320      0.0595
    156  SD        -7.3420   -1.9230    4.2390 S.3   320  MET320     -0.1393
    157  CE        -7.0020   -3.6740    4.1210 C.3   320  MET320      0.0692
    158  N        -13.9590   -1.7640    1.8080 N.3   322  TRP322     -0.1241
    159  CA       -14.7150   -2.8940    2.2740 C.3   322  TRP322      0.1605
    160  C        -16.1270   -2.4260    2.6010 C.2   322  TRP322      0.2264
    161  O        -16.3170   -1.4820    3.3460 O.2   322  TRP322     -0.2867
    162  CB       -14.0130   -3.5180    3.5040 C.3   322  TRP322      0.0550
    163  CG       -12.7080   -4.2470    3.2110 C.ar  322  TRP322      0.0003
    164  CD1      -12.2010   -4.5800    1.9710 C.ar  322  TRP322      0.0946
    165  CD2      -11.7750   -4.8360    4.1710 C.ar  322  TRP322      0.0152
    166  NE1      -11.0290   -5.2640    2.1180 N.ar  322  TRP322     -0.2442
    167  CE2      -10.7370   -5.3890    3.4440 C.ar  322  TRP322      0.0810
    168  CE3      -11.7110   -4.8810    5.5610 C.ar  322  TRP322      0.0012
    169  CZ2       -9.6790   -6.0130    4.0480 C.ar  322  TRP322      0.0191
    170  CZ3      -10.6420   -5.4650    6.1730 C.ar  322  TRP322      0.0001
    171  CH2       -9.6490   -6.0470    5.4240 C.ar  322  TRP322      0.0015
    172  N        -11.3260  -11.0070   15.7760 N.3   349  GLU349     -0.1245
    173  CA       -10.9920   -9.6460   15.2550 C.3   349  GLU349      0.1567
    174  C        -12.2530   -9.0230   14.6550 C.2   349  GLU349      0.2260
    175  O        -12.9200   -9.6310   13.8220 O.2   349  GLU349     -0.2867
    176  CB        -9.9630   -9.6980   14.1250 C.3   349  GLU349      0.0388
    177  CG        -8.5990  -10.2640   14.4460 C.3   349  GLU349      0.1160
    178  CD        -7.6830  -10.4020   13.2480 C.2   349  GLU349      0.3649
    179  OE1       -7.7820   -9.5790   12.2760 O.co2 349  GLU349     -0.2457
    180  OE2       -6.8020  -11.3280   13.3060 O.co2 349  GLU349     -0.2457
    181  N         -9.7450   -5.5590   16.4090 N.3   396  TRP396     -0.1241
    182  CA        -8.6190   -5.3090   15.5640 C.3   396  TRP396      0.1605
    183  C         -8.6320   -3.7950   15.3130 C.2   396  TRP396      0.2264
    184  O         -9.5410   -3.3710   14.6350 O.2   396  TRP396     -0.2867
    185  CB        -8.7140   -6.0460   14.2020 C.3   396  TRP396      0.0550
    186  CG        -7.4620   -5.8920   13.5240 C.ar  396  TRP396      0.0003
    187  CD1       -7.1720   -4.9900   12.5830 C.ar  396  TRP396      0.0946
    188  CD2       -6.2380   -6.5920   13.8240 C.ar  396  TRP396      0.0152
    189  NE1       -5.8610   -5.0470   12.2430 N.ar  396  TRP396     -0.2442
    190  CE2       -5.2300   -6.0080   13.0050 C.ar  396  TRP396      0.0810
    191  CE3       -5.8950   -7.6300   14.7090 C.ar  396  TRP396      0.0012
    192  CZ2       -3.9000   -6.4290   13.0130 C.ar  396  TRP396      0.0191
    193  CZ3       -4.5250   -8.1140   14.7020 C.ar  396  TRP396      0.0001
    194  CH2       -3.5370   -7.4610   13.8830 C.ar  396  TRP396      0.0015
    195  N         -0.1510   -2.6310    7.6850 N.3   403  GLU403     -0.1231
    196  CA        -1.3060   -3.3740    7.1290 C.3   403  GLU403      0.1699
    197  C         -0.9220   -4.1100    5.8450 C.2   403  GLU403      0.2592
    198  O         -1.3330   -3.7350    4.7520 O.2   403  GLU403     -0.2718
    199  CB        -2.5020   -2.4650    6.9010 C.3   403  GLU403      0.0402
    200  CG        -3.8050   -3.0960    6.3710 C.3   403  GLU403      0.1161
    201  CD        -4.1860   -4.3400    7.0800 C.2   403  GLU403      0.3649
    202  OE1       -4.1540   -4.4300    8.3410 O.co2 403  GLU403     -0.2457
    203  OE2       -4.4590   -5.2770    6.3300 O.co2 403  GLU403     -0.2457
    204  N          0.0020   -5.0780    6.0210 N.am  404  TRP404     -0.1976
    205  CA         0.4310   -6.0330    5.0120 C.3   404  TRP404      0.1640
    206  C          0.7790   -5.4120    3.7030 C.2   404  TRP404      0.2290
    207  O          1.6100   -4.5440    3.6920 O.2   404  TRP404     -0.2864
    208  CB        -0.5420   -7.2830    4.9650 C.3   404  TRP404      0.0576
    209  CG        -0.7640   -7.8760    6.3260 C.ar  404  TRP404      0.0006
    210  CD1       -1.9210   -7.9000    7.0170 C.ar  404  TRP404      0.0946
    211  CD2        0.2170   -8.5670    7.1750 C.ar  404  TRP404      0.0152
    212  NE1       -1.7600   -8.5700    8.2270 N.ar  404  TRP404     -0.2442
    213  CE2       -0.4570   -8.9600    8.3560 C.ar  404  TRP404      0.0810
    214  CE3        1.5920   -8.8200    7.0620 C.ar  404  TRP404      0.0012
    215  CZ2        0.1770   -9.6180    9.4180 C.ar  404  TRP404      0.0191
    216  CZ3        2.2530   -9.5130    8.1270 C.ar  404  TRP404      0.0001
    217  CH2        1.5490   -9.8690    9.2990 C.ar  404  TRP404      0.0015
    218  N         -6.0630    0.8400   11.5310 N.3   412  PHE412     -0.1241
    219  CA        -7.1910    0.0570   12.1190 C.3   412  PHE412      0.1605
    220  C         -7.2320    0.2280   13.6280 C.2   412  PHE412      0.2264
    221  O         -8.0020   -0.4410   14.3020 O.2   412  PHE412     -0.2867
    222  CB        -7.0710   -1.4690   11.8340 C.3   412  PHE412      0.0534
    223  CG        -7.5990   -1.9160   10.5020 C.ar  412  PHE412     -0.0203
    224  CD1       -8.9270   -2.3430   10.3660 C.ar  412  PHE412     -0.0042
    225  CD2       -6.7660   -2.0300    9.3990 C.ar  412  PHE412     -0.0042
    226  CE1       -9.3760   -2.8230    9.1850 C.ar  412  PHE412     -0.0003
    227  CE2       -7.2580   -2.4900    8.1870 C.ar  412  PHE412     -0.0003
    228  CZ        -8.5600   -2.9500    8.1060 C.ar  412  PHE412     -0.0000
@<TRIPOS>BOND
     1   142   141    2
     2   139   140    1
     3   141   140    1
     4   140   143    1
     5    82    81    2
     6   143   144    1
     7   145   144   ar
     8   145   147   ar
     9    85    87   ar
    10    85    84   ar
    11    87    89   ar
    12    81    80    1
    13    80    79    1
    14    80    83    1
    15   144   146   ar
    16   147   149   ar
    17    83    84    1
    18    84    86   ar
    19    89    90    1
    20    89    88   ar
    21   146   148   ar
    22   149   148   ar
    23    86    88   ar
    24    75    74    2
    25   131   132    2
    26   131   130    1
    27   133   130    1
    28   133   134    1
    29    74    73    1
    30   115   114    2
    31    91    92    1
    32   135   134   ar
    33   135   137   ar
    34    73    72    1
    35    73    76    1
    36   130   129    1
    37    62    64   ar
    38    62    60   ar
    39    94    93    2
    40    64    63   ar
    41   134   136   ar
    42    77    76    1
    43   116   114   am
    44   114   113    1
    45   137   138   ar
    46    76    78    1
    47   153   152    2
    48    93    92    1
    49    60    59   ar
    50    60    58   ar
    51    59    57   ar
    52    92    95    1
    53   136   138   ar
    54    63    61   ar
    55   109   110    1
    56   113   110    1
    57   152   151    1
    58    98    96   ar
    59    98   100   ar
    60    95    96    1
    61   110   111    1
    62    57    56   ar
    63    58    61   ar
    64    58    56   ar
    65   158   159    1
    66   164   166   ar
    67   164   163   ar
    68    96    97   ar
    69   166   167   ar
    70   100    99   ar
    71   159   160    1
    72   159   162    1
    73    54    53    2
    74    68    67    2
    75   151   150    1
    76   151   154    1
    77    56    55    1
    78   160   161    2
    79    97    99   ar
    80   111   112    2
    81   163   162    1
    82   163   165   ar
    83   154   155    1
    84   167   169   ar
    85   167   165   ar
    86    53    52    1
    87    53    65   am
    88    67    66    1
    89   207   206    2
    90   206   205    1
    91    66    65    1
    92    66    69    1
    93    55    52    1
    94   169   171   ar
    95    52    51    1
    96   157   156    1
    97    70    69    1
    98   165   168   ar
    99   156   155    1
   100   108   106   am
   101    69    71    1
   102   198   197    2
   103   208   205    1
   104   208   209    1
   105   205   204    1
   106   171   170   ar
   107   168   170   ar
   108   197   204   am
   109   197   196    1
   110   106   107    2
   111   106   105    1
   112   209   210   ar
   113   209   211   ar
   114   203   201   ar
   115   200   199    1
   116   200   201    1
   117    32    33   ar
   118    32    30   ar
   119    33    31   ar
   120   199   196    1
   121    45    44    2
   122   105   102    1
   123   210   212   ar
   124   214   211   ar
   125   214   216   ar
   126   201   202   ar
   127    30    27   ar
   128   196   195    1
   129   104   103    2
   130   211   213   ar
   131    31    29   ar
   132   119   120    2
   133   119   118    1
   134   103   102    1
   135    27    29   ar
   136    27    25   ar
   137    49    48   ar
   138   121   118    1
   139   121   122    1
   140    23    22    2
   141    29    28   ar
   142    44    43    1
   143   228   227   ar
   144   228   226   ar
   145   102   101    1
   146   216   217   ar
   147   227   225   ar
   148   212   213   ar
   149    25    24    1
   150    25    26   ar
   151    24    21    1
   152   213   215   ar
   153    28    26   ar
   154   118   117    1
   155    46    43    1
   156    46    47    1
   157    48    50   ar
   158    48    47    1
   159   122   124   ar
   160   122   123   ar
   161    22    21    1
   162   124   126   ar
   163    43    42    1
   164    21    20    1
   165   226   224   ar
   166   217   215   ar
   167   225   223   ar
   168   123   125   ar
   169    37    36    2
   170   126   127   ar
   171     9     7   am
   172    42    36   am
   173    20    12   am
   174   224   223   ar
   175   125   127   ar
   176   223   222    1
   177    36    35    1
   178   127   128    1
   179     7     6    1
   180     7     8    2
   181    41    39   am
   182     6     5    1
   183    12    13    2
   184    12    11    1
   185   218   219    1
   186    17    19   ar
   187    17    15   ar
   188   222   219    1
   189    19    18   ar
   190    39    38    1
   191    39    40    2
   192    35    38    1
   193    35    34    1
   194   219   220    1
   195     5     2    1
   196     2     1    1
   197     2     3    1
   198   189   187   ar
   199   189   190   ar
   200    11    10    1
   201    11    14    1
   202   179   178   ar
   203   187   186   ar
   204     4     3    2
   205    15    14    1
   206    15    16   ar
   207   190   192   ar
   208   190   188   ar
   209   192   194   ar
   210    18    16   ar
   211   178   180   ar
   212   178   177    1
   213   186   188   ar
   214   186   185    1
   215   220   221    2
   216   175   174    2
   217   188   191   ar
   218   194   193   ar
   219   176   177    1
   220   176   173    1
   221   185   182    1
   222   184   183    2
   223   174   173    1
   224   193   191   ar
   225   173   172    1
   226   183   182    1
   227   182   181    1
