@<TRIPOS>MOLECULE
tmp/5n6sD00.pdb
 158 158 0 0 0
SMALL
GASTEIGER

@<TRIPOS>ATOM
      1  N        -28.5510   15.3770  -32.3410 N.3    18  GLN18      -0.1245
      2  CA       -29.0520   14.4920  -31.3150 C.3    18  GLN18       0.1566
      3  C        -29.7080   15.3010  -30.1820 C.2    18  GLN18       0.2260
      4  O        -30.7290   14.8740  -29.6440 O.2    18  GLN18      -0.2867
      5  CB       -27.9650   13.5260  -30.8170 C.3    18  GLN18       0.0367
      6  CG       -27.5760   12.5150  -31.9030 C.3    18  GLN18       0.0905
      7  CD       -26.6100   11.4010  -31.4340 C.2    18  GLN18       0.2608
      8  OE1      -25.3820   11.5600  -31.5270 O.2    18  GLN18      -0.2717
      9  NE2      -27.1610   10.2470  -31.0030 N.am   18  GLN18      -0.0878
     10  N        -20.5580   15.8200  -37.5250 N.3   119  HIS119     -0.1226
     11  CA       -21.1650   14.6530  -36.8890 C.3   119  HIS119      0.1752
     12  C        -22.5040   14.4900  -37.5750 C.2   119  HIS119      0.2596
     13  O        -23.5680   14.4580  -36.9280 O.2   119  HIS119     -0.2718
     14  CB       -21.3020   14.8280  -35.3540 C.3   119  HIS119      0.0759
     15  CG       -21.5350   13.5430  -34.5820 C.ar  119  HIS119      0.0818
     16  ND1      -20.7970   13.2030  -33.4630 N.ar  119  HIS119     -0.2268
     17  CD2      -22.4300   12.5270  -34.7570 C.ar  119  HIS119      0.1154
     18  CE1      -21.2360   12.0470  -32.9820 C.ar  119  HIS119      0.1986
     19  NE2      -22.2160   11.6080  -33.7550 N.ar  119  HIS119     -0.2212
     20  N        -22.4430   14.4210  -38.9070 N.am  120  TRP120     -0.1976
     21  CA       -23.3900   13.6720  -39.7610 C.3   120  TRP120      0.1640
     22  C        -24.5300   14.4870  -40.3910 C.2   120  TRP120      0.2290
     23  O        -25.2830   13.9660  -41.2460 O.2   120  TRP120     -0.2864
     24  CB       -23.9710   12.4340  -39.0390 C.3   120  TRP120      0.0576
     25  CG       -23.0140   11.3950  -38.5200 C.ar  120  TRP120      0.0006
     26  CD1      -21.6440   11.4220  -38.5570 C.ar  120  TRP120      0.0946
     27  CD2      -23.3730   10.1800  -37.8130 C.ar  120  TRP120      0.0152
     28  NE1      -21.1230   10.2840  -37.9350 N.ar  120  TRP120     -0.2442
     29  CE2      -22.1600    9.5130  -37.4710 C.ar  120  TRP120      0.0810
     30  CE3      -24.5990    9.6010  -37.4210 C.ar  120  TRP120      0.0012
     31  CZ2      -22.1490    8.2730  -36.8020 C.ar  120  TRP120      0.0191
     32  CZ3      -24.5870    8.3760  -36.7520 C.ar  120  TRP120      0.0001
     33  CH2      -23.3740    7.7240  -36.4420 C.ar  120  TRP120      0.0015
     34  N        -16.4680   12.5910  -37.3520 N.3   163  ASN163     -0.1225
     35  CA       -16.8630   11.5760  -36.4300 C.3   163  ASN163      0.1785
     36  C        -17.3350   10.3830  -37.1810 C.2   163  ASN163      0.2597
     37  O        -18.3140   10.4400  -37.9730 O.2   163  ASN163     -0.2718
     38  CB       -17.9980   12.0920  -35.5190 C.3   163  ASN163      0.1169
     39  CG       -18.4870   11.0510  -34.5250 C.2   163  ASN163      0.2627
     40  OD1      -17.8930   10.8510  -33.4230 O.2   163  ASN163     -0.2716
     41  ND2      -19.5980   10.4160  -34.8620 N.am  163  ASN163     -0.0877
     42  N        -16.6540    9.2760  -36.9430 N.am  164  GLU164     -0.1979
     43  CA       -17.0020    7.9810  -37.5630 C.3   164  GLU164      0.1602
     44  C        -17.3140    7.9720  -39.1010 C.2   164  GLU164      0.2287
     45  O        -18.3820    7.5980  -39.4910 O.2   164  GLU164     -0.2864
     46  CB       -18.1570    7.3210  -36.7810 C.3   164  GLU164      0.0415
     47  CG       -18.0200    7.3650  -35.2680 C.3   164  GLU164      0.1163
     48  CD       -19.0490    6.4760  -34.5830 C.2   164  GLU164      0.3649
     49  OE1      -20.0870    6.1860  -35.2120 O.co2 164  GLU164     -0.2457
     50  OE2      -18.7790    5.9960  -33.4610 O.co2 164  GLU164     -0.2457
     51  N        -19.1350    4.9540  -40.5690 N.3   167  VAL167     -0.1245
     52  CA       -20.6090    5.0450  -40.4620 C.3   167  VAL167      0.1561
     53  C        -21.1990    5.9860  -41.5460 C.2   167  VAL167      0.2260
     54  O        -22.1720    5.6620  -42.1720 O.2   167  VAL167     -0.2867
     55  CB       -21.1200    5.5110  -39.0790 C.3   167  VAL167      0.0252
     56  CG1      -22.6550    5.4370  -39.0390 C.3   167  VAL167      0.0019
     57  CG2      -20.5730    4.6040  -37.9610 C.3   167  VAL167      0.0019
     58  N        -28.8300    4.9730  -42.2030 N.3   178  HIS178     -0.1241
     59  CA       -28.6620    6.3340  -41.8480 C.3   178  HIS178      0.1621
     60  C        -28.8920    7.1870  -43.0980 C.2   178  HIS178      0.2264
     61  O        -28.8290    6.6950  -44.2110 O.2   178  HIS178     -0.2867
     62  CB       -27.2680    6.5600  -41.2530 C.3   178  HIS178      0.0745
     63  CG       -27.1290    6.0870  -39.8270 C.ar  178  HIS178      0.0817
     64  ND1      -25.9960    6.3110  -39.0620 N.ar  178  HIS178     -0.2268
     65  CD2      -28.0020    5.4410  -39.0250 C.ar  178  HIS178      0.1154
     66  CE1      -26.2020    5.8340  -37.8510 C.ar  178  HIS178      0.1986
     67  NE2      -27.4080    5.2970  -37.8030 N.ar  178  HIS178     -0.2212
     68  N        -15.1310    4.8560  -35.2860 N.3   220  ASN220     -0.1240
     69  CA       -15.8280    3.8290  -34.5070 C.3   220  ASN220      0.1653
     70  C        -14.9690    2.5790  -34.5430 C.2   220  ASN220      0.2266
     71  O        -14.2470    2.3370  -35.5370 O.2   220  ASN220     -0.2867
     72  CB       -17.2350    3.4920  -35.0440 C.3   220  ASN220      0.1155
     73  CG       -17.2410    3.1750  -36.5150 C.2   220  ASN220      0.2627
     74  OD1      -17.1090    4.0890  -37.3110 O.2   220  ASN220     -0.2716
     75  ND2      -17.3470    1.8850  -36.8870 N.am  220  ASN220     -0.0877
     76  N        -17.7040    0.6910  -28.0370 N.3   292  TYR292     -0.1241
     77  CA       -18.8790    0.2950  -27.2740 C.3   292  TYR292      0.1605
     78  C        -18.9310   -1.1830  -26.9340 C.2   292  TYR292      0.2264
     79  O        -19.1140   -1.5680  -25.7640 O.2   292  TYR292     -0.2867
     80  CB       -20.1430    0.7210  -28.0230 C.3   292  TYR292      0.0534
     81  CG       -20.2910    2.2220  -28.0620 C.ar  292  TYR292     -0.0201
     82  CD1      -20.9460    2.8770  -27.0680 C.ar  292  TYR292     -0.0009
     83  CD2      -19.7520    2.9780  -29.0920 C.ar  292  TYR292     -0.0009
     84  CE1      -21.1260    4.2490  -27.0860 C.ar  292  TYR292      0.0417
     85  CE2      -19.8960    4.3450  -29.1290 C.ar  292  TYR292      0.0417
     86  CZ       -20.5960    4.9820  -28.1180 C.ar  292  TYR292      0.1957
     87  OH       -20.7450    6.3590  -28.1030 O.3   292  TYR292     -0.2866
     88  N        -26.0920   -4.7720  -27.9680 N.3   321  TRP321     -0.1241
     89  CA       -24.6390   -4.8210  -28.0140 C.3   321  TRP321      0.1605
     90  C        -24.0480   -5.4340  -26.7310 C.2   321  TRP321      0.2264
     91  O        -24.3100   -4.9660  -25.6080 O.2   321  TRP321     -0.2867
     92  CB       -24.0880   -3.4000  -28.1740 C.3   321  TRP321      0.0550
     93  CG       -24.5860   -2.6590  -29.4010 C.ar  321  TRP321      0.0003
     94  CD1      -25.1490   -3.2150  -30.5220 C.ar  321  TRP321      0.0946
     95  CD2      -24.4980   -1.2460  -29.6600 C.ar  321  TRP321      0.0152
     96  NE1      -25.4540   -2.2300  -31.4370 N.ar  321  TRP321     -0.2442
     97  CE2      -25.0390   -1.0190  -30.9430 C.ar  321  TRP321      0.0810
     98  CE3      -24.0020   -0.1610  -28.9490 C.ar  321  TRP321      0.0012
     99  CZ2      -25.1320    0.2620  -31.5040 C.ar  321  TRP321      0.0191
    100  CZ3      -24.1120    1.1200  -29.5150 C.ar  321  TRP321      0.0001
    101  CH2      -24.6730    1.3080  -30.7750 C.ar  321  TRP321      0.0015
    102  N        -15.5080    8.5700  -27.4620 N.3   348  GLU348     -0.1245
    103  CA       -16.7970    8.1320  -26.9880 C.3   348  GLU348      0.1567
    104  C        -16.7450    6.7270  -26.3600 C.2   348  GLU348      0.2260
    105  O        -16.1870    5.8080  -26.9590 O.2   348  GLU348     -0.2867
    106  CB       -17.8060    8.0700  -28.1110 C.3   348  GLU348      0.0388
    107  CG       -18.1050    9.3860  -28.7970 C.3   348  GLU348      0.1160
    108  CD       -19.0340    9.2700  -30.0050 C.2   348  GLU348      0.3649
    109  OE1      -19.7400    8.2290  -30.1210 O.co2 348  GLU348     -0.2457
    110  OE2      -19.0310   10.2270  -30.8350 O.co2 348  GLU348     -0.2457
    111  N        -19.9790    9.1330  -23.6560 N.3   391  TRP391     -0.1241
    112  CA       -21.1360    9.2750  -24.4830 C.3   391  TRP391      0.1605
    113  C        -22.2810    8.7040  -23.6190 C.2   391  TRP391      0.2264
    114  O        -22.2130    7.5200  -23.2280 O.2   391  TRP391     -0.2867
    115  CB       -21.0280    8.4650  -25.7830 C.3   391  TRP391      0.0550
    116  CG       -22.2070    8.7000  -26.5800 C.ar  391  TRP391      0.0003
    117  CD1      -23.3460    7.9650  -26.6060 C.ar  391  TRP391      0.0946
    118  CD2      -22.4340    9.8340  -27.3990 C.ar  391  TRP391      0.0152
    119  NE1      -24.2830    8.5640  -27.4400 N.ar  391  TRP391     -0.2442
    120  CE2      -23.7490    9.7290  -27.9170 C.ar  391  TRP391      0.0810
    121  CE3      -21.6630   10.9460  -27.7360 C.ar  391  TRP391      0.0012
    122  CZ2      -24.2840   10.6730  -28.7640 C.ar  391  TRP391      0.0191
    123  CZ3      -22.2180   11.8950  -28.5950 C.ar  391  TRP391      0.0001
    124  CH2      -23.5000   11.7420  -29.0930 C.ar  391  TRP391      0.0015
    125  N        -31.2620    9.1260  -30.8240 N.3   398  GLU398     -0.1231
    126  CA       -30.3390    8.0630  -31.2350 C.3   398  GLU398      0.1699
    127  C        -30.5210    7.5510  -32.6840 C.2   398  GLU398      0.2592
    128  O        -30.7890    6.3820  -32.9580 O.2   398  GLU398     -0.2718
    129  CB       -30.4820    6.8890  -30.2350 C.3   398  GLU398      0.0402
    130  CG       -29.4390    5.7810  -30.3610 C.3   398  GLU398      0.1161
    131  CD       -28.0090    6.3010  -30.4670 C.2   398  GLU398      0.3649
    132  OE1      -27.6390    7.4050  -30.0050 O.co2 398  GLU398     -0.2457
    133  OE2      -27.2410    5.5640  -31.0360 O.co2 398  GLU398     -0.2457
    134  N        -30.3890    8.4700  -33.6070 N.am  399  TRP399     -0.1976
    135  CA       -30.5190    8.1960  -35.0330 C.3   399  TRP399      0.1640
    136  C        -31.7740    7.4050  -35.3630 C.2   399  TRP399      0.2290
    137  O        -32.8630    7.8280  -35.0000 O.2   399  TRP399     -0.2864
    138  CB       -29.2040    7.6500  -35.5390 C.3   399  TRP399      0.0576
    139  CG       -28.0550    8.5670  -35.0600 C.ar  399  TRP399      0.0006
    140  CD1      -27.1340    8.2970  -34.0990 C.ar  399  TRP399      0.0946
    141  CD2      -27.8410    9.9200  -35.4460 C.ar  399  TRP399      0.0152
    142  NE1      -26.3020    9.3900  -33.9100 N.ar  399  TRP399     -0.2442
    143  CE2      -26.7160   10.3960  -34.7250 C.ar  399  TRP399      0.0810
    144  CE3      -28.4800   10.7760  -36.3610 C.ar  399  TRP399      0.0012
    145  CZ2      -26.1990   11.6770  -34.8900 C.ar  399  TRP399      0.0191
    146  CZ3      -27.9840   12.0700  -36.5190 C.ar  399  TRP399      0.0001
    147  CH2      -26.8270   12.4980  -35.8050 C.ar  399  TRP399      0.0015
    148  N        -28.5780    6.8390  -23.6150 N.3   407  PHE407     -0.1241
    149  CA       -27.0820    6.7600  -23.3870 C.3   407  PHE407      0.1605
    150  C        -26.5710    7.7440  -22.3340 C.2   407  PHE407      0.2264
    151  O        -25.3860    7.7070  -21.9270 O.2   407  PHE407     -0.2867
    152  CB       -26.3030    7.0570  -24.7020 C.3   407  PHE407      0.0534
    153  CG       -26.2230    5.8980  -25.6400 C.ar  407  PHE407     -0.0203
    154  CD1      -27.2430    5.6530  -26.5500 C.ar  407  PHE407     -0.0042
    155  CD2      -25.1150    5.0290  -25.6170 C.ar  407  PHE407     -0.0042
    156  CE1      -27.1630    4.5620  -27.4180 C.ar  407  PHE407     -0.0003
    157  CE2      -25.0310    3.9450  -26.4910 C.ar  407  PHE407     -0.0003
    158  CZ       -26.0570    3.7120  -27.3940 C.ar  407  PHE407     -0.0000
@<TRIPOS>BOND
     1    61    60    2
     2    60    59    1
     3    58    59    1
     4    54    53    2
     5    59    62    1
     6    53    52    1
     7    62    63    1
     8    23    22    2
     9    51    52    1
    10    52    55    1
    11    22    21    1
    12    63    64   ar
    13    63    65   ar
    14    21    24    1
    15    21    20    1
    16    45    44    2
    17    44    43    1
    18    55    56    1
    19    55    57    1
    20    64    66   ar
    21    24    25    1
    22    65    67   ar
    23    20    12   am
    24    26    25   ar
    25    26    28   ar
    26    25    27   ar
    27    37    36    2
    28    28    29   ar
    29    66    67   ar
    30    27    29   ar
    31    27    30   ar
    32    12    13    2
    33    12    11    1
    34    43    42    1
    35    43    46    1
    36    10    11    1
    37    29    31   ar
    38    30    32   ar
    39    34    35    1
    40    74    73    2
    41    36    42   am
    42    36    35    1
    43    11    14    1
    44    75    73   am
    45    31    33   ar
    46    46    47    1
    47    32    33   ar
    48   146   144   ar
    49   146   147   ar
    50    73    72    1
    51    35    38    1
    52   144   141   ar
    53   147   145   ar
    54   138   139    1
    55   138   135    1
    56    71    70    2
    57    38    39    1
    58   141   139   ar
    59   141   143   ar
    60   136   135    1
    61   136   137    2
    62    14    15    1
    63    68    69    1
    64    47    48    1
    65    49    48   ar
    66   139   140   ar
    67    72    69    1
    68   135   134    1
    69   145   143   ar
    70    41    39   am
    71    17    15   ar
    72    17    19   ar
    73   143   142   ar
    74    48    50   ar
    75    15    16   ar
    76    70    69    1
    77    39    40    2
    78   140   142   ar
    79    19    18   ar
    80   134   127   am
    81    16    18   ar
    82   128   127    2
    83   127   126    1
    84     1     2    1
    85     6     7    1
    86     6     5    1
    87     8     7    2
    88    99    97   ar
    89    99   101   ar
    90    96    97   ar
    91    96    94   ar
    92     7     9   am
    93     2     5    1
    94     2     3    1
    95   126   125    1
    96   126   129    1
    97   133   131   ar
    98    97    95   ar
    99   110   108   ar
   100   101   100   ar
   101    94    93   ar
   102   131   130    1
   103   131   132   ar
   104   130   129    1
   105     3     4    2
   106   109   108   ar
   107   108   107    1
   108    95    93   ar
   109    95    98   ar
   110   100    98   ar
   111    93    92    1
   112    85    83   ar
   113    85    86   ar
   114   124   122   ar
   115   124   123   ar
   116    83    81   ar
   117   107   106    1
   118   122   120   ar
   119   123   121   ar
   120    92    89    1
   121    86    87    1
   122    86    84   ar
   123   106   103    1
   124    81    80    1
   125    81    82   ar
   126    76    77    1
   127    80    77    1
   128    89    88    1
   129    89    90    1
   130   120   119   ar
   131   120   118   ar
   132   121   118   ar
   133   102   103    1
   134   119   117   ar
   135   156   158   ar
   136   156   154   ar
   137   118   116   ar
   138   158   157   ar
   139    77    78    1
   140    84    82   ar
   141   103   104    1
   142   105   104    2
   143    78    79    2
   144    90    91    2
   145   117   116   ar
   146   116   115    1
   147   154   153   ar
   148   157   155   ar
   149   115   112    1
   150   153   155   ar
   151   153   152    1
   152   152   149    1
   153   112   111    1
   154   112   113    1
   155   113   114    2
   156   148   149    1
   157   149   150    1
   158   150   151    2
