@<TRIPOS>MOLECULE
tmp/5n6tB00.pdb
 141 142 0 0 0
SMALL
GASTEIGER

@<TRIPOS>ATOM
      1  N         38.8010    6.2500  -13.2220 N.3    20  GLN20      -0.1245
      2  CA        40.0960    5.5510  -13.3010 C.3    20  GLN20       0.1566
      3  C         41.1010    5.9040  -12.1690 C.2    20  GLN20       0.2260
      4  O         41.9360    5.0850  -11.8380 O.2    20  GLN20      -0.2867
      5  CB        40.7310    5.7850  -14.6800 C.3    20  GLN20       0.0367
      6  CG        39.8420    5.2210  -15.7820 C.3    20  GLN20       0.0905
      7  CD        40.5370    5.0290  -17.0660 C.2    20  GLN20       0.2608
      8  OE1       40.3860    5.8400  -18.0060 O.2    20  GLN20      -0.2717
      9  NE2       41.2940    3.9580  -17.1470 N.am   20  GLN20      -0.0878
     10  N         32.9500   10.1920  -19.5880 N.3   121  HIS121     -0.1226
     11  CA        33.9980    9.1910  -19.8420 C.3   121  HIS121      0.1752
     12  C         33.6420    7.9070  -19.0780 C.2   121  HIS121      0.2596
     13  O         34.4330    7.3870  -18.3080 O.2   121  HIS121     -0.2718
     14  CB        35.3470    9.7730  -19.3880 C.3   121  HIS121      0.0759
     15  CG        36.5550    9.0900  -19.9390 C.ar  121  HIS121      0.0818
     16  ND1       37.5710    9.7980  -20.5340 N.ar  121  HIS121     -0.2268
     17  CD2       36.9220    7.7920  -19.9850 C.ar  121  HIS121      0.1154
     18  CE1       38.5120    8.9590  -20.9210 C.ar  121  HIS121      0.1986
     19  NE2       38.1340    7.7310  -20.6090 N.ar  121  HIS121     -0.2212
     20  N         32.3980    7.4650  -19.2750 N.am  122  TRP122     -0.1976
     21  CA        31.9590    6.0800  -19.1150 C.3   122  TRP122      0.1640
     22  C         31.2500    5.7420  -17.7880 C.2   122  TRP122      0.2290
     23  O         30.6790    4.6650  -17.6930 O.2   122  TRP122     -0.2864
     24  CB        33.0320    5.0450  -19.4310 C.3   122  TRP122      0.0576
     25  CG        33.7150    5.1740  -20.7650 C.ar  122  TRP122      0.0006
     26  CD1       33.4570    6.0860  -21.7760 C.ar  122  TRP122      0.0946
     27  CD2       34.7810    4.3400  -21.2270 C.ar  122  TRP122      0.0152
     28  NE1       34.3410    5.8750  -22.8220 N.ar  122  TRP122     -0.2442
     29  CE2       35.1630    4.8160  -22.5030 C.ar  122  TRP122      0.0810
     30  CE3       35.5380    3.3000  -20.6250 C.ar  122  TRP122      0.0012
     31  CZ2       36.1950    4.2020  -23.2560 C.ar  122  TRP122      0.0191
     32  CZ3       36.5500    2.7130  -21.3470 C.ar  122  TRP122      0.0001
     33  CH2       36.8850    3.1730  -22.6600 C.ar  122  TRP122      0.0015
     34  N         33.6790   10.6400  -24.6280 N.3   165  ASN165     -0.1225
     35  CA        34.8510    9.8300  -24.8830 C.3   165  ASN165      0.1785
     36  C         34.5170    8.4840  -25.4960 C.2   165  ASN165      0.2597
     37  O         33.8530    7.6510  -24.8750 O.2   165  ASN165     -0.2718
     38  CB        35.6920    9.5930  -23.5980 C.3   165  ASN165      0.1169
     39  CG        36.9520    8.8270  -23.8820 C.2   165  ASN165      0.2627
     40  OD1       37.8820    9.4150  -24.4120 O.2   165  ASN165     -0.2716
     41  ND2       36.9930    7.5270  -23.5650 N.am  165  ASN165     -0.0877
     42  N         34.9840    8.2980  -26.7260 N.am  166  GLU166     -0.1979
     43  CA        34.9860    7.0290  -27.4090 C.3   166  GLU166      0.1602
     44  C         33.5780    6.3450  -27.4180 C.2   166  GLU166      0.2287
     45  O         33.4420    5.1900  -26.9860 O.2   166  GLU166     -0.2864
     46  CB        36.0980    6.1110  -26.8670 C.3   166  GLU166      0.0415
     47  CG        37.5190    6.7090  -26.9100 C.3   166  GLU166      0.1163
     48  CD        38.6410    5.6990  -26.6210 C.2   166  GLU166      0.3649
     49  OE1       38.4170    4.6100  -26.0570 O.co2 166  GLU166     -0.2457
     50  OE2       39.7760    5.9490  -27.0500 O.co2 166  GLU166     -0.2457
     51  N         46.3970    4.4600  -30.4920 N.3   295  TYR295     -0.1241
     52  CA        47.2820    3.6000  -29.8050 C.3   295  TYR295      0.1605
     53  C         47.9330    2.5260  -30.7030 C.2   295  TYR295      0.2264
     54  O         49.0690    2.1120  -30.4430 O.2   295  TYR295     -0.2867
     55  CB        46.5080    2.8990  -28.6770 C.3   295  TYR295      0.0534
     56  CG        46.0510    3.7890  -27.5170 C.ar  295  TYR295     -0.0201
     57  CD1       44.7870    4.4200  -27.5140 C.ar  295  TYR295     -0.0009
     58  CD2       46.8570    3.9580  -26.3880 C.ar  295  TYR295     -0.0009
     59  CE1       44.3880    5.2250  -26.4500 C.ar  295  TYR295      0.0417
     60  CE2       46.4390    4.7400  -25.3210 C.ar  295  TYR295      0.0417
     61  CZ        45.2080    5.3630  -25.3580 C.ar  295  TYR295      0.1957
     62  OH        44.8400    6.1230  -24.2780 O.3   295  TYR295     -0.2866
     63  N         49.8080   -4.5860  -23.4550 N.3   322  MET322     -0.1245
     64  CA        48.4300   -4.9410  -23.7970 C.3   322  MET322      0.1570
     65  C         48.3570   -5.9480  -24.9090 C.2   322  MET322      0.2261
     66  O         47.2900   -6.4640  -25.1720 O.2   322  MET322     -0.2867
     67  CB        47.6520   -3.6970  -24.2540 C.3   322  MET322      0.0387
     68  CG        47.4630   -2.6420  -23.1900 C.3   322  MET322      0.0595
     69  SD        46.4850   -3.0910  -21.7340 S.3   322  MET322     -0.1393
     70  CE        45.3030   -4.2860  -22.3970 C.3   322  MET322      0.0692
     71  N         49.2390   -4.9250  -27.9370 N.3   324  TRP324     -0.1241
     72  CA        48.8740   -4.0570  -29.0620 C.3   324  TRP324      0.1605
     73  C         50.1120   -3.6980  -29.8560 C.2   324  TRP324      0.2264
     74  O         51.1110   -3.2470  -29.2910 O.2   324  TRP324     -0.2867
     75  CB        48.2450   -2.7480  -28.5830 C.3   324  TRP324      0.0550
     76  CG        46.9360   -2.8890  -27.8440 C.ar  324  TRP324      0.0003
     77  CD1       46.0900   -3.9700  -27.8490 C.ar  324  TRP324      0.0946
     78  CD2       46.3230   -1.8990  -26.9960 C.ar  324  TRP324      0.0152
     79  NE1       45.0140   -3.7080  -27.0400 N.ar  324  TRP324     -0.2442
     80  CE2       45.1230   -2.4520  -26.5160 C.ar  324  TRP324      0.0810
     81  CE3       46.6730   -0.5970  -26.6060 C.ar  324  TRP324      0.0012
     82  CZ2       44.2590   -1.7530  -25.6790 C.ar  324  TRP324      0.0191
     83  CZ3       45.8030    0.1160  -25.7570 C.ar  324  TRP324      0.0001
     84  CH2       44.6110   -0.4760  -25.3030 C.ar  324  TRP324      0.0015
     85  N         44.3630   11.3540  -26.8210 N.3   351  GLU351     -0.1245
     86  CA        45.0220   10.2860  -26.1010 C.3   351  GLU351      0.1567
     87  C         46.0180    9.6250  -26.9760 C.2   351  GLU351      0.2260
     88  O         45.6880    9.2460  -28.0870 O.2   351  GLU351     -0.2867
     89  CB        44.0790    9.1520  -25.6800 C.3   351  GLU351      0.0388
     90  CG        43.1120    9.5280  -24.5980 C.3   351  GLU351      0.1160
     91  CD        42.2050    8.3860  -24.1190 C.2   351  GLU351      0.3649
     92  OE1       42.5660    7.1450  -24.1940 O.co2 351  GLU351     -0.2457
     93  OE2       41.0900    8.8130  -23.6740 O.co2 351  GLU351     -0.2457
     94  N         48.2270    9.7530  -22.7300 N.3   398  TRP398     -0.1241
     95  CA        47.5040    8.8940  -21.8100 C.3   398  TRP398      0.1605
     96  C         48.5480    8.0510  -21.0780 C.2   398  TRP398      0.2264
     97  O         49.1640    7.1840  -21.7150 O.2   398  TRP398     -0.2867
     98  CB        46.5130    7.9050  -22.5200 C.3   398  TRP398      0.0550
     99  CG        45.7130    7.2070  -21.4660 C.ar  398  TRP398      0.0003
    100  CD1       45.9720    5.9980  -20.9040 C.ar  398  TRP398      0.0946
    101  CD2       44.5880    7.7490  -20.7620 C.ar  398  TRP398      0.0152
    102  NE1       45.0560    5.7430  -19.8680 N.ar  398  TRP398     -0.2442
    103  CE2       44.1920    6.7970  -19.7880 C.ar  398  TRP398      0.0810
    104  CE3       43.8390    8.9290  -20.8980 C.ar  398  TRP398      0.0012
    105  CZ2       43.1130    7.0020  -18.9480 C.ar  398  TRP398      0.0191
    106  CZ3       42.7490    9.1270  -20.0700 C.ar  398  TRP398      0.0001
    107  CH2       42.3990    8.1680  -19.1120 C.ar  398  TRP398      0.0015
    108  N         42.6370    0.4460  -15.1550 N.3   405  GLU405     -0.1231
    109  CA        42.4550    0.2370  -16.5890 C.3   405  GLU405      0.1699
    110  C         41.2130   -0.6610  -16.9370 C.2   405  GLU405      0.2592
    111  O         41.3160   -1.7290  -17.5760 O.2   405  GLU405     -0.2718
    112  CB        43.7650   -0.3510  -17.1520 C.3   405  GLU405      0.0402
    113  CG        43.8120   -0.5310  -18.6680 C.3   405  GLU405      0.1161
    114  CD        43.3390    0.7140  -19.4240 C.2   405  GLU405      0.3649
    115  OE1       43.6960    1.8580  -19.0130 O.co2 405  GLU405     -0.2457
    116  OE2       42.5950    0.5310  -20.4220 O.co2 405  GLU405     -0.2457
    117  N         40.0370   -0.2350  -16.4860 N.am  406  TRP406     -0.1976
    118  CA        38.7800   -0.9140  -16.8520 C.3   406  TRP406      0.1640
    119  C         38.7780   -2.4660  -16.6150 C.2   406  TRP406      0.2290
    120  O         39.1230   -2.9170  -15.5230 O.2   406  TRP406     -0.2864
    121  CB        38.4280   -0.5180  -18.2960 C.3   406  TRP406      0.0576
    122  CG        38.4340    0.9910  -18.4840 C.ar  406  TRP406      0.0006
    123  CD1       39.2470    1.6890  -19.3250 C.ar  406  TRP406      0.0946
    124  CD2       37.6260    1.9690  -17.8050 C.ar  406  TRP406      0.0152
    125  NE1       38.9880    3.0340  -19.2330 N.ar  406  TRP406     -0.2442
    126  CE2       38.0030    3.2390  -18.3090 C.ar  406  TRP406      0.0810
    127  CE3       36.5910    1.8940  -16.8440 C.ar  406  TRP406      0.0012
    128  CZ2       37.4030    4.3930  -17.9120 C.ar  406  TRP406      0.0191
    129  CZ3       35.9930    3.0230  -16.4510 C.ar  406  TRP406      0.0001
    130  CH2       36.3870    4.2860  -16.9710 C.ar  406  TRP406      0.0015
    131  N         49.7960    2.7920  -17.6790 N.3   414  PHE414     -0.1241
    132  CA        49.9450    3.6880  -18.8580 C.3   414  PHE414      0.1605
    133  C         50.5730    5.0140  -18.4720 C.2   414  PHE414      0.2264
    134  O         50.8570    5.8490  -19.3340 O.2   414  PHE414     -0.2867
    135  CB        48.5680    3.9880  -19.5310 C.3   414  PHE414      0.0534
    136  CG        48.0930    2.9120  -20.4650 C.ar  414  PHE414     -0.0203
    137  CD1       47.4460    1.7920  -19.9730 C.ar  414  PHE414     -0.0042
    138  CD2       48.2990    3.0190  -21.8200 C.ar  414  PHE414     -0.0042
    139  CE1       46.9960    0.8130  -20.8170 C.ar  414  PHE414     -0.0003
    140  CE2       47.8770    2.0300  -22.6870 C.ar  414  PHE414     -0.0003
    141  CZ        47.2180    0.9170  -22.1840 C.ar  414  PHE414     -0.0000
@<TRIPOS>BOND
     1    53    54    2
     2    53    52    1
     3    51    52    1
     4    73    74    2
     5    73    72    1
     6    52    55    1
     7    72    75    1
     8    72    71    1
     9    55    56    1
    10    75    76    1
    11    88    87    2
    12    77    76   ar
    13    77    79   ar
    14    76    78   ar
    15    56    57   ar
    16    56    58   ar
    17    57    59   ar
    18    44    43    1
    19    44    45    2
    20    43    46    1
    21    43    42    1
    22    50    48   ar
    23    79    80   ar
    24    78    81   ar
    25    78    80   ar
    26    87    86    1
    27    47    46    1
    28    47    48    1
    29    85    86    1
    30    42    36   am
    31    48    49   ar
    32    81    83   ar
    33    80    82   ar
    34    59    61   ar
    35    58    60   ar
    36    86    89    1
    37    83    84   ar
    38    89    90    1
    39    82    84   ar
    40    36    35    1
    41    36    37    2
    42    61    60   ar
    43    61    62    1
    44    66    65    2
    45    65    64    1
    46    35    34    1
    47    35    38    1
    48    90    91    1
    49    40    39    2
    50    67    64    1
    51    67    68    1
    52    92    91   ar
    53    91    93   ar
    54    39    38    1
    55    39    41   am
    56    64    63    1
    57    31    33   ar
    58    31    29   ar
    59    68    69    1
    60    28    29   ar
    61    28    26   ar
    62    94    95    1
    63   140   141   ar
    64   140   138   ar
    65    33    32   ar
    66    98    95    1
    67    98    99    1
    68    29    27   ar
    69    70    69    1
    70   141   139   ar
    71   138   136   ar
    72    95    96    1
    73    26    25   ar
    74    97    96    2
    75    99   100   ar
    76    99   101   ar
    77    32    30   ar
    78    27    25   ar
    79    27    30   ar
    80    18    19   ar
    81    18    16   ar
    82   100   102   ar
    83   104   101   ar
    84   104   106   ar
    85   139   137   ar
    86    25    24    1
    87   101   103   ar
    88    19    17   ar
    89    16    15   ar
    90   136   137   ar
    91   136   135    1
    92   116   114   ar
    93   106   107   ar
    94    17    15   ar
    95    15    14    1
    96   102   103   ar
    97    11    10    1
    98    11    14    1
    99    11    12    1
   100   103   105   ar
   101   135   132    1
   102    24    21    1
   103   114   115   ar
   104   114   113    1
   105   134   133    2
   106   123   125   ar
   107   123   122   ar
   108    20    21    1
   109    20    12   am
   110   125   126   ar
   111    21    22    1
   112   107   105   ar
   113    12    13    2
   114   132   133    1
   115   132   131    1
   116   113   112    1
   117   122   121    1
   118   122   124   ar
   119   126   128   ar
   120   126   124   ar
   121   121   118    1
   122     8     7    2
   123   128   130   ar
   124   124   127   ar
   125    22    23    2
   126   111   110    2
   127   112   109    1
   128     9     7   am
   129     7     6    1
   130   130   129   ar
   131   110   109    1
   132   110   117   am
   133   118   119    1
   134   118   117    1
   135   127   129   ar
   136   119   120    2
   137   109   108    1
   138     6     5    1
   139     5     2    1
   140     2     1    1
   141     2     3    1
   142     3     4    2
