@<TRIPOS>MOLECULE
tmp/5n6uC00.pdb
 169 177 0 0 0
SMALL
GASTEIGER

@<TRIPOS>ATOM
      1  N        -47.6230   -5.2860   81.7770 N.3   164  TRP164     -0.1227
      2  CA       -46.9970   -4.1950   81.0410 C.3   164  TRP164      0.1737
      3  C        -45.9440   -3.4830   81.9090 C.2   164  TRP164      0.2595
      4  O        -45.5790   -3.9630   82.9850 O.2   164  TRP164     -0.2718
      5  CB       -48.0720   -3.2330   80.5230 C.3   164  TRP164      0.0564
      6  CG       -47.8240   -2.7090   79.1010 C.ar  164  TRP164      0.0003
      7  CD1      -47.4360   -1.4480   78.7480 C.ar  164  TRP164      0.0946
      8  CD2      -47.9550   -3.4380   77.8800 C.ar  164  TRP164      0.0152
      9  NE1      -47.3170   -1.3460   77.3890 N.ar  164  TRP164     -0.2442
     10  CE2      -47.6200   -2.5550   76.8280 C.ar  164  TRP164      0.0810
     11  CE3      -48.3150   -4.7520   77.5690 C.ar  164  TRP164      0.0012
     12  CZ2      -47.6410   -2.9430   75.4770 C.ar  164  TRP164      0.0191
     13  CZ3      -48.3390   -5.1390   76.2240 C.ar  164  TRP164      0.0001
     14  CH2      -48.0060   -4.2330   75.1980 C.ar  164  TRP164      0.0015
     15  N        -45.3990   -2.3870   81.3820 N.am  165  ASP165     -0.1960
     16  CA       -44.5450   -1.4350   82.1180 C.3   165  ASP165      0.1840
     17  C        -45.1270   -0.9080   83.4530 C.2   165  ASP165      0.2622
     18  O        -44.3900   -0.4990   84.3570 O.2   165  ASP165     -0.2715
     19  CB       -44.2600   -0.2270   81.1970 C.3   165  ASP165      0.1450
     20  CG       -43.0400   -0.4350   80.2880 C.2   165  ASP165      0.3671
     21  OD1      -41.9020   -0.2790   80.7860 O.co2 165  ASP165     -0.2456
     22  OD2      -43.2200   -0.7150   79.0820 O.co2 165  ASP165     -0.2456
     23  N        -46.4540   -0.8860   83.5420 N.am  166  TRP166     -0.1974
     24  CA       -47.2140   -0.3000   84.6750 C.3   166  TRP166      0.1640
     25  C        -48.3240   -1.2140   85.2040 C.2   166  TRP166      0.2290
     26  O        -48.8510   -0.9620   86.2840 O.2   166  TRP166     -0.2864
     27  CB       -47.8270    1.0260   84.2110 C.3   166  TRP166      0.0576
     28  CG       -48.3280    0.9360   82.7970 C.ar  166  TRP166      0.0006
     29  CD1      -47.6590    1.2840   81.6600 C.ar  166  TRP166      0.0946
     30  CD2      -49.5620    0.3490   82.3640 C.ar  166  TRP166      0.0152
     31  NE1      -48.4170    0.9860   80.5470 N.ar  166  TRP166     -0.2442
     32  CE2      -49.5950    0.4300   80.9610 C.ar  166  TRP166      0.0810
     33  CE3      -50.6600   -0.2120   83.0340 C.ar  166  TRP166      0.0012
     34  CZ2      -50.6690   -0.0190   80.2200 C.ar  166  TRP166      0.0191
     35  CZ3      -51.7330   -0.6610   82.2880 C.ar  166  TRP166      0.0001
     36  CH2      -51.7300   -0.5590   80.8990 C.ar  166  TRP166      0.0015
     37  N        -55.4660    4.3690   74.4730 N.3   358  TRP358     -0.1241
     38  CA       -54.2490    3.6800   74.0710 C.3   358  TRP358      0.1605
     39  C        -54.5480    2.2810   73.5960 C.2   358  TRP358      0.2264
     40  O        -55.1980    1.5070   74.3070 O.2   358  TRP358     -0.2867
     41  CB       -53.3090    3.6310   75.2690 C.3   358  TRP358      0.0550
     42  CG       -52.0850    2.8520   75.1250 C.ar  358  TRP358      0.0003
     43  CD1      -50.9870    3.1850   74.4250 C.ar  358  TRP358      0.0946
     44  CD2      -51.8010    1.6170   75.7690 C.ar  358  TRP358      0.0152
     45  NE1      -50.0200    2.2200   74.5680 N.ar  358  TRP358     -0.2442
     46  CE2      -50.4970    1.2400   75.3900 C.ar  358  TRP358      0.0810
     47  CE3      -52.5340    0.7770   76.6200 C.ar  358  TRP358      0.0012
     48  CZ2      -49.9010    0.0610   75.8310 C.ar  358  TRP358      0.0191
     49  CZ3      -51.9540   -0.3950   77.0570 C.ar  358  TRP358      0.0001
     50  CH2      -50.6430   -0.7470   76.6610 C.ar  358  TRP358      0.0015
     51  N        -47.0750   -2.3990   70.2980 N.3   387  CYS387     -0.1235
     52  CA       -45.6710   -2.7170   70.5870 C.3   387  CYS387      0.1677
     53  C        -45.3890   -4.2030   70.4270 C.2   387  CYS387      0.2270
     54  O        -44.8080   -4.8230   71.3150 O.2   387  CYS387     -0.2867
     55  CB       -45.2540   -2.1590   71.9850 C.3   387  CYS387      0.0956
     56  SG       -44.8000   -0.3810   72.0770 S.3   387  CYS387     -0.0801
     57  N        -49.9740    1.0490   68.2580 N.3   424  ASN424     -0.1225
     58  CA       -49.0450    1.7720   69.0940 C.3   424  ASN424      0.1785
     59  C        -47.6390    1.2430   68.7600 C.2   424  ASN424      0.2597
     60  O        -47.4080    0.0380   68.8120 O.2   424  ASN424     -0.2718
     61  CB       -49.3180    1.5220   70.5690 C.3   424  ASN424      0.1169
     62  CG       -48.3200    2.2300   71.4920 C.2   424  ASN424      0.2627
     63  OD1      -48.1810    3.4450   71.4480 O.2   424  ASN424     -0.2716
     64  ND2      -47.6370    1.4700   72.3450 N.am  424  ASN424     -0.0877
     65  N        -46.7360    2.1400   68.3970 N.am  425  CYS425     -0.1970
     66  CA       -45.2770    1.9130   68.2870 C.3   425  CYS425      0.1712
     67  C        -44.6830    0.8830   67.2780 C.2   425  CYS425      0.2296
     68  O        -43.4530    0.7790   67.1820 O.2   425  CYS425     -0.2864
     69  CB       -44.6010    1.7670   69.6880 C.3   425  CYS425      0.0983
     70  SG       -44.1000    0.0590   70.1780 S.3   425  CYS425     -0.0798
     71  N        -42.5460    2.3990   64.2340 N.3   428  TRP428     -0.1241
     72  CA       -41.3230    2.8140   64.9460 C.3   428  TRP428      0.1605
     73  C        -40.4600    1.6020   65.3210 C.2   428  TRP428      0.2264
     74  O        -39.2660    1.5970   65.0680 O.2   428  TRP428     -0.2867
     75  CB       -41.6560    3.6630   66.1910 C.3   428  TRP428      0.0550
     76  CG       -40.4510    4.2020   66.9390 C.ar  428  TRP428      0.0003
     77  CD1      -39.1980    4.4160   66.4320 C.ar  428  TRP428      0.0946
     78  CD2      -40.3990    4.6180   68.3190 C.ar  428  TRP428      0.0152
     79  NE1      -38.3640    4.9040   67.4090 N.ar  428  TRP428     -0.2442
     80  CE2      -39.0730    5.0460   68.5750 C.ar  428  TRP428      0.0810
     81  CE3      -41.3330    4.6480   69.3700 C.ar  428  TRP428      0.0012
     82  CZ2      -38.6550    5.5020   69.8430 C.ar  428  TRP428      0.0191
     83  CZ3      -40.9160    5.1160   70.6340 C.ar  428  TRP428      0.0001
     84  CH2      -39.5850    5.5320   70.8530 C.ar  428  TRP428      0.0015
     85  N        -43.1600   10.3250   69.8200 N.3   484  HIS484     -0.1241
     86  CA       -43.0930    9.8010   71.1720 C.3   484  HIS484      0.1621
     87  C        -41.7670   10.2100   71.7220 C.2   484  HIS484      0.2264
     88  O        -40.7380    9.7460   71.2220 O.2   484  HIS484     -0.2867
     89  CB       -43.1470    8.2820   71.1650 C.3   484  HIS484      0.0745
     90  CG       -44.5140    7.7330   70.9450 C.ar  484  HIS484      0.0817
     91  ND1      -44.8570    6.4380   71.2670 N.ar  484  HIS484     -0.2268
     92  CD2      -45.6260    8.3070   70.4390 C.ar  484  HIS484      0.1154
     93  CE1      -46.1200    6.2340   70.9470 C.ar  484  HIS484      0.1986
     94  NE2      -46.6150    7.3570   70.4610 N.ar  484  HIS484     -0.2212
     95  N        -39.5530    9.4890   74.4590 N.3   486  TRP486     -0.1241
     96  CA       -39.0010    8.6970   75.5600 C.3   486  TRP486      0.1605
     97  C        -37.4970    8.8450   75.6940 C.2   486  TRP486      0.2264
     98  O        -36.8650    8.1150   76.4490 O.2   486  TRP486     -0.2867
     99  CB       -39.3970    7.2490   75.3920 C.3   486  TRP486      0.0550
    100  CG       -40.8470    7.1200   75.5170 C.ar  486  TRP486      0.0003
    101  CD1      -41.7270    6.8430   74.5340 C.ar  486  TRP486      0.0946
    102  CD2      -41.5970    7.2900   76.7040 C.ar  486  TRP486      0.0152
    103  NE1      -42.9950    6.8250   75.0420 N.ar  486  TRP486     -0.2442
    104  CE2      -42.9340    7.0930   76.3860 C.ar  486  TRP486      0.0810
    105  CE3      -41.2650    7.5930   78.0170 C.ar  486  TRP486      0.0012
    106  CZ2      -43.9460    7.1780   77.3440 C.ar  486  TRP486      0.0191
    107  CZ3      -42.2900    7.6690   78.9740 C.ar  486  TRP486      0.0001
    108  CH2      -43.5830    7.4680   78.6320 C.ar  486  TRP486      0.0015
    109  N        -37.5820    9.8940   79.7470 N.3   489  TRP489     -0.1227
    110  CA       -37.6870    8.8900   80.8270 C.3   489  TRP489      0.1737
    111  C        -36.8360    7.6410   80.5540 C.2   489  TRP489      0.2595
    112  O        -36.0340    7.2290   81.3960 O.2   489  TRP489     -0.2718
    113  CB       -39.1510    8.4760   81.0720 C.3   489  TRP489      0.0564
    114  CG       -39.2530    7.2530   81.8680 C.ar  489  TRP489      0.0003
    115  CD1      -39.4330    5.9770   81.3990 C.ar  489  TRP489      0.0946
    116  CD2      -39.1050    7.1490   83.2830 C.ar  489  TRP489      0.0152
    117  NE1      -39.4080    5.0760   82.4490 N.ar  489  TRP489     -0.2442
    118  CE2      -39.2250    5.7730   83.6180 C.ar  489  TRP489      0.0810
    119  CE3      -38.9110    8.0770   84.3040 C.ar  489  TRP489      0.0012
    120  CZ2      -39.1840    5.3100   84.9440 C.ar  489  TRP489      0.0191
    121  CZ3      -38.8370    7.6130   85.6470 C.ar  489  TRP489      0.0001
    122  CH2      -38.9900    6.2410   85.9430 C.ar  489  TRP489      0.0015
    123  N        -37.0640    7.0260   79.3920 N.am  490  HIS490     -0.1975
    124  CA       -36.6110    5.6550   79.1170 C.3   490  HIS490      0.1656
    125  C        -35.1480    5.6480   78.7280 C.2   490  HIS490      0.2291
    126  O        -34.3680    4.9030   79.2930 O.2   490  HIS490     -0.2864
    127  CB       -37.4690    4.9930   78.0310 C.3   490  HIS490      0.0771
    128  CG       -37.1600    3.5460   77.8340 C.ar  490  HIS490      0.0820
    129  ND1      -37.8410    2.5470   78.4920 N.ar  490  HIS490     -0.2267
    130  CD2      -36.2130    2.9300   77.0870 C.ar  490  HIS490      0.1154
    131  CE1      -37.3350    1.3750   78.1500 C.ar  490  HIS490      0.1986
    132  NE2      -36.3490    1.5810   77.2950 N.ar  490  HIS490     -0.2212
    133  N        -46.8980   11.1820   72.9390 N.3   508  GLU508     -0.1245
    134  CA       -46.4850   10.3940   74.1020 C.3   508  GLU508      0.1567
    135  C        -45.1940   10.9800   74.7170 C.2   508  GLU508      0.2260
    136  O        -44.2870   11.4280   73.9980 O.2   508  GLU508     -0.2867
    137  CB       -46.2580    8.9560   73.6740 C.3   508  GLU508      0.0388
    138  CG       -46.9250    7.9190   74.5130 C.3   508  GLU508      0.1160
    139  CD       -46.6680    6.4980   74.0100 C.2   508  GLU508      0.3649
    140  OE1      -47.6100    5.8490   73.4740 O.co2 508  GLU508     -0.2457
    141  OE2      -45.5140    6.0200   74.1320 O.co2 508  GLU508     -0.2457
    142  N        -48.0140   10.8760   78.8540 N.3   599  TRP599     -0.1241
    143  CA       -48.1250    9.4340   78.7270 C.3   599  TRP599      0.1605
    144  C        -49.0740    8.8140   79.7280 C.2   599  TRP599      0.2264
    145  O        -49.3880    7.6380   79.6390 O.2   599  TRP599     -0.2867
    146  CB       -46.8820    8.5790   78.6070 C.3   599  TRP599      0.0550
    147  CG       -47.5620    7.2330   78.1390 C.ar  599  TRP599      0.0003
    148  CD1      -48.3770    7.0140   76.9620 C.ar  599  TRP599      0.0946
    149  CD2      -47.6890    6.0740   78.8770 C.ar  599  TRP599      0.0152
    150  NE1      -48.9090    5.7470   76.9660 N.ar  599  TRP599     -0.2442
    151  CE2      -48.5200    5.1550   78.1370 C.ar  599  TRP599      0.0810
    152  CE3      -47.1990    5.7110   80.0880 C.ar  599  TRP599      0.0012
    153  CZ2      -48.7960    3.9180   78.5890 C.ar  599  TRP599      0.0191
    154  CZ3      -47.4680    4.4970   80.5300 C.ar  599  TRP599      0.0001
    155  CH2      -48.2610    3.6020   79.7790 C.ar  599  TRP599      0.0015
    156  N        -46.2060    6.4000   85.7050 N.3   610  TRP610     -0.1241
    157  CA       -46.3100    7.7050   85.0520 C.3   610  TRP610      0.1605
    158  C        -47.6100    8.4430   85.4070 C.2   610  TRP610      0.2264
    159  O        -47.6830    9.6650   85.2290 O.2   610  TRP610     -0.2867
    160  CB       -46.1840    7.5220   83.5050 C.3   610  TRP610      0.0550
    161  CG       -44.8890    6.9240   83.0930 C.ar  610  TRP610      0.0003
    162  CD1      -43.7350    7.5830   82.8080 C.ar  610  TRP610      0.0946
    163  CD2      -44.5990    5.5300   82.9700 C.ar  610  TRP610      0.0152
    164  NE1      -42.7400    6.6920   82.5170 N.ar  610  TRP610     -0.2442
    165  CE2      -43.2380    5.4230   82.6200 C.ar  610  TRP610      0.0810
    166  CE3      -45.3520    4.3490   83.1330 C.ar  610  TRP610      0.0012
    167  CZ2      -42.6180    4.1860   82.4090 C.ar  610  TRP610      0.0191
    168  CZ3      -44.7180    3.1190   82.9460 C.ar  610  TRP610      0.0001
    169  CH2      -43.3760    3.0540   82.5780 C.ar  610  TRP610      0.0015
@<TRIPOS>BOND
     1    71    72    1
     2    72    73    1
     3    72    75    1
     4    74    73    2
     5    75    76    1
     6    77    76   ar
     7    77    79   ar
     8    76    78   ar
     9    68    67    2
    10    67    66    1
    11    79    80   ar
    12    57    58    1
    13    66    65    1
    14    66    69    1
    15    78    80   ar
    16    78    81   ar
    17    65    59   am
    18    80    82   ar
    19    59    60    2
    20    59    58    1
    21    58    61    1
    22    81    83   ar
    23    69    70    1
    24    85    86    1
    25    82    84   ar
    26    70    56    1
    27    51    52    1
    28    53    52    1
    29    53    54    2
    30    92    94   ar
    31    92    90   ar
    32    94    93   ar
    33    61    62    1
    34    52    55    1
    35    83    84   ar
    36    90    89    1
    37    90    91   ar
    38    93    91   ar
    39    89    86    1
    40    86    87    1
    41    88    87    2
    42    63    62    2
    43    62    64   am
    44    55    56    1
    45   133   134    1
    46   140   139   ar
    47    39    38    1
    48    39    40    2
    49   137   134    1
    50   137   138    1
    51   136   135    2
    52   139   141   ar
    53   139   138    1
    54    38    37    1
    55    38    41    1
    56   134   135    1
    57    43    45   ar
    58    43    42   ar
    59    95    96    1
    60   101   103   ar
    61   101   100   ar
    62    45    46   ar
    63   103   104   ar
    64    42    41    1
    65    42    44   ar
    66    14    12   ar
    67    14    13   ar
    68    46    44   ar
    69    46    48   ar
    70    99   100    1
    71    99    96    1
    72    12    10   ar
    73   100   102   ar
    74    96    97    1
    75    97    98    2
    76    44    47   ar
    77    48    50   ar
    78    13    11   ar
    79   104   102   ar
    80   104   106   ar
    81    47    49   ar
    82    50    49   ar
    83   102   105   ar
    84    10     9   ar
    85    10     8   ar
    86   148   150   ar
    87   148   147   ar
    88   150   151   ar
    89   130   132   ar
    90   130   128   ar
    91   132   131   ar
    92   106   108   ar
    93     9     7   ar
    94    11     8   ar
    95   128   127    1
    96   128   129   ar
    97     8     6   ar
    98   105   107   ar
    99   127   124    1
   100   151   153   ar
   101   151   149   ar
   102   147   146    1
   103   147   149   ar
   104   131   129   ar
   105   153   155   ar
   106   146   143    1
   107   108   107   ar
   108   143   142    1
   109   143   144    1
   110   125   124    1
   111   125   126    2
   112     7     6   ar
   113   149   152   ar
   114    22    20   ar
   115     6     5    1
   116   124   123    1
   117   123   111   am
   118   145   144    2
   119   109   110    1
   120   155   154   ar
   121   152   154   ar
   122    34    36   ar
   123    34    32   ar
   124    20    21   ar
   125    20    19    1
   126     5     2    1
   127    31    32   ar
   128    31    29   ar
   129   111   110    1
   130   111   112    2
   131   110   113    1
   132    36    35   ar
   133    32    30   ar
   134     2     1    1
   135     2     3    1
   136   113   114    1
   137    19    16    1
   138    15     3   am
   139    15    16    1
   140   115   114   ar
   141   115   117   ar
   142    29    28   ar
   143   114   116   ar
   144     3     4    2
   145    16    17    1
   146    35    33   ar
   147    30    28   ar
   148    30    33   ar
   149   167   169   ar
   150   167   165   ar
   151   117   118   ar
   152   164   165   ar
   153   164   162   ar
   154   169   168   ar
   155   165   163   ar
   156    28    27    1
   157   162   161   ar
   158   168   166   ar
   159   163   161   ar
   160   163   166   ar
   161   161   160    1
   162   116   118   ar
   163   116   119   ar
   164    17    23   am
   165    17    18    2
   166   160   157    1
   167    23    24    1
   168   118   120   ar
   169    27    24    1
   170   119   121   ar
   171    24    25    1
   172   120   122   ar
   173   157   158    1
   174   157   156    1
   175    25    26    2
   176   159   158    2
   177   121   122   ar
