@<TRIPOS>MOLECULE
tmp/5n6vA04.pdb
 84 78 0 0 0
SMALL
GASTEIGER

@<TRIPOS>ATOM
      1  N        -29.6730  -15.2020    2.8810 N.3   457  LEU457     -0.1231
      2  CA       -31.0170  -15.7620    2.8640 C.3   457  LEU457      0.1693
      3  C        -32.0560  -14.7920    3.4410 C.2   457  LEU457      0.2592
      4  O        -33.2220  -14.8650    3.0830 O.2   457  LEU457     -0.2718
      5  CB       -31.0670  -17.1020    3.6180 C.3   457  LEU457      0.0284
      6  CG       -32.3440  -17.9330    3.4230 C.3   457  LEU457      0.0019
      7  CD1      -32.6290  -18.1220    1.9380 C.3   457  LEU457      0.0001
      8  CD2      -32.2470  -19.2890    4.1050 C.3   457  LEU457      0.0001
      9  N        -31.6440  -13.8760    4.3150 N.am  458  ALA458     -0.1966
     10  CA       -32.6080  -12.9490    4.9070 C.3   458  ALA458      0.1728
     11  C        -33.2740  -12.0810    3.8310 C.2   458  ALA458      0.2616
     12  O        -34.4280  -11.6800    3.9840 O.2   458  ALA458     -0.2715
     13  CB       -31.9450  -12.0730    5.9600 C.3   458  ALA458      0.0334
     14  N        -32.5530  -11.8140    2.7430 N.am  459  GLN459     -0.1963
     15  CA       -33.0810  -11.0010    1.6440 C.3   459  GLN459      0.1733
     16  C        -33.3850  -11.8450    0.4040 C.2   459  GLN459      0.2616
     17  O        -33.5030  -11.3120   -0.7080 O.2   459  GLN459     -0.2715
     18  CB       -32.1080   -9.8680    1.2800 C.3   459  GLN459      0.0408
     19  CG       -30.8030  -10.2880    0.6070 C.3   459  GLN459      0.0908
     20  CD       -29.6650  -10.4900    1.5960 C.2   459  GLN459      0.2608
     21  OE1      -29.8990  -10.6770    2.7850 O.2   459  GLN459     -0.2717
     22  NE2      -28.4280  -10.4490    1.1040 N.am  459  GLN459     -0.0878
     23  N        -33.5010  -13.1580    0.6010 N.am  460  ASP460     -0.1971
     24  CA       -33.8370  -14.1050   -0.4710 C.3   460  ASP460      0.1709
     25  C        -32.8690  -14.0460   -1.6520 C.2   460  ASP460      0.2293
     26  O        -33.2880  -14.1730   -2.8010 O.2   460  ASP460     -0.2864
     27  CB       -35.2660  -13.8590   -0.9790 C.3   460  ASP460      0.1436
     28  CG       -36.3080  -13.9810    0.1150 C.2   460  ASP460      0.3671
     29  OD1      -36.1860  -14.8850    0.9660 O.co2 460  ASP460     -0.2456
     30  OD2      -37.2480  -13.1620    0.1250 O.co2 460  ASP460     -0.2456
     31  N        -32.1960  -25.9760    8.0400 N.3   490  VAL490     -0.1245
     32  CA       -33.4290  -25.4560    7.4370 C.3   490  VAL490      0.1561
     33  C        -33.3630  -23.9490    7.1670 C.2   490  VAL490      0.2260
     34  O        -34.3780  -23.3200    6.8810 O.2   490  VAL490     -0.2867
     35  CB       -34.6740  -25.7610    8.3070 C.3   490  VAL490      0.0252
     36  CG1      -34.9790  -27.2620    8.2960 C.3   490  VAL490      0.0019
     37  CG2      -34.4800  -25.2440    9.7250 C.3   490  VAL490      0.0019
     38  N        -32.8150  -18.0280   10.3920 N.3   493  LEU493     -0.1245
     39  CA       -32.2810  -16.6740   10.3450 C.3   493  LEU493      0.1561
     40  C        -31.9810  -16.1400   11.7380 C.2   493  LEU493      0.2260
     41  O        -32.2110  -16.8230   12.7420 O.2   493  LEU493     -0.2867
     42  CB       -33.2610  -15.7400    9.6210 C.3   493  LEU493      0.0270
     43  CG       -33.6590  -16.1160    8.1850 C.3   493  LEU493      0.0019
     44  CD1      -34.7090  -15.1530    7.6220 C.3   493  LEU493      0.0001
     45  CD2      -32.4520  -16.1800    7.2640 C.3   493  LEU493      0.0001
     46  N        -41.9400  -23.2510   11.7390 N.3   519  ALA519     -0.1231
     47  CA       -42.3810  -23.0610   10.3590 C.3   519  ALA519      0.1694
     48  C        -41.3690  -23.6260    9.3800 C.2   519  ALA519      0.2591
     49  O        -41.7410  -24.2630    8.3910 O.2   519  ALA519     -0.2718
     50  CB       -42.6270  -21.5960   10.0710 C.3   519  ALA519      0.0304
     51  N        -40.0880  -23.3980    9.6510 N.am  520  LEU520     -0.1980
     52  CA       -39.0450  -23.9070    8.7640 C.3   520  LEU520      0.1596
     53  C        -38.9040  -25.4270    8.8810 C.2   520  LEU520      0.2287
     54  O        -38.8090  -26.1210    7.8740 O.2   520  LEU520     -0.2864
     55  CB       -37.7040  -23.2180    9.0460 C.3   520  LEU520      0.0297
     56  CG       -37.6390  -21.7090    8.8180 C.3   520  LEU520      0.0022
     57  CD1      -36.2350  -21.1750    9.0660 C.3   520  LEU520      0.0001
     58  CD2      -38.0970  -21.3550    7.3920 C.3   520  LEU520      0.0001
     59  N        -41.2870  -27.5170    6.9510 N.3   523  GLN523     -0.1245
     60  CA       -41.1210  -27.5690    5.4980 C.3   523  GLN523      0.1566
     61  C        -39.8480  -28.2850    5.0500 C.2   523  GLN523      0.2260
     62  O        -39.4460  -28.1590    3.8910 O.2   523  GLN523     -0.2867
     63  CB       -41.1340  -26.1520    4.9110 C.3   523  GLN523      0.0367
     64  CG       -42.4200  -25.3610    5.1620 C.3   523  GLN523      0.0905
     65  CD       -43.6730  -26.0860    4.6860 C.2   523  GLN523      0.2608
     66  OE1      -43.6490  -26.8210    3.6950 O.2   523  GLN523     -0.2717
     67  NE2      -44.7780  -25.8810    5.3950 N.am  523  GLN523     -0.0878
     68  N        -39.4690  -25.0620   -0.9210 N.3   529  THR529     -0.1203
     69  CA       -39.0440  -24.0770    0.0700 C.3   529  THR529      0.1994
     70  C        -37.5270  -24.0700    0.2470 C.2   529  THR529      0.2618
     71  O        -36.8630  -25.0720   -0.0130 O.2   529  THR529     -0.2717
     72  CB       -39.6950  -24.3440    1.4480 C.3   529  THR529      0.1784
     73  OG1      -39.2520  -25.6130    1.9420 O.3   529  THR529     -0.2211
     74  CG2      -41.2140  -24.3600    1.3350 C.3   529  THR529      0.0376
     75  N        -36.9820  -22.9410    0.6900 N.am  530  ALA530     -0.1965
     76  CA       -35.5620  -22.8730    1.0180 C.3   530  ALA530      0.1728
     77  C        -35.2320  -23.9030    2.0920 C.2   530  ALA530      0.2616
     78  O        -34.2050  -24.5820    2.0160 O.2   530  ALA530     -0.2715
     79  CB       -35.1750  -21.4720    1.4850 C.3   530  ALA530      0.0334
     80  N        -36.1140  -24.0260    3.0830 N.am  531  ALA531     -0.1977
     81  CA       -35.9070  -24.9870    4.1730 C.3   531  ALA531      0.1597
     82  C        -35.7250  -26.4030    3.6480 C.2   531  ALA531      0.2287
     83  O        -34.7990  -27.1140    4.0580 O.2   531  ALA531     -0.2864
     84  CB       -37.0710  -24.9440    5.1590 C.3   531  ALA531      0.0319
@<TRIPOS>BOND
     1    26    25    2
     2    25    24    1
     3    27    24    1
     4    27    28    1
     5    68    69    1
     6    17    16    2
     7    24    23    1
     8    71    70    2
     9    69    70    1
    10    69    72    1
    11    28    30   ar
    12    28    29   ar
    13    70    75   am
    14    16    23   am
    15    16    15    1
    16    19    18    1
    17    19    20    1
    18    75    76    1
    19    76    79    1
    20    76    77    1
    21    22    20   am
    22    18    15    1
    23    74    72    1
    24    72    73    1
    25    20    21    2
    26    15    14    1
    27     7     6    1
    28    78    77    2
    29    77    80   am
    30    14    11   am
    31     2     1    1
    32     2     3    1
    33     2     5    1
    34    80    81    1
    35     4     3    2
    36     6     5    1
    37     6     8    1
    38     3     9   am
    39    82    83    2
    40    82    81    1
    41    66    65    2
    42    11    12    2
    43    11    10    1
    44    62    61    2
    45    81    84    1
    46     9    10    1
    47    65    64    1
    48    65    67   am
    49    10    13    1
    50    63    64    1
    51    63    60    1
    52    61    60    1
    53    60    59    1
    54    34    33    2
    55    33    32    1
    56    45    43    1
    57    58    56    1
    58    32    31    1
    59    32    35    1
    60    44    43    1
    61    54    53    2
    62    43    42    1
    63    36    35    1
    64    35    37    1
    65    49    48    2
    66    52    53    1
    67    52    55    1
    68    52    51    1
    69    56    55    1
    70    56    57    1
    71    48    51   am
    72    48    47    1
    73    42    39    1
    74    50    47    1
    75    39    38    1
    76    39    40    1
    77    47    46    1
    78    40    41    2
