@<TRIPOS>MOLECULE
tmp/5n6vA06.pdb
 85 80 0 0 0
SMALL
GASTEIGER

@<TRIPOS>ATOM
      1  N        -18.0960  -49.4840   26.8040 N.3    82  ILE82      -0.1245
      2  CA       -17.6670  -48.4490   25.8610 C.3    82  ILE82       0.1561
      3  C        -16.1930  -48.1110   26.1180 C.2    82  ILE82       0.2260
      4  O        -15.4410  -47.8780   25.1830 O.2    82  ILE82      -0.2867
      5  CB       -18.5310  -47.1770   25.9700 C.3    82  ILE82       0.0252
      6  CG1      -20.0120  -47.5330   25.8500 C.3    82  ILE82       0.0019
      7  CG2      -18.1500  -46.1610   24.8920 C.3    82  ILE82       0.0019
      8  CD1      -20.9280  -46.3550   26.0950 C.3    82  ILE82       0.0001
      9  N        -13.4400  -48.3500   23.0740 N.3    86  ARG86      -0.1245
     10  CA       -12.6800  -47.2080   22.5830 C.3    86  ARG86       0.1563
     11  C        -11.1970  -47.3250   22.9110 C.2    86  ARG86       0.2260
     12  O        -10.3440  -46.8870   22.1450 O.2    86  ARG86      -0.2867
     13  CB       -13.2700  -45.9100   23.1370 C.3    86  ARG86       0.0307
     14  CG       -14.5980  -45.5790   22.4690 C.3    86  ARG86       0.0489
     15  CD       -15.2260  -44.3080   23.0040 C.3    86  ARG86       0.2205
     16  NE       -16.5200  -44.1070   22.3520 N.pl3  86  ARG86      -0.0865
     17  CZ       -17.4910  -43.3270   22.8160 C.cat  86  ARG86       0.5346
     18  NH1      -17.3260  -42.6410   23.9480 N.pl3  86  ARG86       0.1354
     19  NH2      -18.6280  -43.2360   22.1420 N.pl3  86  ARG86       0.1354
     20  N        -10.0550  -49.0220   20.0330 N.3    89  ASN89      -0.1240
     21  CA       -10.4220  -48.4000   18.7630 C.3    89  ASN89       0.1653
     22  C        -10.2300  -46.8850   18.8740 C.2    89  ASN89       0.2266
     23  O        -11.2010  -46.1130   18.8630 O.2    89  ASN89      -0.2867
     24  CB       -11.8640  -48.7630   18.4060 C.3    89  ASN89       0.1155
     25  CG       -12.2910  -48.2380   17.0540 C.2    89  ASN89       0.2627
     26  OD1      -11.4760  -48.0660   16.1440 O.2    89  ASN89      -0.2716
     27  ND2      -13.5830  -47.9860   16.9140 N.am   89  ASN89      -0.0877
     28  N        -12.0390  -44.2090   16.4680 N.3    92  TRP92      -0.1241
     29  CA       -13.4910  -44.1100   16.3050 C.3    92  TRP92       0.1605
     30  C        -13.9190  -42.6880   15.9160 C.2    92  TRP92       0.2264
     31  O        -14.8760  -42.5060   15.1610 O.2    92  TRP92      -0.2867
     32  CB       -14.2140  -44.5620   17.5750 C.3    92  TRP92       0.0550
     33  CG       -14.1100  -43.6290   18.7420 C.ar   92  TRP92       0.0003
     34  CD1      -13.0600  -43.5060   19.6080 C.ar   92  TRP92       0.0946
     35  CD2      -15.1200  -42.7220   19.2020 C.ar   92  TRP92       0.0152
     36  NE1      -13.3490  -42.5620   20.5690 N.ar   92  TRP92      -0.2442
     37  CE2      -14.6080  -42.0690   20.3420 C.ar   92  TRP92       0.0810
     38  CE3      -16.4070  -42.3990   18.7600 C.ar   92  TRP92       0.0012
     39  CZ2      -15.3380  -41.1100   21.0470 C.ar   92  TRP92       0.0191
     40  CZ3      -17.1300  -41.4410   19.4560 C.ar   92  TRP92       0.0001
     41  CH2      -16.5930  -40.8080   20.5890 C.ar   92  TRP92       0.0015
     42  N        -19.2600  -40.7450   11.5430 N.3    98  GLN98      -0.1245
     43  CA       -19.5900  -39.7190   12.5360 C.3    98  GLN98       0.1566
     44  C        -20.0470  -38.4090   11.9040 C.2    98  GLN98       0.2260
     45  O        -19.3850  -37.8850   10.9990 O.2    98  GLN98      -0.2867
     46  CB       -18.3860  -39.4450   13.4550 C.3    98  GLN98       0.0367
     47  CG       -17.9900  -40.6280   14.3270 C.3    98  GLN98       0.0905
     48  CD       -19.0180  -40.9170   15.4040 C.2    98  GLN98       0.2608
     49  OE1      -19.6570  -40.0060   15.9230 O.2    98  GLN98      -0.2717
     50  NE2      -19.1960  -42.1880   15.7250 N.am   98  GLN98      -0.0878
     51  N        -24.7280  -38.7230   14.9670 N.3   128  THR128     -0.1218
     52  CA       -24.1040  -39.7520   15.7960 C.3   128  THR128      0.1862
     53  C        -23.4490  -39.1130   17.0180 C.2   128  THR128      0.2287
     54  O        -22.7700  -39.7740   17.7900 O.2   128  THR128     -0.2866
     55  CB       -23.0220  -40.5190   15.0300 C.3   128  THR128      0.1770
     56  OG1      -21.9880  -39.5970   14.6400 O.3   128  THR128     -0.2211
     57  CG2      -23.6160  -41.2090   13.8040 C.3   128  THR128      0.0375
     58  N        -27.7630  -42.6390   23.7020 N.3   173  HIS173     -0.1241
     59  CA       -26.9770  -43.8440   23.4650 C.3   173  HIS173      0.1621
     60  C        -27.8040  -44.9210   22.7830 C.2   173  HIS173      0.2264
     61  O        -27.3210  -45.6120   21.8780 O.2   173  HIS173     -0.2867
     62  CB       -26.3980  -44.3710   24.7810 C.3   173  HIS173      0.0745
     63  CG       -25.2590  -43.5510   25.2960 C.ar  173  HIS173      0.0817
     64  ND1      -24.7780  -43.6580   26.5850 N.ar  173  HIS173     -0.2268
     65  CD2      -24.5000  -42.6100   24.6860 C.ar  173  HIS173      0.1154
     66  CE1      -23.7710  -42.8160   26.7450 C.ar  173  HIS173      0.1986
     67  NE2      -23.5820  -42.1680   25.6070 N.ar  173  HIS173     -0.2212
     68  N        -27.9140  -44.3750   19.1970 N.3   176  GLY176     -0.1210
     69  CA       -26.6340  -44.4100   18.5090 C.3   176  GLY176      0.1956
     70  C        -25.9760  -43.0450   18.4370 C.2   176  GLY176      0.2612
     71  O        -25.2860  -42.7270   17.4680 O.2   176  GLY176     -0.2717
     72  N        -26.1920  -42.2370   19.4700 N.am  177  ILE177     -0.1965
     73  CA       -25.6940  -40.8580   19.4860 C.3   177  ILE177      0.1727
     74  C        -24.8280  -40.6190   20.7180 C.2   177  ILE177      0.2616
     75  O        -25.2650  -40.8730   21.8390 O.2   177  ILE177     -0.2715
     76  CB       -26.8540  -39.8360   19.4780 C.3   177  ILE177      0.0290
     77  CG1      -27.7610  -40.0750   18.2610 C.3   177  ILE177      0.0022
     78  CG2      -26.3100  -38.4020   19.4690 C.3   177  ILE177      0.0023
     79  CD1      -29.0260  -39.2090   18.2390 C.3   177  ILE177      0.0001
     80  N        -23.6030  -40.1430   20.5100 N.am  178  SER178     -0.1950
     81  CA       -22.7360  -39.7600   21.6220 C.3   178  SER178      0.1924
     82  C        -23.2220  -38.4760   22.2810 C.2   178  SER178      0.2314
     83  O        -23.6780  -37.5570   21.6020 O.2   178  SER178     -0.2863
     84  CB       -21.2930  -39.5730   21.1490 C.3   178  SER178      0.2116
     85  OG       -20.6920  -40.8180   20.8400 O.3   178  SER178     -0.2180
@<TRIPOS>BOND
     1    45    44    2
     2    42    43    1
     3    44    43    1
     4    43    46    1
     5    46    47    1
     6    57    55    1
     7    47    48    1
     8    56    55    1
     9    51    52    1
    10    55    52    1
    11    31    30    2
    12    48    50   am
    13    48    49    2
    14    52    53    1
    15    30    29    1
    16    26    25    2
    17    29    28    1
    18    29    32    1
    19    27    25   am
    20    53    54    2
    21    25    24    1
    22    71    70    2
    23    32    33    1
    24    79    77    1
    25    77    76    1
    26    24    21    1
    27    70    69    1
    28    70    72   am
    29    69    68    1
    30    33    35   ar
    31    33    34   ar
    32    38    35   ar
    33    38    40   ar
    34    21    22    1
    35    21    20    1
    36    23    22    2
    37    35    37   ar
    38    40    41   ar
    39    78    76    1
    40    72    73    1
    41    76    73    1
    42    73    74    1
    43    34    36   ar
    44    37    36   ar
    45    37    39   ar
    46    80    74   am
    47    80    81    1
    48    41    39   ar
    49    74    75    2
    50    85    84    1
    51    84    81    1
    52    83    82    2
    53    81    82    1
    54    61    60    2
    55    19    17    1
    56    12    11    2
    57    16    17    2
    58    16    15    1
    59    14    15    1
    60    14    13    1
    61    10    11    1
    62    10     9    1
    63    10    13    1
    64    60    59    1
    65    17    18    1
    66    59    58    1
    67    59    62    1
    68    65    63   ar
    69    65    67   ar
    70    62    63    1
    71     7     5    1
    72     4     3    2
    73    63    64   ar
    74    67    66   ar
    75     6     5    1
    76     6     8    1
    77     2     5    1
    78     2     3    1
    79     2     1    1
    80    64    66   ar
