@<TRIPOS>MOLECULE
tmp/5n6xB00.pdb
 106 103 0 0 0
SMALL
GASTEIGER

@<TRIPOS>ATOM
      1  N        -40.1820   -4.2310  -21.8960 N.3   193  TYR193     -0.1227
      2  CA       -39.1710   -4.4170  -22.9370 C.3   193  TYR193      0.1736
      3  C        -39.2640   -5.8090  -23.5680 C.2   193  TYR193      0.2595
      4  O        -39.0790   -5.9560  -24.7810 O.2   193  TYR193     -0.2718
      5  CB       -37.7490   -4.1630  -22.4070 C.3   193  TYR193      0.0548
      6  CG       -36.7740   -4.5110  -23.5040 C.ar  193  TYR193     -0.0200
      7  CD1      -36.6220   -3.6700  -24.6000 C.ar  193  TYR193     -0.0009
      8  CD2      -36.1110   -5.7400  -23.5230 C.ar  193  TYR193     -0.0009
      9  CE1      -35.8140   -4.0210  -25.6490 C.ar  193  TYR193      0.0417
     10  CE2      -35.2850   -6.0870  -24.5760 C.ar  193  TYR193      0.0417
     11  CZ       -35.1540   -5.2210  -25.6390 C.ar  193  TYR193      0.1957
     12  OH       -34.3450   -5.5480  -26.7050 O.3   193  TYR193     -0.2866
     13  N        -39.5150   -6.8540  -22.7730 N.am  194  GLU194     -0.1979
     14  CA       -39.6160   -8.1810  -23.3780 C.3   194  GLU194      0.1602
     15  C        -40.7080   -8.2030  -24.4360 C.2   194  GLU194      0.2287
     16  O        -40.5250   -8.7690  -25.5220 O.2   194  GLU194     -0.2864
     17  CB       -39.8810   -9.2480  -22.3130 C.3   194  GLU194      0.0415
     18  CG       -38.6760   -9.4900  -21.4260 C.3   194  GLU194      0.1163
     19  CD       -37.6430  -10.4300  -22.0500 C.2   194  GLU194      0.3649
     20  OE1      -37.9560  -11.1030  -23.0600 O.co2 194  GLU194     -0.2457
     21  OE2      -36.5270  -10.5250  -21.5050 O.co2 194  GLU194     -0.2457
     22  N        -37.1100  -11.2360  -26.0040 N.3   211  LYS211     -0.1245
     23  CA       -35.6630  -11.2660  -25.7980 C.3   211  LYS211      0.1561
     24  C        -35.2530  -12.5370  -25.0710 C.2   211  LYS211      0.2260
     25  O        -34.2590  -13.1770  -25.4290 O.2   211  LYS211     -0.2867
     26  CB       -35.2070  -10.0360  -25.0150 C.3   211  LYS211      0.0271
     27  CG       -33.7150  -10.0520  -24.6580 C.3   211  LYS211      0.0035
     28  CD       -32.9130   -9.0730  -25.5050 C.3   211  LYS211      0.0206
     29  CE       -31.4270   -9.0970  -25.1490 C.3   211  LYS211      0.1093
     30  NZ       -30.9500   -7.8330  -24.5010 N.3   211  LYS211     -0.1314
     31  N        -34.5290  -12.8640  -21.7370 N.3   213  TYR213     -0.1241
     32  CA       -33.7910  -12.7590  -20.4850 C.3   213  TYR213      0.1605
     33  C        -34.6610  -13.1820  -19.3070 C.2   213  TYR213      0.2264
     34  O        -34.2080  -13.9190  -18.4220 O.2   213  TYR213     -0.2867
     35  CB       -33.2640  -11.3410  -20.2730 C.3   213  TYR213      0.0534
     36  CG       -32.4990  -11.2330  -18.9700 C.ar  213  TYR213     -0.0201
     37  CD1      -31.1740  -11.6570  -18.8720 C.ar  213  TYR213     -0.0009
     38  CD2      -33.1130  -10.7480  -17.8290 C.ar  213  TYR213     -0.0009
     39  CE1      -30.4840  -11.5720  -17.6750 C.ar  213  TYR213      0.0417
     40  CE2      -32.4310  -10.6610  -16.6320 C.ar  213  TYR213      0.0417
     41  CZ       -31.1250  -11.0680  -16.5560 C.ar  213  TYR213      0.1957
     42  OH       -30.4760  -10.9680  -15.3420 O.3   213  TYR213     -0.2866
     43  N        -30.9760   -1.8400  -25.2910 N.3   319  PHE319     -0.1241
     44  CA       -31.1760   -2.7800  -24.1950 C.3   319  PHE319      0.1605
     45  C        -30.2600   -3.9910  -24.3130 C.2   319  PHE319      0.2264
     46  O        -30.4870   -5.0070  -23.6470 O.2   319  PHE319     -0.2867
     47  CB       -32.6590   -3.1740  -24.1190 C.3   319  PHE319      0.0534
     48  CG       -33.5150   -2.1020  -23.4840 C.ar  319  PHE319     -0.0203
     49  CD1      -33.9960   -1.0390  -24.2390 C.ar  319  PHE319     -0.0042
     50  CD2      -33.7750   -2.1250  -22.1210 C.ar  319  PHE319     -0.0042
     51  CE1      -34.7410   -0.0290  -23.6490 C.ar  319  PHE319     -0.0003
     52  CE2      -34.5090   -1.1150  -21.5170 C.ar  319  PHE319     -0.0003
     53  CZ       -34.9950   -0.0740  -22.2650 C.ar  319  PHE319     -0.0000
     54  N        -26.5900   -5.3900  -23.5770 N.3   321  ASN321     -0.1225
     55  CA       -25.2810   -5.2860  -22.9410 C.3   321  ASN321      0.1785
     56  C        -25.0020   -6.6620  -22.3420 C.2   321  ASN321      0.2597
     57  O        -25.5620   -7.0110  -21.2980 O.2   321  ASN321     -0.2718
     58  CB       -25.2680   -4.1920  -21.8830 C.3   321  ASN321      0.1169
     59  CG       -23.8860   -3.9640  -21.2990 C.2   321  ASN321      0.2627
     60  OD1      -23.0420   -4.8610  -21.3060 O.2   321  ASN321     -0.2716
     61  ND2      -23.6480   -2.7580  -20.7930 N.am  321  ASN321     -0.0877
     62  N        -24.1600   -7.4370  -23.0090 N.am  322  ASN322     -0.1974
     63  CA       -23.8860   -8.7850  -22.5380 C.3   322  ASN322      0.1688
     64  C        -22.8470   -8.8160  -21.4290 C.2   322  ASN322      0.2292
     65  O        -22.4820   -9.9040  -20.9740 O.2   322  ASN322     -0.2864
     66  CB       -23.4620   -9.6630  -23.7150 C.3   322  ASN322      0.1181
     67  CG       -24.5430   -9.7520  -24.7870 C.2   322  ASN322      0.2629
     68  OD1      -24.2790   -9.5460  -25.9720 O.2   322  ASN322     -0.2716
     69  ND2      -25.7740  -10.0400  -24.3660 N.am  322  ASN322     -0.0877
     70  N        -23.1730   -7.0160  -18.4140 N.3   324  ILE324     -0.1245
     71  CA       -23.7790   -6.7840  -17.1040 C.3   324  ILE324      0.1561
     72  C        -23.9940   -8.1120  -16.3950 C.2   324  ILE324      0.2260
     73  O        -24.6220   -9.0320  -16.9370 O.2   324  ILE324     -0.2867
     74  CB       -25.1020   -6.0240  -17.2570 C.3   324  ILE324      0.0252
     75  CG1      -24.8490   -4.5800  -17.6900 C.3   324  ILE324      0.0019
     76  CG2      -25.9240   -6.0620  -15.9600 C.3   324  ILE324      0.0019
     77  CD1      -26.1090   -3.9610  -18.2690 C.3   324  ILE324      0.0001
     78  N        -28.3560   -7.0460  -13.5560 N.3   327  PRO327     -0.2116
     79  CA       -29.0640   -5.8060  -13.9230 C.3   327  PRO327      0.1372
     80  C        -29.7790   -5.1480  -12.7500 C.2   327  PRO327      0.2244
     81  O        -30.0320   -3.9380  -12.8030 O.2   327  PRO327     -0.2868
     82  CB       -30.0520   -6.2610  -15.0070 C.3   327  PRO327      0.0268
     83  CG       -30.2300   -7.7360  -14.7710 C.3   327  PRO327      0.0207
     84  CD       -28.8830   -8.2230  -14.2680 C.3   327  PRO327      0.0892
     85  N        -31.2410    0.2740  -19.2180 N.3   341  ILE341     -0.1245
     86  CA       -31.3740   -1.0150  -18.5490 C.3   341  ILE341      0.1561
     87  C        -31.4790   -0.7950  -17.0500 C.2   341  ILE341      0.2260
     88  O        -32.3350   -1.3780  -16.3760 O.2   341  ILE341     -0.2867
     89  CB       -30.1950   -1.9360  -18.9180 C.3   341  ILE341      0.0252
     90  CG1      -30.1890   -2.2020  -20.4410 C.3   341  ILE341      0.0019
     91  CG2      -30.2650   -3.2440  -18.1270 C.3   341  ILE341      0.0019
     92  CD1      -29.0880   -3.1650  -20.8920 C.3   341  ILE341      0.0001
     93  N        -34.5250   -2.0930  -14.4490 N.3   345  TRP345     -0.1241
     94  CA       -34.1480   -3.2850  -13.6930 C.3   345  TRP345      0.1605
     95  C        -33.7460   -3.0410  -12.2460 C.2   345  TRP345      0.2264
     96  O        -33.8050   -3.9910  -11.4410 O.2   345  TRP345     -0.2867
     97  CB       -32.9930   -4.0140  -14.4020 C.3   345  TRP345      0.0550
     98  CG       -33.4760   -4.9210  -15.4640 C.ar  345  TRP345      0.0003
     99  CD1      -33.5290   -4.6660  -16.8120 C.ar  345  TRP345      0.0946
    100  CD2      -34.0030   -6.2420  -15.2790 C.ar  345  TRP345      0.0152
    101  NE1      -34.0570   -5.7520  -17.4720 N.ar  345  TRP345     -0.2442
    102  CE2      -34.3490   -6.7340  -16.5560 C.ar  345  TRP345      0.0810
    103  CE3      -34.2140   -7.0560  -14.1510 C.ar  345  TRP345      0.0012
    104  CZ2      -34.9000   -8.0020  -16.7440 C.ar  345  TRP345      0.0191
    105  CZ3      -34.7530   -8.3270  -14.3400 C.ar  345  TRP345      0.0001
    106  CH2      -35.0940   -8.7800  -15.6330 C.ar  345  TRP345      0.0015
@<TRIPOS>BOND
     1    12    11    1
     2    22    23    1
     3    68    67    2
     4    23    24    1
     5    23    26    1
     6     9    11   ar
     7     9     7   ar
     8    11    10   ar
     9    16    15    2
    10    28    29    1
    11    28    27    1
    12    25    24    2
    13    43    44    1
    14    29    30    1
    15    26    27    1
    16    67    69   am
    17    67    66    1
    18     4     3    2
    19     7     6   ar
    20    10     8   ar
    21    15    14    1
    22    45    44    1
    23    45    46    2
    24    49    51   ar
    25    49    48   ar
    26    44    47    1
    27    47    48    1
    28    66    63    1
    29    51    53   ar
    30    54    55    1
    31     3     2    1
    32     3    13   am
    33     8     6   ar
    34     6     5    1
    35    48    50   ar
    36    14    13    1
    37    14    17    1
    38    20    19   ar
    39    62    63    1
    40    62    56   am
    41    55    56    1
    42    55    58    1
    43     2     5    1
    44     2     1    1
    45    63    64    1
    46    56    57    2
    47    17    18    1
    48    53    52   ar
    49    50    52   ar
    50    19    21   ar
    51    19    18    1
    52    58    59    1
    53    31    32    1
    54    64    65    2
    55    60    59    2
    56    59    61   am
    57    92    90    1
    58    32    35    1
    59    32    33    1
    60    90    89    1
    61    35    36    1
    62    33    34    2
    63    85    86    1
    64    36    37   ar
    65    36    38   ar
    66    89    86    1
    67    89    91    1
    68    37    39   ar
    69    86    87    1
    70    70    71    1
    71    77    75    1
    72    38    40   ar
    73    75    74    1
    74    39    41   ar
    75   101    99   ar
    76   101   102   ar
    77    74    71    1
    78    74    76    1
    79    71    72    1
    80    87    88    2
    81    73    72    2
    82    99    98   ar
    83   104   102   ar
    84   104   106   ar
    85    40    41   ar
    86   102   100   ar
    87    41    42    1
    88   106   105   ar
    89    98   100   ar
    90    98    97    1
    91   100   103   ar
    92    82    83    1
    93    82    79    1
    94    83    84    1
    95    93    94    1
    96    97    94    1
    97   105   103   ar
    98    84    78    1
    99    79    78    1
   100    79    80    1
   101    94    95    1
   102    81    80    2
   103    95    96    2
