@<TRIPOS>MOLECULE
tmp/5n6yA00.pdb
 115 109 0 0 0
SMALL
GASTEIGER

@<TRIPOS>ATOM
      1  N         88.5100   63.3880    3.1090 N.3    45  GLU45      -0.1245
      2  CA        89.6700   63.6930    3.9750 C.3    45  GLU45       0.1567
      3  C         90.8430   64.4390    3.2610 C.2    45  GLU45       0.2260
      4  O         91.8620   64.7940    3.8880 O.2    45  GLU45      -0.2867
      5  CB        90.1340   62.4060    4.5890 C.3    45  GLU45       0.0388
      6  CG        89.1520   61.8860    5.5900 C.3    45  GLU45       0.1160
      7  CD        89.3390   62.5660    6.9440 C.2    45  GLU45       0.3649
      8  OE1       88.3430   63.1340    7.4240 O.co2  45  GLU45      -0.2457
      9  OE2       90.4940   62.5840    7.4680 O.co2  45  GLU45      -0.2457
     10  N         93.5330   66.8060    1.3640 N.3    47  GLY47      -0.1225
     11  CA        94.1020   68.1230    1.3930 C.3    47  GLY47       0.1811
     12  C         94.5250   68.6360    0.0280 C.2    47  GLY47       0.2280
     13  O         94.0160   68.1680   -0.9890 O.2    47  GLY47      -0.2866
     14  N        100.0040   71.5860    0.3190 N.3    51  CYS51      -0.1235
     15  CA       100.2920   70.7860    1.5130 C.3    51  CYS51       0.1677
     16  C        101.3340   69.7210    1.2280 C.2    51  CYS51       0.2270
     17  O        102.3120   69.5170    2.0000 O.2    51  CYS51      -0.2867
     18  CB        99.0360   70.1210    1.9790 C.3    51  CYS51       0.0956
     19  SG        99.2840   69.1070    3.4600 S.3    51  CYS51      -0.0801
     20  N        104.2610   71.1900    3.5130 N.3    55  LEU55      -0.1231
     21  CA       104.0670   70.5550    4.8680 C.3    55  LEU55       0.1693
     22  C        104.7540   69.2240    4.9340 C.2    55  LEU55       0.2591
     23  O        105.4140   68.8820    5.9190 O.2    55  LEU55      -0.2718
     24  CB       102.5980   70.3930    5.1920 C.3    55  LEU55       0.0284
     25  CG       102.3870   69.9970    6.6460 C.3    55  LEU55       0.0019
     26  CD1      102.7190   71.0740    7.6430 C.3    55  LEU55       0.0001
     27  CD2      100.9700   69.4740    6.8440 C.3    55  LEU55       0.0001
     28  N        104.5910   68.4340    3.8880 N.am   56  VAL56      -0.1980
     29  CA       105.0130   67.0350    3.9060 C.3    56  VAL56       0.1595
     30  C        106.5040   66.8620    3.6640 C.2    56  VAL56       0.2287
     31  O        107.1620   66.0620    4.2850 O.2    56  VAL56      -0.2864
     32  CB       104.1180   66.1890    3.0060 C.3    56  VAL56       0.0276
     33  CG1      104.5300   64.7590    2.9950 C.3    56  VAL56       0.0022
     34  CG2      102.6370   66.3300    3.4040 C.3    56  VAL56       0.0022
     35  N        101.6410   71.8770   13.2310 N.3    81  THR81      -0.1203
     36  CA       100.8080   70.7450   12.8890 C.3    81  THR81       0.1994
     37  C        101.5770   69.4780   12.5730 C.2    81  THR81       0.2617
     38  O        100.9120   68.4380   12.3820 O.2    81  THR81      -0.2717
     39  CB        99.8960   71.0720   11.7010 C.3    81  THR81       0.1784
     40  OG1      100.7500   71.3130   10.5750 O.3    81  THR81      -0.2211
     41  CG2       98.9780   72.2740   11.9520 C.3    81  THR81       0.0376
     42  N        102.9020   69.5180   12.5260 N.am   82  LYS82      -0.1979
     43  CA       103.6860   68.3260   12.1930 C.3    82  LYS82       0.1599
     44  C        104.6340   67.9820   13.3470 C.2    82  LYS82       0.2287
     45  O        105.0020   68.8480   14.1450 O.2    82  LYS82      -0.2864
     46  CB       104.4740   68.6150   10.9060 C.3    82  LYS82       0.0344
     47  CG       103.7670   68.2290    9.6670 C.3    82  LYS82       0.0297
     48  CD       103.8390   66.7330    9.4510 C.2    82  LYS82      -0.0067
     49  CE       103.4750   66.2460    8.1850 C.2    82  LYS82       0.1012
     50  NZ       103.8200   64.8530    7.9260 N.pl3  82  LYS82      -0.1270
     51  N         97.0850   66.1580   -2.0370 N.3   175  GLN175     -0.1245
     52  CA        98.4860   66.3580   -1.7130 C.3   175  GLN175      0.1566
     53  C         99.4590   65.7830   -2.7570 C.2   175  GLN175      0.2260
     54  O        100.5650   66.2350   -2.8590 O.2   175  GLN175     -0.2867
     55  CB        98.8080   65.6310   -0.3230 C.3   175  GLN175      0.0367
     56  CG        98.2570   66.1460    0.9460 C.3   175  GLN175      0.0905
     57  CD        96.8110   65.6230    1.2840 C.2   175  GLN175      0.2608
     58  OE1       95.7950   65.2010    0.3940 O.2   175  GLN175     -0.2717
     59  NE2       96.6240   65.6640    2.6630 N.am  175  GLN175     -0.0878
     60  N         93.5130   58.5890    1.5560 N.3   360  LYS360     -0.1231
     61  CA        93.0790   59.8960    1.1410 C.3   360  LYS360      0.1693
     62  C         93.4520   60.1080   -0.2990 C.2   360  LYS360      0.2592
     63  O         92.6070   60.6140   -1.0920 O.2   360  LYS360     -0.2718
     64  CB        93.8590   61.0120    1.9290 C.3   360  LYS360      0.0285
     65  CG        93.6540   61.1270    3.4380 C.3   360  LYS360      0.0035
     66  CD        94.5650   62.2450    3.9060 C.3   360  LYS360      0.0206
     67  CE        94.2980   62.3140    5.4370 C.3   360  LYS360      0.1093
     68  NZ        95.0940   63.4090    6.0170 N.3   360  LYS360     -0.1314
     69  N         94.6650   59.7200   -0.7130 N.am  361  PHE361     -0.1976
     70  CA        95.2420   60.2380   -2.0080 C.3   361  PHE361      0.1639
     71  C         96.0400   59.1560   -2.7340 C.2   361  PHE361      0.2290
     72  O         96.7000   59.4950   -3.7250 O.2   361  PHE361     -0.2864
     73  CB        96.0520   61.4950   -1.8150 C.3   361  PHE361      0.0560
     74  CG        97.1600   61.3310   -0.8070 C.ar  361  PHE361     -0.0200
     75  CD1       98.2190   60.4930   -1.0060 C.ar  361  PHE361     -0.0042
     76  CD2       97.0720   61.9360    0.4470 C.ar  361  PHE361     -0.0042
     77  CE1       99.1930   60.2910   -0.0240 C.ar  361  PHE361     -0.0003
     78  CE2       98.0410   61.7570    1.3690 C.ar  361  PHE361     -0.0003
     79  CZ        99.0550   60.8900    1.2390 C.ar  361  PHE361     -0.0000
     80  N         94.0540   60.0980   11.7580 N.3   404  GLY404     -0.1210
     81  CA        94.4380   61.3790   12.2900 C.3   404  GLY404      0.1940
     82  C         93.6480   61.7630   13.5620 C.2   404  GLY404      0.2454
     83  O         92.6360   61.1610   13.8600 O.2   404  GLY404     -0.2732
     84  N         94.1600   62.7620   14.2570 N.am  405  PRO405     -0.2717
     85  CA        93.5350   63.1140   15.5320 C.3   405  PRO405      0.1535
     86  C         92.1360   63.5900   15.4470 C.2   405  PRO405      0.2598
     87  O         91.3470   63.2760   16.4040 O.2   405  PRO405     -0.2715
     88  CB        94.4900   64.1730   16.0760 C.3   405  PRO405      0.0310
     89  CG        95.1680   64.8180   14.8240 C.3   405  PRO405      0.0237
     90  CD        95.3500   63.5600   13.9490 C.3   405  PRO405      0.0939
     91  N         91.7270   64.3200   14.4570 N.am  406  ARG406     -0.1978
     92  CA        90.3090   64.7820   14.4220 C.3   406  ARG406      0.1597
     93  C         89.3730   63.6240   14.2680 C.2   406  ARG406      0.2287
     94  O         88.3490   63.5350   14.9540 O.2   406  ARG406     -0.2864
     95  CB        90.1560   65.8130   13.3180 C.3   406  ARG406      0.0334
     96  CG        88.7590   66.2840   13.1930 C.3   406  ARG406      0.0492
     97  CD        88.5570   67.2620   12.0100 C.3   406  ARG406      0.2205
     98  NE        89.1110   66.7060   10.7600 N.pl3 406  ARG406     -0.0865
     99  CZ        88.6360   65.6300   10.1450 C.cat 406  ARG406      0.5346
    100  NH1       87.5500   65.0270   10.5600 N.pl3 406  ARG406      0.1354
    101  NH2       89.2980   65.1720    9.0930 N.pl3 406  ARG406      0.1354
    102  N         99.2860   59.0900   11.6070 N.3   422  HIS422     -0.1226
    103  CA       100.0990   60.0520   10.8890 C.3   422  HIS422      0.1752
    104  C        101.3420   60.5620   11.6670 C.2   422  HIS422      0.2596
    105  O        102.5010   60.3570   11.3240 O.2   422  HIS422     -0.2718
    106  CB        99.2690   61.2770   10.5230 C.3   422  HIS422      0.0759
    107  CG        98.1890   61.0440    9.5210 C.ar  422  HIS422      0.0818
    108  ND1       98.3160   61.3440    8.1740 N.ar  422  HIS422     -0.2268
    109  CD2       96.9670   60.5370    9.7160 C.ar  422  HIS422      0.1154
    110  CE1       97.1780   60.9840    7.5980 C.ar  422  HIS422      0.1986
    111  NE2       96.3210   60.5170    8.5160 N.ar  422  HIS422     -0.2212
    112  N        101.0370   61.1570   12.8400 N.am  423  GLY423     -0.1957
    113  CA       102.0330   61.7580   13.6790 C.3   423  GLY423      0.1869
    114  C        102.3690   60.9240   14.8920 C.2   423  GLY423      0.2309
    115  O        103.2700   61.3960   15.6300 O.2   423  GLY423     -0.2863
@<TRIPOS>BOND
     1    72    71    2
     2    54    53    2
     3    53    52    1
     4    71    70    1
     5    51    52    1
     6    70    73    1
     7    70    69    1
     8    73    74    1
     9    52    55    1
    10    63    62    2
    11    75    74   ar
    12    75    77   ar
    13    13    12    2
    14    74    76   ar
    15    69    62   am
    16    55    56    1
    17    62    61    1
    18    77    79   ar
    19    12    11    1
    20    14    15    1
    21    58    57    2
    22    76    78   ar
    23    56    57    1
    24    61    60    1
    25    61    64    1
    26    16    15    1
    27    16    17    2
    28    79    78   ar
    29    57    59   am
    30    10    11    1
    31    15    18    1
    32    64    65    1
    33    18    19    1
    34    33    32    1
    35    32    34    1
    36    32    29    1
    37     1     2    1
    38     3     4    2
    39     3     2    1
    40    65    66    1
    41    20    21    1
    42    30    29    1
    43    30    31    2
    44    28    29    1
    45    28    22   am
    46    66    67    1
    47     2     5    1
    48     5     6    1
    49    21    22    1
    50    21    24    1
    51    22    23    2
    52    24    25    1
    53    67    68    1
    54     6     7    1
    55    25    27    1
    56    25    26    1
    57     7     8   ar
    58     7     9   ar
    59   110   108   ar
    60   110   111   ar
    61    50    49    1
    62   108   107   ar
    63    49    48    2
    64   111   109   ar
    65   101    99    1
    66    48    47    1
    67   107   109   ar
    68   107   106    1
    69    47    46    1
    70    99   100    1
    71    99    98    2
    72   106   103    1
    73    40    39    1
    74    98    97    1
    75   103   102    1
    76   103   104    1
    77    46    43    1
    78   105   104    2
    79   104   112   am
    80    39    41    1
    81    39    36    1
    82    80    81    1
    83    97    96    1
    84    43    42    1
    85    43    44    1
    86    81    82    1
    87    38    37    2
    88    42    37   am
    89    37    36    1
    90   112   113    1
    91    36    35    1
    92    96    95    1
    93    95    92    1
    94    44    45    2
    95    82    83    2
    96    82    84   am
    97   113   114    1
    98    90    84    1
    99    90    89    1
   100    84    85    1
   101    93    92    1
   102    93    94    2
   103    92    91    1
   104    91    86   am
   105    89    88    1
   106   114   115    2
   107    86    85    1
   108    86    87    2
   109    85    88    1
