@<TRIPOS>MOLECULE
tmp/5n71A00.pdb
 87 77 0 0 0
SMALL
GASTEIGER

@<TRIPOS>ATOM
      1  N        -23.5460  -14.6160  -10.5310 N.3    36  GLY36      -0.1225
      2  CA       -22.9460  -14.7150   -9.2100 C.3    36  GLY36       0.1811
      3  C        -23.1050  -13.5070   -8.2850 C.2    36  GLY36       0.2280
      4  O        -22.7020  -13.5990   -7.1530 O.2    36  GLY36      -0.2866
      5  N        -14.7070  -11.3580   -5.4950 N.3    78  GLY78      -0.1225
      6  CA       -13.4800  -12.1260   -5.3420 C.3    78  GLY78       0.1811
      7  C        -12.2970  -11.3650   -5.9240 C.2    78  GLY78       0.2280
      8  O        -11.2480  -11.2800   -5.2950 O.2    78  GLY78      -0.2866
      9  N        -27.0240  -17.3880   -4.6840 N.3   194  TYR194     -0.1241
     10  CA       -26.4550  -17.8230   -5.9670 C.3   194  TYR194      0.1605
     11  C        -27.4990  -18.7180   -6.6100 C.2   194  TYR194      0.2264
     12  O        -28.5200  -19.0770   -5.9740 O.2   194  TYR194     -0.2867
     13  CB       -25.1980  -18.6570   -5.7270 C.3   194  TYR194      0.0534
     14  CG       -24.0330  -17.9660   -4.9980 C.ar  194  TYR194     -0.0201
     15  CD1      -23.6480  -16.6800   -5.3030 C.ar  194  TYR194     -0.0009
     16  CD2      -23.2710  -18.6600   -4.0400 C.ar  194  TYR194     -0.0009
     17  CE1      -22.5690  -16.0640   -4.6550 C.ar  194  TYR194      0.0417
     18  CE2      -22.1580  -18.0660   -3.4040 C.ar  194  TYR194      0.0417
     19  CZ       -21.8300  -16.7640   -3.7040 C.ar  194  TYR194      0.1957
     20  OH       -20.7770  -16.1460   -3.0810 O.3   194  TYR194     -0.2866
     21  N        -22.7940  -24.0170   -8.1050 N.3   223  ILE223     -0.1245
     22  CA       -23.4870  -22.8360   -8.6320 C.3   223  ILE223      0.1561
     23  C        -23.1700  -22.6630  -10.1260 C.2   223  ILE223      0.2260
     24  O        -22.0840  -23.0500  -10.6080 O.2   223  ILE223     -0.2867
     25  CB       -23.2010  -21.5250   -7.8500 C.3   223  ILE223      0.0252
     26  CG1      -21.7580  -21.0120   -8.0150 C.3   223  ILE223      0.0019
     27  CG2      -23.4790  -21.7260   -6.3660 C.3   223  ILE223      0.0019
     28  CD1      -21.5390  -19.5850   -7.5380 C.3   223  ILE223      0.0001
     29  N        -22.3560  -19.8450  -12.5570 N.3   225  ASN225     -0.1240
     30  CA       -21.8990  -18.4930  -12.4690 C.3   225  ASN225      0.1653
     31  C        -21.3260  -17.9820  -13.7810 C.2   225  ASN225      0.2266
     32  O        -20.1320  -18.2350  -14.1020 O.2   225  ASN225     -0.2867
     33  CB       -20.8510  -18.3830  -11.3690 C.3   225  ASN225      0.1155
     34  CG       -20.4090  -16.9420  -11.1180 C.2   225  ASN225      0.2627
     35  OD1      -20.8390  -15.9990  -11.7680 O.2   225  ASN225     -0.2716
     36  ND2      -19.5500  -16.7760  -10.1410 N.am  225  ASN225     -0.0877
     37  N        -20.4130  -15.0460  -14.3880 N.3   227  GLY227     -0.1210
     38  CA       -19.4660  -13.9930  -14.1610 C.3   227  GLY227      0.1956
     39  C        -18.0150  -14.4290  -13.9780 C.2   227  GLY227      0.2612
     40  O        -17.1730  -13.6070  -13.6520 O.2   227  GLY227     -0.2717
     41  N        -17.7120  -15.6950  -14.2420 N.am  228  THR228     -0.1952
     42  CA       -16.3620  -16.1850  -14.0960 C.3   228  THR228      0.1897
     43  C        -16.0110  -17.1960  -15.2100 C.2   228  THR228      0.2313
     44  O        -16.9220  -17.8620  -15.7410 O.2   228  THR228     -0.2863
     45  CB       -16.1860  -16.7590  -12.6780 C.3   228  THR228      0.1794
     46  OG1      -14.8090  -16.7730  -12.3490 O.3   228  THR228     -0.2208
     47  CG2      -16.7680  -18.1140  -12.5020 C.3   228  THR228      0.0378
     48  N        -14.2570  -23.6700  -10.6470 N.3   232  THR232     -0.1218
     49  CA       -13.5760  -23.6850   -9.3650 C.3   232  THR232      0.1862
     50  C        -14.1760  -24.8210   -8.5490 C.2   232  THR232      0.2287
     51  O        -15.3810  -25.1330   -8.6800 O.2   232  THR232     -0.2866
     52  CB       -13.6650  -22.2920   -8.6700 C.3   232  THR232      0.1770
     53  OG1      -12.8860  -21.3580   -9.4240 O.3   232  THR232     -0.2211
     54  CG2      -13.0480  -22.3250   -7.2920 C.3   232  THR232      0.0375
     55  N         -9.1220  -22.0030   -5.1870 N.3   303  LEU303     -0.1245
     56  CA        -8.7810  -20.7040   -4.6550 C.3   303  LEU303      0.1561
     57  C         -7.8940  -20.9240   -3.4440 C.2   303  LEU303      0.2260
     58  O         -7.9680  -21.9790   -2.7520 O.2   303  LEU303     -0.2867
     59  CB       -10.0520  -19.9450   -4.2220 C.3   303  LEU303      0.0270
     60  CG       -11.0780  -19.6870   -5.3470 C.3   303  LEU303      0.0019
     61  CD1      -12.3950  -19.1260   -4.8200 C.3   303  LEU303      0.0001
     62  CD2      -10.4580  -18.7630   -6.3810 C.3   303  LEU303      0.0001
     63  N        -13.0660  -22.8880    0.4820 N.3   307  GLN307     -0.1245
     64  CA       -14.4720  -22.8070    0.1380 C.3   307  GLN307      0.1566
     65  C        -14.9290  -24.0940   -0.5420 C.2   307  GLN307      0.2260
     66  O        -14.1420  -24.7260   -1.2430 O.2   307  GLN307     -0.2867
     67  CB       -14.7660  -21.5420   -0.7140 C.3   307  GLN307      0.0367
     68  CG       -14.2800  -21.5860   -2.1240 C.3   307  GLN307      0.0905
     69  CD       -15.2150  -22.3720   -3.0140 C.2   307  GLN307      0.2608
     70  OE1      -16.4360  -22.3360   -2.8320 O.2   307  GLN307     -0.2717
     71  NE2      -14.6470  -23.1230   -3.9790 N.am  307  GLN307     -0.0878
     72  N        -17.7040  -24.9990   -2.7100 N.3   309  LEU309     -0.1245
     73  CA       -18.5900  -25.1050   -3.8900 C.3   309  LEU309      0.1561
     74  C        -17.8440  -25.4810   -5.1440 C.2   309  LEU309      0.2260
     75  O        -16.6890  -25.0870   -5.3390 O.2   309  LEU309     -0.2867
     76  CB       -19.3090  -23.7800   -4.1810 C.3   309  LEU309      0.0270
     77  CG       -20.3260  -23.2260   -3.2000 C.3   309  LEU309      0.0019
     78  CD1      -20.7200  -21.8000   -3.5850 C.3   309  LEU309      0.0001
     79  CD2      -21.5590  -24.1270   -3.1680 C.3   309  LEU309      0.0001
     80  N        -17.9720  -24.1350   -8.5880 N.3   311  ILE311     -0.1245
     81  CA       -18.4130  -22.9050   -9.2120 C.3   311  ILE311      0.1561
     82  C        -18.2510  -23.1530  -10.7090 C.2   311  ILE311      0.2260
     83  O        -17.1150  -23.2340  -11.2180 O.2   311  ILE311     -0.2867
     84  CB       -17.6010  -21.6920   -8.7510 C.3   311  ILE311      0.0252
     85  CG1      -17.6400  -21.5580   -7.2360 C.3   311  ILE311      0.0019
     86  CG2      -18.0820  -20.4270   -9.4350 C.3   311  ILE311      0.0019
     87  CD1      -16.6950  -20.4890   -6.7460 C.3   311  ILE311      0.0001
@<TRIPOS>BOND
     1    44    43    2
     2    43    42    1
     3    37    38    1
     4    41    42    1
     5    41    39   am
     6    38    39    1
     7    32    31    2
     8    42    45    1
     9    39    40    2
    10    31    30    1
    11    45    47    1
    12    45    46    1
    13    29    30    1
    14    30    33    1
    15    35    34    2
    16    33    34    1
    17    83    82    2
    18    34    36   am
    19    82    81    1
    20    48    49    1
    21    24    23    2
    22     1     2    1
    23    23    22    1
    24    86    84    1
    25    53    52    1
    26    49    52    1
    27    49    50    1
    28    81    84    1
    29    81    80    1
    30     2     3    1
    31    84    85    1
    32    51    50    2
    33    52    54    1
    34    22    21    1
    35    22    25    1
    36     3     4    2
    37    26    25    1
    38    26    28    1
    39    25    27    1
    40    85    87    1
    41    11    12    2
    42    11    10    1
    43    62    60    1
    44    10    13    1
    45    10     9    1
    46     7     6    1
    47     7     8    2
    48    13    14    1
    49     5     6    1
    50    60    61    1
    51    60    59    1
    52    75    74    2
    53    15    14   ar
    54    15    17   ar
    55    55    56    1
    56    74    73    1
    57    14    16   ar
    58    56    59    1
    59    56    57    1
    60    17    19   ar
    61    76    73    1
    62    76    77    1
    63    16    18   ar
    64    71    69   am
    65    73    72    1
    66    19    18   ar
    67    19    20    1
    68    78    77    1
    69    57    58    2
    70    77    79    1
    71    69    70    2
    72    69    68    1
    73    68    67    1
    74    66    65    2
    75    67    64    1
    76    65    64    1
    77    64    63    1
