@<TRIPOS>MOLECULE
tmp/5n75A00.pdb
 53 49 0 0 0
SMALL
GASTEIGER

@<TRIPOS>ATOM
      1  N         43.7590  -13.2070   11.1430 N.3     5  SER5       -0.1217
      2  CA        43.9810  -13.2310   12.5850 C.3     5  SER5        0.1889
      3  C         42.7090  -13.4500   13.4000 C.2     5  SER5        0.2288
      4  O         42.8030  -13.5880   14.6250 O.2     5  SER5       -0.2866
      5  CB        44.6590  -11.9300   13.0360 C.3     5  SER5        0.2089
      6  OG        43.8240  -10.8050   12.8190 O.3     5  SER5       -0.2183
      7  N         24.7330  -27.1150   -4.0310 N.3   122  PHE122     -0.1241
      8  CA        24.7070  -25.7020   -3.6670 C.3   122  PHE122      0.1605
      9  C         25.8960  -24.9580   -4.2600 C.2   122  PHE122      0.2264
     10  O         25.7420  -23.8550   -4.8040 O.2   122  PHE122     -0.2867
     11  CB        24.6940  -25.5650   -2.1440 C.3   122  PHE122      0.0534
     12  CG        24.4510  -24.1680   -1.6610 C.ar  122  PHE122     -0.0203
     13  CD1       25.5050  -23.2920   -1.4690 C.ar  122  PHE122     -0.0042
     14  CD2       23.1710  -23.7390   -1.3820 C.ar  122  PHE122     -0.0042
     15  CE1       25.2780  -22.0010   -1.0060 C.ar  122  PHE122     -0.0003
     16  CE2       22.9380  -22.4570   -0.9240 C.ar  122  PHE122     -0.0003
     17  CZ        23.9970  -21.5870   -0.7420 C.ar  122  PHE122     -0.0000
     18  N         25.7470  -24.8560   -8.1860 N.3   125  LYS125     -0.1245
     19  CA        24.7770  -23.8340   -8.5530 C.3   125  LYS125      0.1561
     20  C         25.3850  -22.4430   -8.4280 C.2   125  LYS125      0.2260
     21  O         25.2220  -21.5980   -9.3190 O.2   125  LYS125     -0.2867
     22  CB        23.5290  -23.9600   -7.6760 C.3   125  LYS125      0.0271
     23  CG        22.4800  -22.8730   -7.8830 C.3   125  LYS125      0.0035
     24  CD        21.4310  -22.9260   -6.7710 C.3   125  LYS125      0.0206
     25  CE        20.6430  -21.6330   -6.6950 C.3   125  LYS125      0.1093
     26  NZ        21.5040  -20.4740   -6.2960 N.3   125  LYS125     -0.1314
     27  N         14.5610  -27.5370   -1.7290 N.3   170  PRO170     -0.2102
     28  CA        14.7270  -26.1200   -2.1160 C.3   170  PRO170      0.1504
     29  C         16.0000  -25.8240   -2.9020 C.2   170  PRO170      0.2575
     30  O         15.9830  -24.9510   -3.7810 O.2   170  PRO170     -0.2718
     31  CB        14.7080  -25.3920   -0.7640 C.3   170  PRO170      0.0282
     32  CG        13.8730  -26.2940    0.1120 C.3   170  PRO170      0.0208
     33  CD        14.2670  -27.6760   -0.2900 C.3   170  PRO170      0.0893
     34  N         17.1040  -26.5150   -2.6170 N.am  171  ILE171     -0.1980
     35  CA        18.3200  -26.3150   -3.4010 C.3   171  ILE171      0.1595
     36  C         18.1030  -26.7860   -4.8360 C.2   171  ILE171      0.2287
     37  O         18.4540  -26.0890   -5.7930 O.2   171  ILE171     -0.2864
     38  CB        19.5140  -27.0340   -2.7450 C.3   171  ILE171      0.0276
     39  CG1       19.7610  -26.5050   -1.3300 C.3   171  ILE171      0.0022
     40  CG2       20.7660  -26.8610   -3.6030 C.3   171  ILE171      0.0022
     41  CD1       20.6180  -27.4080   -0.4930 C.3   171  ILE171      0.0001
     42  N         15.8030  -24.1760   -6.4830 N.3   174  GLY174     -0.1225
     43  CA        16.4890  -22.9330   -6.7910 C.3   174  GLY174      0.1811
     44  C         17.4950  -23.0880   -7.9080 C.2   174  GLY174      0.2280
     45  O         17.6980  -22.1620   -8.7010 O.2   174  GLY174     -0.2866
     46  N          9.6730  -21.3130   -3.5770 N.3   222  ILE222     -0.1245
     47  CA        10.4690  -21.3490   -4.8050 C.3   222  ILE222      0.1561
     48  C          9.5930  -21.7070   -5.9970 C.2   222  ILE222      0.2260
     49  O          9.7960  -21.2070   -7.1070 O.2   222  ILE222     -0.2867
     50  CB        11.6450  -22.3370   -4.6730 C.3   222  ILE222      0.0252
     51  CG1       12.4250  -22.1310   -3.3620 C.3   222  ILE222      0.0019
     52  CG2       12.5690  -22.1930   -5.8660 C.3   222  ILE222      0.0019
     53  CD1       13.0780  -20.7970   -3.2380 C.3   222  ILE222      0.0001
@<TRIPOS>BOND
     1    21    20    2
     2    45    44    2
     3    19    20    1
     4    19    18    1
     5    19    22    1
     6    44    43    1
     7    23    22    1
     8    23    24    1
     9    49    48    2
    10    43    42    1
    11    24    25    1
    12    25    26    1
    13    48    47    1
    14    52    50    1
    15    37    36    2
    16    36    35    1
    17    47    50    1
    18    47    46    1
    19    10     9    2
    20    50    51    1
    21     9     8    1
    22     7     8    1
    23    30    29    2
    24     8    11    1
    25    40    38    1
    26    35    38    1
    27    35    34    1
    28    51    53    1
    29    29    34   am
    30    29    28    1
    31    38    39    1
    32    11    12    1
    33    28    27    1
    34    28    31    1
    35    27    33    1
    36    12    13   ar
    37    12    14   ar
    38    13    15   ar
    39    14    16   ar
    40    39    41    1
    41    15    17   ar
    42    16    17   ar
    43    31    32    1
    44    33    32    1
    45     1     2    1
    46     2     5    1
    47     2     3    1
    48     6     5    1
    49     3     4    2
