@<TRIPOS>MOLECULE
tmp/5n77D00.pdb
 92 87 0 0 0
SMALL
GASTEIGER

@<TRIPOS>ATOM
      1  N        -50.0520   -5.9610    7.1930 N.3    59  ILE59      -0.1245
      2  CA       -50.3530   -4.7050    7.8900 C.3    59  ILE59       0.1561
      3  C        -51.5600   -3.9160    7.3520 C.2    59  ILE59       0.2260
      4  O        -52.1100   -3.0630    8.0310 O.2    59  ILE59      -0.2867
      5  CB       -49.1270   -3.7460    7.9020 C.3    59  ILE59       0.0252
      6  CG1      -48.7010   -3.3540    6.4910 C.3    59  ILE59       0.0019
      7  CG2      -47.9530   -4.3740    8.6440 C.3    59  ILE59       0.0019
      8  CD1      -47.8190   -2.1160    6.4640 C.3    59  ILE59       0.0001
      9  N        -55.2120   -2.9670    6.4670 N.3    61  ALA61      -0.1245
     10  CA       -56.4510   -3.0430    7.2780 C.3    61  ALA61       0.1562
     11  C        -57.2770   -4.3060    7.0240 C.2    61  ALA61       0.2260
     12  O        -57.7330   -4.9720    7.9550 O.2    61  ALA61      -0.2867
     13  CB       -57.3230   -1.8220    7.0220 C.3    61  ALA61       0.0290
     14  N        -56.1170   -7.3480    8.7950 N.3    64  ARG64      -0.1231
     15  CA       -56.0430   -7.2440   10.2460 C.3    64  ARG64       0.1694
     16  C        -57.3860   -7.1000   10.9330 C.2    64  ARG64       0.2592
     17  O        -57.5490   -7.5120   12.0790 O.2    64  ARG64      -0.2718
     18  CB       -55.2900   -5.9790   10.6410 C.3    64  ARG64       0.0321
     19  CG       -53.8810   -5.8630   10.1470 C.3    64  ARG64       0.0489
     20  CD       -53.0870   -4.9250   11.0270 C.3    64  ARG64       0.2205
     21  NE       -51.8230   -5.5550   11.3230 N.pl3  64  ARG64      -0.0865
     22  CZ       -51.2450   -5.5540   12.5050 C.cat  64  ARG64       0.5346
     23  NH1      -51.8110   -4.9220   13.5170 N.pl3  64  ARG64       0.1354
     24  NH2      -50.1000   -6.1960   12.6890 N.pl3  64  ARG64       0.1354
     25  N        -58.3250   -6.4250   10.2890 N.am   65  PHE65      -0.1976
     26  CA       -59.6320   -6.1630   10.8980 C.3    65  PHE65       0.1639
     27  C        -60.7200   -6.6270    9.9310 C.2    65  PHE65       0.2290
     28  O        -61.0580   -5.9310    8.9650 O.2    65  PHE65      -0.2864
     29  CB       -59.7840   -4.6840   11.2200 C.3    65  PHE65       0.0560
     30  CG       -58.5550   -4.0740   11.8090 C.ar   65  PHE65      -0.0200
     31  CD1      -58.0480   -4.5280   13.0170 C.ar   65  PHE65      -0.0042
     32  CD2      -57.8840   -3.0590   11.1510 C.ar   65  PHE65      -0.0042
     33  CE1      -56.8970   -3.9620   13.5650 C.ar   65  PHE65      -0.0003
     34  CE2      -56.7450   -2.5040   11.6930 C.ar   65  PHE65      -0.0003
     35  CZ       -56.2450   -2.9610   12.8980 C.ar   65  PHE65      -0.0000
     36  N        -50.7460   -4.8710   17.1330 N.3    77  PHE77      -0.1241
     37  CA       -49.3960   -4.7690   17.6730 C.3    77  PHE77       0.1605
     38  C        -49.4400   -4.6860   19.1900 C.2    77  PHE77       0.2264
     39  O        -50.2080   -3.9070   19.7650 O.2    77  PHE77      -0.2867
     40  CB       -48.6640   -3.5350   17.1490 C.3    77  PHE77       0.0534
     41  CG       -48.2020   -3.6530   15.7290 C.ar   77  PHE77      -0.0203
     42  CD1      -47.3960   -4.6850   15.3350 C.ar   77  PHE77      -0.0042
     43  CD2      -48.5660   -2.7140   14.7980 C.ar   77  PHE77      -0.0042
     44  CE1      -46.9830   -4.8040   14.0310 C.ar   77  PHE77      -0.0003
     45  CE2      -48.1500   -2.8160   13.4870 C.ar   77  PHE77      -0.0003
     46  CZ       -47.3530   -3.8690   13.1040 C.ar   77  PHE77      -0.0000
     47  N        -45.7310    4.7250   19.2580 N.3   189  ARG189     -0.1231
     48  CA       -46.7260    5.3350   18.3840 C.3   189  ARG189      0.1694
     49  C        -47.3540    4.3160   17.4480 C.2   189  ARG189      0.2591
     50  O        -48.5550    4.3290   17.2930 O.2   189  ARG189     -0.2718
     51  CB       -46.1610    6.4760   17.5540 C.3   189  ARG189      0.0321
     52  CG       -47.2400    7.2770   16.8270 C.3   189  ARG189      0.0489
     53  CD       -46.6810    8.4410   16.0350 C.3   189  ARG189      0.2205
     54  NE       -45.7260    7.9770   15.0430 N.pl3 189  ARG189     -0.0865
     55  CZ       -44.8940    8.7640   14.3600 C.cat 189  ARG189      0.5346
     56  NH1      -44.9150   10.0860   14.5540 N.pl3 189  ARG189      0.1354
     57  NH2      -44.0320    8.2410   13.4800 N.pl3 189  ARG189      0.1354
     58  N        -46.5590    3.4320   16.8440 N.am  190  LEU190     -0.1980
     59  CA       -47.0990    2.4250   15.9320 C.3   190  LEU190      0.1596
     60  C        -48.1070    1.5720   16.6860 C.2   190  LEU190      0.2287
     61  O        -49.1800    1.2700   16.1860 O.2   190  LEU190     -0.2864
     62  CB       -46.0000    1.5100   15.3440 C.3   190  LEU190      0.0297
     63  CG       -45.0020    2.2160   14.4120 C.3   190  LEU190      0.0022
     64  CD1      -43.6850    1.4490   14.2440 C.3   190  LEU190      0.0001
     65  CD2      -45.6240    2.5340   13.0570 C.3   190  LEU190      0.0001
     66  N        -51.3560    3.7270   17.3300 N.3   193  MET193     -0.1230
     67  CA       -52.0900    3.9430   16.0810 C.3   193  MET193      0.1702
     68  C        -52.9030    2.7220   15.6430 C.2   193  MET193      0.2592
     69  O        -54.0050    2.8440   15.1050 O.2   193  MET193     -0.2718
     70  CB       -51.1200    4.2310   14.9460 C.3   193  MET193      0.0401
     71  CG       -50.4340    5.5770   14.9850 C.3   193  MET193      0.0596
     72  SD       -51.6110    6.8860   14.7240 S.3   193  MET193     -0.1393
     73  CE       -50.5720    7.9600   13.7110 C.3   193  MET193      0.0692
     74  N        -52.2950    1.5590   15.8370 N.am  194  ASP194     -0.1974
     75  CA       -52.8390    0.3050   15.3910 C.3   194  ASP194      0.1709
     76  C        -53.9790   -0.1350   16.2890 C.2   194  ASP194      0.2293
     77  O        -55.0100   -0.6090   15.8120 O.2   194  ASP194     -0.2864
     78  CB       -51.7450   -0.7560   15.3970 C.3   194  ASP194      0.1436
     79  CG       -52.1760   -2.0460   14.7210 C.2   194  ASP194      0.3671
     80  OD1      -52.7460   -2.0050   13.6020 O.co2 194  ASP194     -0.2456
     81  OD2      -51.9290   -3.0940   15.3370 O.co2 194  ASP194     -0.2456
     82  N        -57.0200    1.9250   15.2800 N.3   197  ARG197     -0.1245
     83  CA       -57.7590    1.3980   14.1420 C.3   197  ARG197      0.1563
     84  C        -58.6040    0.2340   14.5820 C.2   197  ARG197      0.2260
     85  O        -59.7260    0.0490   14.1210 O.2   197  ARG197     -0.2867
     86  CB       -56.8500    0.8400   13.0750 C.3   197  ARG197      0.0307
     87  CG       -56.0480    1.8370   12.2640 C.3   197  ARG197      0.0489
     88  CD       -55.9160    1.3520   10.8140 C.3   197  ARG197      0.2205
     89  NE       -56.7410    2.1350    9.9050 N.pl3 197  ARG197     -0.0865
     90  CZ       -56.4430    3.3820    9.5500 C.cat 197  ARG197      0.5346
     91  NH1      -55.3340    3.9800   10.0240 N.pl3 197  ARG197      0.1354
     92  NH2      -57.2520    4.0390    8.7220 N.pl3 197  ARG197      0.1354
@<TRIPOS>BOND
     1     8     6    1
     2     9    10    1
     3     6     5    1
     4    13    10    1
     5    11    10    1
     6    11    12    2
     7     1     2    1
     8     3     2    1
     9     3     4    2
    10     2     5    1
    11     5     7    1
    12    92    90    1
    13    14    15    1
    14    28    27    2
    15    90    89    2
    16    90    91    1
    17    89    88    1
    18    27    26    1
    19    19    18    1
    20    19    20    1
    21    15    18    1
    22    15    16    1
    23    25    26    1
    24    25    16   am
    25    88    87    1
    26    26    29    1
    27    16    17    2
    28    20    21    1
    29    32    34   ar
    30    32    30   ar
    31    29    30    1
    32    21    22    2
    33    34    35   ar
    34    30    31   ar
    35    87    86    1
    36    22    24    1
    37    22    23    1
    38    35    33   ar
    39    31    33   ar
    40    65    63    1
    41    86    83    1
    42    46    45   ar
    43    46    44   ar
    44    57    55    1
    45    45    43   ar
    46    80    79   ar
    47    73    72    1
    48    44    42   ar
    49    85    84    2
    50    83    84    1
    51    83    82    1
    52    64    63    1
    53    55    56    1
    54    55    54    2
    55    63    62    1
    56    79    81   ar
    57    79    78    1
    58    72    71    1
    59    43    41   ar
    60    70    71    1
    61    70    67    1
    62    54    53    1
    63    69    68    2
    64    42    41   ar
    65    62    59    1
    66    75    78    1
    67    75    74    1
    68    75    76    1
    69    68    74   am
    70    68    67    1
    71    41    40    1
    72    77    76    2
    73    59    60    1
    74    59    58    1
    75    53    52    1
    76    67    66    1
    77    61    60    2
    78    52    51    1
    79    58    49   am
    80    36    37    1
    81    40    37    1
    82    50    49    2
    83    49    48    1
    84    51    48    1
    85    37    38    1
    86    48    47    1
    87    38    39    2
