@<TRIPOS>MOLECULE
tmp/5n7bA00.pdb
 106 107 0 0 0
SMALL
GASTEIGER

@<TRIPOS>ATOM
      1  N        -25.3470   13.6320  -13.6440 N.3    31  ASN31      -0.1225
      2  CA       -25.1040   13.8410  -12.2190 C.3    31  ASN31       0.1785
      3  C        -23.7980   13.2400  -11.7000 C.2    31  ASN31       0.2597
      4  O        -23.4900   13.4210  -10.5200 O.2    31  ASN31      -0.2718
      5  CB       -26.2530   13.2260  -11.4040 C.3    31  ASN31       0.1169
      6  CG       -27.5280   14.0250  -11.4990 C.2    31  ASN31       0.2627
      7  OD1      -27.5470   15.1370  -12.0170 O.2    31  ASN31      -0.2716
      8  ND2      -28.6130   13.4460  -11.0010 N.am   31  ASN31      -0.0877
      9  N        -23.0620   12.5140  -12.5470 N.am   32  TYR32      -0.1962
     10  CA       -21.8360   11.8180  -12.1280 C.3    32  TYR32       0.1771
     11  C        -20.6070   12.1990  -12.9480 C.2    32  TYR32       0.2619
     12  O        -20.6860   12.4680  -14.1540 O.2    32  TYR32      -0.2715
     13  CB       -22.0440   10.3080  -12.1960 C.3    32  TYR32       0.0574
     14  CG       -23.1190    9.8360  -11.2340 C.ar   32  TYR32      -0.0198
     15  CD1      -22.8280    9.5750   -9.8870 C.ar   32  TYR32      -0.0009
     16  CD2      -24.4270    9.6660  -11.6660 C.ar   32  TYR32      -0.0009
     17  CE1      -23.8270    9.1450   -9.0140 C.ar   32  TYR32       0.0417
     18  CE2      -25.4300    9.2420  -10.8060 C.ar   32  TYR32       0.0417
     19  CZ       -25.1310    8.9740   -9.4870 C.ar   32  TYR32       0.1957
     20  OH       -26.1470    8.5710   -8.6490 O.3    32  TYR32      -0.2866
     21  N        -19.4660   12.2040  -12.2720 N.am   33  TRP33      -0.1974
     22  CA       -18.1870   12.3560  -12.9480 C.3    33  TRP33       0.1640
     23  C        -17.9800   11.1120  -13.7920 C.2    33  TRP33       0.2290
     24  O        -18.4850   10.0380  -13.4440 O.2    33  TRP33      -0.2864
     25  CB       -17.0080   12.4490  -11.9680 C.3    33  TRP33       0.0576
     26  CG       -17.0560   13.5530  -10.9420 C.ar   33  TRP33       0.0006
     27  CD1      -18.0940   14.3930  -10.6520 C.ar   33  TRP33       0.0946
     28  CD2      -16.0160   13.8740  -10.0270 C.ar   33  TRP33       0.0152
     29  NE1      -17.7520   15.2390   -9.6210 N.ar   33  TRP33      -0.2442
     30  CE2      -16.4850   14.9230   -9.2030 C.ar   33  TRP33       0.0810
     31  CE3      -14.7290   13.3620   -9.8110 C.ar   33  TRP33       0.0012
     32  CZ2      -15.6990   15.4890   -8.2020 C.ar   33  TRP33       0.0191
     33  CZ3      -13.9520   13.9170   -8.8210 C.ar   33  TRP33       0.0001
     34  CH2      -14.4440   14.9640   -8.0130 C.ar   33  TRP33       0.0015
     35  N        -18.8520   17.7600  -13.4430 N.3    53  LEU53      -0.1245
     36  CA       -20.1930   18.1000  -13.8980 C.3    53  LEU53       0.1561
     37  C        -20.2620   19.4740  -14.5500 C.2    53  LEU53       0.2260
     38  O        -19.3440   20.2720  -14.4420 O.2    53  LEU53      -0.2867
     39  CB       -21.1730   18.0730  -12.7330 C.3    53  LEU53       0.0270
     40  CG       -21.1270   16.8740  -11.7850 C.3    53  LEU53       0.0019
     41  CD1      -22.2300   17.0000  -10.7360 C.3    53  LEU53       0.0001
     42  CD2      -21.2480   15.5770  -12.5660 C.3    53  LEU53       0.0001
     43  N        -19.3060    6.3460  -11.1420 N.3   101  VAL101     -0.1231
     44  CA       -20.3430    6.1500  -10.1180 C.3   101  VAL101      0.1692
     45  C        -19.8310    5.4360   -8.8650 C.2   101  VAL101      0.2593
     46  O        -19.5480    4.2380   -8.8820 O.2   101  VAL101     -0.2718
     47  CB       -21.6160    5.4450  -10.6310 C.3   101  VAL101      0.0266
     48  CG1      -22.6630    5.4170   -9.5160 C.3   101  VAL101      0.0020
     49  CG2      -22.1530    6.1460  -11.8690 C.3   101  VAL101      0.0020
     50  N        -19.7170    6.2110   -7.7940 N.am  102  GLY102     -0.1942
     51  CA       -19.4490    5.7190   -6.4450 C.3   102  GLY102      0.2014
     52  C        -18.3250    4.7230   -6.1460 C.2   102  GLY102      0.2638
     53  O        -18.5510    3.8000   -5.3600 O.2   102  GLY102     -0.2714
     54  N        -17.1150    4.8360   -6.6960 N.am  103  GLN103     -0.1977
     55  CA       -16.6630    5.7380   -7.7500 C.3   103  GLN103      0.1601
     56  C        -16.4030    5.0020   -9.0880 C.2   103  GLN103      0.2287
     57  O        -16.2470    5.6520  -10.1140 O.2   103  GLN103     -0.2864
     58  CB       -15.3650    6.4190   -7.2870 C.3   103  GLN103      0.0394
     59  CG       -15.5830    7.4730   -6.2060 C.3   103  GLN103      0.0908
     60  CD       -16.0190    6.9230   -4.8480 C.2   103  GLN103      0.2608
     61  OE1      -15.3810    6.0280   -4.2750 O.2   103  GLN103     -0.2717
     62  NE2      -17.1010    7.4760   -4.3150 N.am  103  GLN103     -0.0878
     63  N        -10.6600    7.0740   -0.1550 N.3   150  TYR150     -0.1241
     64  CA       -11.8820    6.6150   -0.8520 C.3   150  TYR150      0.1605
     65  C        -11.6350    5.3170   -1.6090 C.2   150  TYR150      0.2264
     66  O        -11.8950    5.2300   -2.8190 O.2   150  TYR150     -0.2867
     67  CB       -12.4160    7.7140   -1.7990 C.3   150  TYR150      0.0534
     68  CG       -12.7330    8.9860   -1.0350 C.ar  150  TYR150     -0.0201
     69  CD1      -11.7360    9.9360   -0.7920 C.ar  150  TYR150     -0.0009
     70  CD2      -13.9990    9.2060   -0.4840 C.ar  150  TYR150     -0.0009
     71  CE1      -12.0070   11.0810   -0.0460 C.ar  150  TYR150      0.0417
     72  CE2      -14.2630   10.3470    0.2710 C.ar  150  TYR150      0.0417
     73  CZ       -13.2530   11.2750    0.4770 C.ar  150  TYR150      0.1957
     74  OH       -13.4870   12.4250    1.2260 O.3   150  TYR150     -0.2866
     75  N        -15.8240    4.3460   -1.7590 N.3   168  GLY168     -0.1225
     76  CA       -15.8010    5.1140   -0.5070 C.3   168  GLY168      0.1811
     77  C        -15.4540    4.2440    0.6850 C.2   168  GLY168      0.2280
     78  O        -16.1300    4.2860    1.7170 O.2   168  GLY168     -0.2866
     79  N         -7.4190    7.2300   -3.9350 N.3   209  TRP209     -0.1241
     80  CA        -7.5200    8.6280   -4.3720 C.3   209  TRP209      0.1605
     81  C         -6.4980    9.4640   -3.6360 C.2   209  TRP209      0.2264
     82  O         -6.3820    9.3690   -2.4130 O.2   209  TRP209     -0.2867
     83  CB        -8.9110    9.1510   -4.0630 C.3   209  TRP209      0.0550
     84  CG        -9.1680   10.6040   -4.2570 C.ar  209  TRP209      0.0003
     85  CD1       -9.2420   11.5750   -3.2800 C.ar  209  TRP209      0.0946
     86  CD2       -9.4670   11.2510   -5.4860 C.ar  209  TRP209      0.0152
     87  NE1       -9.5640   12.7860   -3.8460 N.ar  209  TRP209     -0.2442
     88  CE2       -9.7040   12.6150   -5.2000 C.ar  209  TRP209      0.0810
     89  CE3       -9.5540   10.8140   -6.8050 C.ar  209  TRP209      0.0012
     90  CZ2      -10.0270   13.5430   -6.1960 C.ar  209  TRP209      0.0191
     91  CZ3       -9.8650   11.7390   -7.8020 C.ar  209  TRP209      0.0001
     92  CH2      -10.1070   13.0870   -7.4900 C.ar  209  TRP209      0.0015
     93  N         -6.3540    9.1130   -9.2320 N.3   214  TRP214     -0.1241
     94  CA        -6.4780    7.7400   -8.7480 C.3   214  TRP214      0.1605
     95  C         -5.2260    6.9540   -9.0750 C.2   214  TRP214      0.2264
     96  O         -4.6740    7.0870  -10.1780 O.2   214  TRP214     -0.2867
     97  CB        -7.6600    7.0230   -9.4130 C.3   214  TRP214      0.0550
     98  CG        -8.9740    7.5340   -9.0180 C.ar  214  TRP214      0.0003
     99  CD1       -9.7260    8.4440   -9.6880 C.ar  214  TRP214      0.0946
    100  CD2       -9.7140    7.1770   -7.8500 C.ar  214  TRP214      0.0152
    101  NE1      -10.8830    8.6820   -9.0170 N.ar  214  TRP214     -0.2442
    102  CE2      -10.9130    7.9090   -7.8850 C.ar  214  TRP214      0.0810
    103  CE3       -9.4890    6.2890   -6.7840 C.ar  214  TRP214      0.0012
    104  CZ2      -11.8910    7.7990   -6.8990 C.ar  214  TRP214      0.0191
    105  CZ3      -10.4570    6.1960   -5.7800 C.ar  214  TRP214      0.0001
    106  CH2      -11.6450    6.9450   -5.8490 C.ar  214  TRP214      0.0015
@<TRIPOS>BOND
     1    37    38    2
     2    37    36    1
     3    12    11    2
     4    36    35    1
     5    36    39    1
     6    23    24    2
     7    23    22    1
     8     1     2    1
     9    11    21   am
    10    11    10    1
    11    22    21    1
    12    22    25    1
    13    39    40    1
    14    42    40    1
    15     9    10    1
    16     9     3   am
    17     2     3    1
    18     2     5    1
    19    13    10    1
    20    13    14    1
    21     7     6    2
    22    25    26    1
    23    49    47    1
    24    40    41    1
    25     3     4    2
    26    16    14   ar
    27    16    18   ar
    28     6     5    1
    29     6     8   am
    30    14    15   ar
    31    43    44    1
    32    26    27   ar
    33    26    28   ar
    34    18    19   ar
    35    27    29   ar
    36    47    44    1
    37    47    48    1
    38    96    95    2
    39    44    45    1
    40    57    56    2
    41    28    31   ar
    42    28    30   ar
    43    15    17   ar
    44    31    33   ar
    45    99    98   ar
    46    99   101   ar
    47    29    30   ar
    48    19    17   ar
    49    19    20    1
    50    97    98    1
    51    97    94    1
    52    93    94    1
    53    30    32   ar
    54    56    55    1
    55    95    94    1
    56    98   100   ar
    57   101   102   ar
    58    46    45    2
    59    45    50   am
    60    33    34   ar
    61    32    34   ar
    62   102   100   ar
    63   102   104   ar
    64   100   103   ar
    65    91    92   ar
    66    91    89   ar
    67    50    51    1
    68    55    58    1
    69    55    54    1
    70    92    90   ar
    71    58    59    1
    72   104   106   ar
    73    89    86   ar
    74   103   105   ar
    75    54    52   am
    76    51    52    1
    77    59    60    1
    78    90    88   ar
    79    52    53    2
    80   106   105   ar
    81    86    88   ar
    82    86    84   ar
    83    88    87   ar
    84    60    62   am
    85    60    61    2
    86    80    83    1
    87    80    79    1
    88    80    81    1
    89    84    83    1
    90    84    85   ar
    91    87    85   ar
    92    81    82    2
    93    66    65    2
    94    67    68    1
    95    67    64    1
    96    75    76    1
    97    65    64    1
    98    68    69   ar
    99    68    70   ar
   100    64    63    1
   101    69    71   ar
   102    76    77    1
   103    70    72   ar
   104    71    73   ar
   105    72    73   ar
   106    73    74    1
   107    77    78    2
