@<TRIPOS>MOLECULE
tmp/5n7jA04.pdb
 108 106 0 0 0
SMALL
GASTEIGER

@<TRIPOS>ATOM
      1  N         16.9040  -14.0220   -0.7520 N.3   362  ALA362     -0.1231
      2  CA        16.7580  -12.5780   -0.6610 C.3   362  ALA362      0.1694
      3  C         15.8960  -12.1650    0.5340 C.2   362  ALA362      0.2593
      4  O         16.2670  -11.2770    1.3150 O.2   362  ALA362     -0.2718
      5  CB        16.1550  -12.0340   -1.9640 C.3   362  ALA362      0.0304
      6  N         14.7450  -12.8100    0.6760 N.am  363  THR363     -0.1939
      7  CA        13.7680  -12.4140    1.6920 C.3   363  THR363      0.2028
      8  C         13.9880  -13.1030    3.0350 C.2   363  THR363      0.2642
      9  O         13.5030  -12.6180    4.0610 O.2   363  THR363     -0.2714
     10  CB        12.3240  -12.7220    1.2360 C.3   363  THR363      0.1808
     11  OG1       12.1300  -14.1420    1.1710 O.3   363  THR363     -0.2208
     12  CG2       12.0270  -12.1030   -0.1250 C.3   363  THR363      0.0379
     13  N         14.6980  -14.2370    3.0050 N.am  364  ARG364     -0.1963
     14  CA        14.8810  -15.1300    4.1640 C.3   364  ARG364      0.1729
     15  C         13.5760  -15.8000    4.5820 C.2   364  ARG364      0.2616
     16  O         13.5190  -16.4460    5.6150 O.2   364  ARG364     -0.2715
     17  CB        15.4670  -14.3780    5.3690 C.3   364  ARG364      0.0348
     18  CG        16.9610  -14.1070    5.3120 C.3   364  ARG364      0.0492
     19  CD        17.3420  -12.9980    4.3300 C.3   364  ARG364      0.2205
     20  NE        18.6940  -12.5120    4.6290 N.pl3 364  ARG364     -0.0865
     21  CZ        19.4080  -11.6820    3.8670 C.cat 364  ARG364      0.5346
     22  NH1       18.9210  -11.2230    2.7130 N.pl3 364  ARG364      0.1354
     23  NH2       20.6300  -11.3270    4.2560 N.pl3 364  ARG364      0.1354
     24  N         12.5230  -15.6350    3.7900 N.am  365  GLU365     -0.1977
     25  CA        11.2090  -16.1710    4.1460 C.3   365  GLU365      0.1602
     26  C         10.7850  -17.2530    3.1680 C.2   365  GLU365      0.2287
     27  O         10.6820  -17.0030    1.9710 O.2   365  GLU365     -0.2864
     28  CB        10.1640  -15.0520    4.1740 C.3   365  GLU365      0.0415
     29  CG        10.4340  -14.0000    5.2220 C.3   365  GLU365      0.1163
     30  CD         9.5410  -12.7850    5.0550 C.2   365  GLU365      0.3649
     31  OE1        8.8900  -12.3920    6.0400 O.co2 365  GLU365     -0.2457
     32  OE2        9.5000  -12.2180    3.9380 O.co2 365  GLU365     -0.2457
     33  N          1.2020  -10.8180   -0.8850 N.3   409  ILE409     -0.1231
     34  CA         2.3300  -10.2540   -1.6170 C.3   409  ILE409      0.1692
     35  C          1.8990   -9.7220   -2.9860 C.2   409  ILE409      0.2592
     36  O          1.2270  -10.4180   -3.7540 O.2   409  ILE409     -0.2718
     37  CB         3.4560  -11.2960   -1.8170 C.3   409  ILE409      0.0266
     38  CG1        4.0110  -11.7370   -0.4560 C.3   409  ILE409      0.0019
     39  CG2        4.5640  -10.7340   -2.7190 C.3   409  ILE409      0.0020
     40  CD1        5.0130  -12.8620   -0.5290 C.3   409  ILE409      0.0001
     41  N          2.2790   -8.4790   -3.2760 N.am  410  SER410     -0.1952
     42  CA         2.1150   -7.9070   -4.6100 C.3   410  SER410      0.1924
     43  C          3.2540   -8.3470   -5.5150 C.2   410  SER410      0.2314
     44  O          4.4130   -7.9810   -5.2920 O.2   410  SER410     -0.2863
     45  CB         2.0710   -6.3770   -4.5490 C.3   410  SER410      0.2116
     46  OG         2.3010   -5.8120   -5.8300 O.3   410  SER410     -0.2180
     47  N          5.3750   -5.3440   -7.0340 N.3   413  ASP413     -0.1225
     48  CA         6.2690   -4.7450   -6.0390 C.3   413  ASP413      0.1805
     49  C          7.3860   -5.6990   -5.6200 C.2   413  ASP413      0.2597
     50  O          8.5190   -5.2770   -5.3840 O.2   413  ASP413     -0.2718
     51  CB         5.5000   -4.3050   -4.7860 C.3   413  ASP413      0.1424
     52  CG         4.4370   -3.2700   -5.0800 C.2   413  ASP413      0.3668
     53  OD1        4.4390   -2.7160   -6.2010 O.co2 413  ASP413     -0.2456
     54  OD2        3.6050   -3.0110   -4.1820 O.co2 413  ASP413     -0.2456
     55  N          7.0620   -6.9830   -5.5210 N.am  414  HIS414     -0.1975
     56  CA         8.0300   -7.9700   -5.0570 C.3   414  HIS414      0.1656
     57  C          9.1830   -8.1240   -6.0580 C.2   414  HIS414      0.2291
     58  O         10.3560   -8.2410   -5.6710 O.2   414  HIS414     -0.2864
     59  CB         7.3500   -9.3200   -4.8270 C.3   414  HIS414      0.0771
     60  CG         8.1450  -10.2570   -3.9750 C.ar  414  HIS414      0.0820
     61  ND1        8.5180   -9.9520   -2.6770 N.ar  414  HIS414     -0.2267
     62  CD2        8.6500  -11.4910   -4.2260 C.ar  414  HIS414      0.1154
     63  CE1        9.2090  -10.9540   -2.1710 C.ar  414  HIS414      0.1986
     64  NE2        9.3060  -11.9050   -3.0910 N.ar  414  HIS414     -0.2212
     65  N         11.5770   -5.3190   -5.8720 N.3   417  PHE417     -0.1241
     66  CA        12.5510   -5.6150   -4.8270 C.3   417  PHE417      0.1605
     67  C         13.6220   -6.6140   -5.2940 C.2   417  PHE417      0.2264
     68  O         14.8180   -6.3510   -5.1520 O.2   417  PHE417     -0.2867
     69  CB        11.8600   -6.1540   -3.5720 C.3   417  PHE417      0.0534
     70  CG        12.8010   -6.8320   -2.6230 C.ar  417  PHE417     -0.0203
     71  CD1       13.6640   -6.0860   -1.8360 C.ar  417  PHE417     -0.0042
     72  CD2       12.8450   -8.2160   -2.5370 C.ar  417  PHE417     -0.0042
     73  CE1       14.5490   -6.7010   -0.9810 C.ar  417  PHE417     -0.0003
     74  CE2       13.7270   -8.8440   -1.6820 C.ar  417  PHE417     -0.0003
     75  CZ        14.5820   -8.0840   -0.8990 C.ar  417  PHE417     -0.0000
     76  N         16.1550   -5.2220   -7.5910 N.3   420  ARG420     -0.1231
     77  CA        17.0820   -4.3240   -6.9110 C.3   420  ARG420      0.1694
     78  C         18.1050   -5.1390   -6.1290 C.2   420  ARG420      0.2592
     79  O         19.3120   -4.9220   -6.2450 O.2   420  ARG420     -0.2718
     80  CB        16.3300   -3.3710   -5.9740 C.3   420  ARG420      0.0321
     81  CG        15.8990   -2.0580   -6.6140 C.3   420  ARG420      0.0489
     82  CD        14.5230   -1.6210   -6.1240 C.3   420  ARG420      0.2205
     83  NE        14.2460   -2.0730   -4.7620 N.pl3 420  ARG420     -0.0865
     84  CZ        13.0430   -2.0430   -4.1930 C.cat 420  ARG420      0.5346
     85  NH1       11.9940   -1.5800   -4.8640 N.pl3 420  ARG420      0.1354
     86  NH2       12.8870   -2.4810   -2.9550 N.pl3 420  ARG420      0.1354
     87  N         17.6030   -6.0860   -5.3410 N.am  421  PHE421     -0.1976
     88  CA        18.4420   -6.9240   -4.4850 C.3   421  PHE421      0.1639
     89  C         19.5430   -7.6400   -5.2730 C.2   421  PHE421      0.2290
     90  O         20.7180   -7.5700   -4.9120 O.2   421  PHE421     -0.2864
     91  CB        17.5930   -7.9630   -3.7310 C.3   421  PHE421      0.0560
     92  CG        18.3730   -8.7580   -2.7210 C.ar  421  PHE421     -0.0200
     93  CD1       19.0510   -9.9160   -3.0940 C.ar  421  PHE421     -0.0042
     94  CD2       18.4540   -8.3350   -1.4030 C.ar  421  PHE421     -0.0042
     95  CE1       19.7800  -10.6430   -2.1650 C.ar  421  PHE421     -0.0003
     96  CE2       19.1890   -9.0600   -0.4640 C.ar  421  PHE421     -0.0003
     97  CZ        19.8500  -10.2140   -0.8490 C.ar  421  PHE421     -0.0000
     98  N         20.3250   -2.7190   -3.2520 N.3   426  PHE426     -0.1241
     99  CA        19.5200   -2.7600   -2.0390 C.3   426  PHE426      0.1605
    100  C         20.4660   -2.8910   -0.8530 C.2   426  PHE426      0.2264
    101  O         21.3740   -3.7310   -0.8600 O.2   426  PHE426     -0.2867
    102  CB        18.5080   -3.9150   -2.0770 C.3   426  PHE426      0.0534
    103  CG        17.5330   -3.9090   -0.9180 C.ar  426  PHE426     -0.0203
    104  CD1       16.3310   -3.2230   -1.0080 C.ar  426  PHE426     -0.0042
    105  CD2       17.8250   -4.5810    0.2570 C.ar  426  PHE426     -0.0042
    106  CE1       15.4470   -3.2100    0.0560 C.ar  426  PHE426     -0.0003
    107  CE2       16.9430   -4.5710    1.3250 C.ar  426  PHE426     -0.0003
    108  CZ        15.7530   -3.8870    1.2240 C.ar  426  PHE426     -0.0000
@<TRIPOS>BOND
     1    76    77    1
     2    47    48    1
     3    77    78    1
     4    77    80    1
     5    81    82    1
     6    81    80    1
     7    79    78    2
     8    53    52   ar
     9    78    87   am
    10    82    83    1
    11    57    58    2
    12    57    56    1
    13    48    49    1
    14    48    51    1
    15    65    66    1
    16    46    45    1
    17    49    55   am
    18    49    50    2
    19    55    56    1
    20    43    44    2
    21    43    42    1
    22    87    88    1
    23    67    68    2
    24    67    66    1
    25    89    90    2
    26    89    88    1
    27    52    51    1
    28    52    54   ar
    29    56    59    1
    30    85    84    1
    31    59    60    1
    32    66    69    1
    33    83    84    2
    34    42    45    1
    35    42    41    1
    36    88    91    1
    37    62    60   ar
    38    62    64   ar
    39    84    86    1
    40    60    61   ar
    41    36    35    2
    42    91    92    1
    43    69    70    1
    44    41    35   am
    45    98    99    1
    46    93    92   ar
    47    93    95   ar
    48    64    63   ar
    49    35    34    1
    50    92    94   ar
    51    39    37    1
    52    61    63   ar
    53    70    72   ar
    54    70    71   ar
    55    72    74   ar
    56    95    97   ar
    57   102    99    1
    58   102   103    1
    59    99   100    1
    60     5     2    1
    61    71    73   ar
    62    37    34    1
    63    37    38    1
    64    74    75   ar
    65    34    33    1
    66    94    96   ar
    67   104   103   ar
    68   104   106   ar
    69    73    75   ar
    70   103   105   ar
    71   101   100    2
    72    97    96   ar
    73     1     2    1
    74     2     3    1
    75    40    38    1
    76    12    10    1
    77   106   108   ar
    78   105   107   ar
    79     3     6   am
    80     3     4    2
    81     6     7    1
    82    11    10    1
    83   108   107   ar
    84    10     7    1
    85     7     8    1
    86    27    26    2
    87    22    21    1
    88    13     8   am
    89    13    14    1
    90     8     9    2
    91    26    25    1
    92    24    25    1
    93    24    15   am
    94    21    23    1
    95    21    20    2
    96    32    30   ar
    97    25    28    1
    98    14    15    1
    99    14    17    1
   100    28    29    1
   101    19    20    1
   102    19    18    1
   103    15    16    2
   104    30    29    1
   105    30    31   ar
   106    18    17    1
