@<TRIPOS>MOLECULE
tmp/5n7jA05.pdb
 106 106 0 0 0
SMALL
GASTEIGER

@<TRIPOS>ATOM
      1  N          5.0650  -39.4430  -46.2810 N.3    63  MET63      -0.1245
      2  CA         6.4720  -39.1250  -46.4650 C.3    63  MET63       0.1570
      3  C          7.2360  -39.2840  -45.1480 C.2    63  MET63       0.2261
      4  O          8.3190  -39.8790  -45.1080 O.2    63  MET63      -0.2867
      5  CB         6.6330  -37.7090  -47.0060 C.3    63  MET63       0.0387
      6  CG         8.0800  -37.3070  -47.2530 C.3    63  MET63       0.0595
      7  SD         8.1750  -35.6470  -47.9700 S.3    63  MET63      -0.1393
      8  CE         7.1060  -35.8660  -49.3990 C.3    63  MET63       0.0692
      9  N         16.8190  -22.7420  -45.4390 N.3   194  TRP194     -0.1241
     10  CA        15.3600  -22.6940  -45.5450 C.3   194  TRP194      0.1605
     11  C         14.8860  -21.2540  -45.5380 C.2   194  TRP194      0.2264
     12  O         13.9510  -20.8890  -46.2540 O.2   194  TRP194     -0.2867
     13  CB        14.6750  -23.4430  -44.4070 C.3   194  TRP194      0.0550
     14  CG        15.0230  -24.8770  -44.3020 C.ar  194  TRP194      0.0003
     15  CD1       15.7470  -25.6320  -45.1870 C.ar  194  TRP194      0.0946
     16  CD2       14.6890  -25.7410  -43.2190 C.ar  194  TRP194      0.0152
     17  NE1       15.8590  -26.9230  -44.7270 N.ar  194  TRP194     -0.2442
     18  CE2       15.2150  -27.0160  -43.5170 C.ar  194  TRP194      0.0810
     19  CE3       13.9810  -25.5640  -42.0260 C.ar  194  TRP194      0.0012
     20  CZ2       15.0650  -28.1040  -42.6620 C.ar  194  TRP194      0.0191
     21  CZ3       13.8200  -26.6480  -41.1820 C.ar  194  TRP194      0.0001
     22  CH2       14.3690  -27.9030  -41.5010 C.ar  194  TRP194      0.0015
     23  N          9.3360  -21.9450  -54.2590 N.3   203  PRO203     -0.2102
     24  CA         8.0590  -22.6160  -54.0020 C.3   203  PRO203      0.1504
     25  C          8.1840  -23.7640  -53.0060 C.2   203  PRO203      0.2576
     26  O          7.2610  -24.0090  -52.2370 O.2   203  PRO203     -0.2718
     27  CB         7.6570  -23.1350  -55.3880 C.3   203  PRO203      0.0282
     28  CG         8.3280  -22.2040  -56.3320 C.3   203  PRO203      0.0208
     29  CD         9.6420  -21.8820  -55.6990 C.3   203  PRO203      0.0893
     30  N          9.3240  -24.4470  -53.0190 N.am  204  LEU204     -0.1966
     31  CA         9.5410  -25.5780  -52.1320 C.3   204  LEU204      0.1728
     32  C          9.5270  -25.1360  -50.6650 C.2   204  LEU204      0.2616
     33  O          9.1800  -25.9030  -49.7690 O.2   204  LEU204     -0.2715
     34  CB        10.8660  -26.2660  -52.4550 C.3   204  LEU204      0.0311
     35  CG        11.0410  -27.6020  -51.7350 C.3   204  LEU204      0.0022
     36  CD1       10.2930  -28.6950  -52.4940 C.3   204  LEU204      0.0001
     37  CD2       12.5070  -27.9540  -51.5340 C.3   204  LEU204      0.0001
     38  N          9.9100  -23.8910  -50.4210 N.am  205  PHE205     -0.1960
     39  CA         9.9880  -23.4050  -49.0550 C.3   205  PHE205      0.1771
     40  C          8.9590  -22.3280  -48.8050 C.2   205  PHE205      0.2619
     41  O          9.1350  -21.4540  -47.9490 O.2   205  PHE205     -0.2715
     42  CB        11.4020  -22.9180  -48.7580 C.3   205  PHE205      0.0574
     43  CG        12.3630  -24.0400  -48.5700 C.ar  205  PHE205     -0.0200
     44  CD1       12.4290  -24.6990  -47.3530 C.ar  205  PHE205     -0.0042
     45  CD2       13.1470  -24.4820  -49.6150 C.ar  205  PHE205     -0.0042
     46  CE1       13.2760  -25.7600  -47.1700 C.ar  205  PHE205     -0.0003
     47  CE2       14.0150  -25.5430  -49.4350 C.ar  205  PHE205     -0.0003
     48  CZ        14.0780  -26.1870  -48.2070 C.ar  205  PHE205     -0.0000
     49  N          7.8680  -22.4130  -49.5610 N.am  206  ASP206     -0.1971
     50  CA         6.7580  -21.4970  -49.3850 C.3   206  ASP206      0.1709
     51  C          6.1270  -21.6860  -48.0130 C.2   206  ASP206      0.2293
     52  O          5.8940  -22.8190  -47.5810 O.2   206  ASP206     -0.2864
     53  CB         5.7140  -21.6960  -50.4740 C.3   206  ASP206      0.1436
     54  CG         4.5290  -20.7780  -50.3040 C.2   206  ASP206      0.3671
     55  OD1        4.7240  -19.5440  -50.3350 O.co2 206  ASP206     -0.2456
     56  OD2        3.4010  -21.2880  -50.1460 O.co2 206  ASP206     -0.2456
     57  N          7.2990  -21.3410  -45.0290 N.3   208  PHE208     -0.1241
     58  CA         8.0900  -21.9930  -43.9910 C.3   208  PHE208      0.1605
     59  C          8.2640  -21.0410  -42.8120 C.2   208  PHE208      0.2264
     60  O          8.6230  -21.4610  -41.7120 O.2   208  PHE208     -0.2867
     61  CB         9.4550  -22.4490  -44.5270 C.3   208  PHE208      0.0534
     62  CG         9.5640  -23.9330  -44.7050 C.ar  208  PHE208     -0.0203
     63  CD1       10.4860  -24.6660  -43.9770 C.ar  208  PHE208     -0.0042
     64  CD2        8.7250  -24.6030  -45.5860 C.ar  208  PHE208     -0.0042
     65  CE1       10.5760  -26.0490  -44.1290 C.ar  208  PHE208     -0.0003
     66  CE2        8.8190  -25.9740  -45.7420 C.ar  208  PHE208     -0.0003
     67  CZ         9.7390  -26.6980  -45.0150 C.ar  208  PHE208     -0.0000
     68  N          4.2900  -29.1510  -43.7820 N.3   263  TRP263     -0.1241
     69  CA         5.5950  -29.5470  -44.3110 C.3   263  TRP263      0.1605
     70  C          6.7200  -29.0930  -43.3890 C.2   263  TRP263      0.2264
     71  O          7.7950  -29.6810  -43.3970 O.2   263  TRP263     -0.2867
     72  CB         5.8030  -29.0080  -45.7300 C.3   263  TRP263      0.0550
     73  CG         4.8410  -29.6240  -46.7100 C.ar  263  TRP263      0.0003
     74  CD1        3.8250  -28.9950  -47.3770 C.ar  263  TRP263      0.0946
     75  CD2        4.7760  -31.0040  -47.0910 C.ar  263  TRP263      0.0152
     76  NE1        3.1420  -29.8990  -48.1610 N.ar  263  TRP263     -0.2442
     77  CE2        3.7110  -31.1380  -48.0070 C.ar  263  TRP263      0.0810
     78  CE3        5.5220  -32.1380  -46.7550 C.ar  263  TRP263      0.0012
     79  CZ2        3.3740  -32.3650  -48.5910 C.ar  263  TRP263      0.0191
     80  CZ3        5.1900  -33.3540  -47.3440 C.ar  263  TRP263      0.0001
     81  CH2        4.1240  -33.4550  -48.2460 C.ar  263  TRP263      0.0015
     82  N          6.9930  -31.8620  -40.8570 N.3   266  ARG266     -0.1231
     83  CA         7.7520  -32.9620  -41.4400 C.3   266  ARG266      0.1694
     84  C          9.2460  -32.6570  -41.4600 C.2   266  ARG266      0.2591
     85  O         10.0590  -33.5220  -41.1550 O.2   266  ARG266     -0.2718
     86  CB         7.2610  -33.2720  -42.8590 C.3   266  ARG266      0.0321
     87  CG         8.0460  -34.3870  -43.5270 C.3   266  ARG266      0.0489
     88  CD         8.5110  -33.8870  -44.8610 C.3   266  ARG266      0.2205
     89  NE         9.5320  -34.7080  -45.5030 N.pl3 266  ARG266     -0.0865
     90  CZ        10.7710  -34.2960  -45.7560 C.cat 266  ARG266      0.5346
     91  NH1       11.1550  -33.0750  -45.3880 N.pl3 266  ARG266      0.1354
     92  NH2       11.6310  -35.1060  -46.3640 N.pl3 266  ARG266      0.1354
     93  N          9.6020  -31.4270  -41.8190 N.am  267  ALA267     -0.1980
     94  CA        11.0050  -31.0290  -41.8540 C.3   267  ALA267      0.1597
     95  C         11.6630  -31.1920  -40.4820 C.2   267  ALA267      0.2287
     96  O         12.7490  -31.7560  -40.3550 O.2   267  ALA267     -0.2864
     97  CB        11.1300  -29.5930  -42.3260 C.3   267  ALA267      0.0319
     98  N         14.5160  -33.7130  -38.7950 N.3   271  GLU271     -0.1245
     99  CA        15.6600  -33.3140  -37.9850 C.3   271  GLU271      0.1567
    100  C         15.6870  -34.0900  -36.6720 C.2   271  GLU271      0.2260
    101  O         16.7540  -34.5000  -36.2090 O.2   271  GLU271     -0.2867
    102  CB        15.6370  -31.8010  -37.7130 C.3   271  GLU271      0.0388
    103  CG        15.8170  -30.9620  -38.9750 C.3   271  GLU271      0.1160
    104  CD        16.9710  -31.4560  -39.8370 C.2   271  GLU271      0.3649
    105  OE1       18.0620  -31.7430  -39.2980 O.co2 271  GLU271     -0.2457
    106  OE2       16.7860  -31.5810  -41.0580 O.co2 271  GLU271     -0.2457
@<TRIPOS>BOND
     1    28    29    1
     2    28    27    1
     3    29    23    1
     4    27    24    1
     5    23    24    1
     6    24    25    1
     7    30    25   am
     8    30    31    1
     9    25    26    2
    10    36    35    1
    11    34    31    1
    12    34    35    1
    13    31    32    1
    14    35    37    1
    15    32    38   am
    16    32    33    2
    17    53    54    1
    18    53    50    1
    19    38    39    1
    20    55    54   ar
    21    54    56   ar
    22    45    47   ar
    23    45    43   ar
    24    49    50    1
    25    49    40   am
    26    47    48   ar
    27     8     7    1
    28    50    51    1
    29    39    40    1
    30    39    42    1
    31    40    41    2
    32    42    43    1
    33    79    81   ar
    34    79    77   ar
    35    43    44   ar
    36    81    80   ar
    37    48    46   ar
    38    76    77   ar
    39    76    74   ar
    40    51    52    2
    41    77    75   ar
    42     7     6    1
    43    74    73   ar
    44    44    46   ar
    45    80    78   ar
    46     6     5    1
    47    75    78   ar
    48    75    73   ar
    49     5     2    1
    50    73    72    1
    51     2     1    1
    52     2     3    1
    53    92    90    1
    54    12    11    2
    55    90    89    2
    56    90    91    1
    57    66    64   ar
    58    66    67   ar
    59    72    69    1
    60    64    62   ar
    61    10    11    1
    62    10     9    1
    63    10    13    1
    64    89    88    1
    65    15    17   ar
    66    15    14   ar
    67     3     4    2
    68    57    58    1
    69    67    65   ar
    70    88    87    1
    71    17    18   ar
    72    62    61    1
    73    62    63   ar
    74    61    58    1
    75    13    14    1
    76    69    68    1
    77    69    70    1
    78    14    16   ar
    79    65    63   ar
    80    58    59    1
    81    87    86    1
    82    18    16   ar
    83    18    20   ar
    84    71    70    2
    85    16    19   ar
    86    86    83    1
    87    59    60    2
    88    20    22   ar
    89    97    94    1
    90    19    21   ar
    91    94    93    1
    92    94    95    1
    93    93    84   am
    94    22    21   ar
    95    84    83    1
    96    84    85    2
    97    83    82    1
    98   106   104   ar
    99    95    96    2
   100   104   105   ar
   101   104   103    1
   102   103   102    1
   103    98    99    1
   104    99   102    1
   105    99   100    1
   106   100   101    2
