@<TRIPOS>MOLECULE
tmp/5n7jA01.pdb
 81 78 0 0 0
SMALL
GASTEIGER

@<TRIPOS>ATOM
      1  N          5.1710  -31.5670    1.9850 N.3   558  THR558     -0.1203
      2  CA         5.8560  -30.5490    2.7600 C.3   558  THR558      0.1994
      3  C          5.6040  -30.7660    4.2440 C.2   558  THR558      0.2618
      4  O          4.6190  -31.3920    4.6510 O.2   558  THR558     -0.2717
      5  CB         5.4340  -29.1150    2.3680 C.3   558  THR558      0.1784
      6  OG1        4.0130  -28.9770    2.4810 O.3   558  THR558     -0.2211
      7  CG2        5.8570  -28.8100    0.9440 C.3   558  THR558      0.0376
      8  N          6.5270  -30.2480    5.0380 N.am  559  PHE559     -0.1961
      9  CA         6.4700  -30.3300    6.4870 C.3   559  PHE559      0.1771
     10  C          6.4020  -28.9060    7.0320 C.2   559  PHE559      0.2619
     11  O          7.2720  -28.0870    6.7280 O.2   559  PHE559     -0.2715
     12  CB         7.7030  -31.0620    7.0270 C.3   559  PHE559      0.0574
     13  CG         7.7340  -31.1690    8.5260 C.ar  559  PHE559     -0.0200
     14  CD1        7.2020  -32.2870    9.1600 C.ar  559  PHE559     -0.0042
     15  CD2        8.2960  -30.1670    9.3010 C.ar  559  PHE559     -0.0042
     16  CE1        7.2260  -32.3980   10.5400 C.ar  559  PHE559     -0.0003
     17  CE2        8.3270  -30.2740   10.7020 C.ar  559  PHE559     -0.0003
     18  CZ         7.7880  -31.3850   11.3170 C.ar  559  PHE559     -0.0000
     19  N          5.3690  -28.6010    7.8170 N.am  560  ASN560     -0.1972
     20  CA         5.2280  -27.2650    8.3990 C.3   560  ASN560      0.1688
     21  C          6.2090  -27.0780    9.5610 C.2   560  ASN560      0.2292
     22  O          6.0110  -27.6240   10.6430 O.2   560  ASN560     -0.2864
     23  CB         3.7920  -27.0130    8.8860 C.3   560  ASN560      0.1181
     24  CG         2.7430  -27.1860    7.7870 C.2   560  ASN560      0.2629
     25  OD1        1.8360  -28.0120    7.9110 O.2   560  ASN560     -0.2716
     26  ND2        2.8510  -26.4000    6.7250 N.am  560  ASN560     -0.0877
     27  N          6.8300  -24.3510   11.1600 N.3   562  ASN562     -0.1240
     28  CA         6.3980  -23.2580   12.0460 C.3   562  ASN562      0.1653
     29  C          7.5110  -22.2390   12.3100 C.2   562  ASN562      0.2266
     30  O          7.5470  -21.5600   13.3420 O.2   562  ASN562     -0.2867
     31  CB         5.8670  -23.8270   13.3610 C.3   562  ASN562      0.1155
     32  CG         4.5470  -24.5480   13.1780 C.2   562  ASN562      0.2627
     33  OD1        3.6720  -24.0830   12.4390 O.2   562  ASN562     -0.2716
     34  ND2        4.4100  -25.7090   13.8130 N.am  562  ASN562     -0.0877
     35  N          9.2290  -33.9050    3.1900 N.3   570  ILE570     -0.1245
     36  CA         9.5370  -35.3100    3.4480 C.3   570  ILE570      0.1561
     37  C          9.4790  -36.0940    2.1540 C.2   570  ILE570      0.2260
     38  O          8.5210  -35.9560    1.3870 O.2   570  ILE570     -0.2867
     39  CB         8.5710  -35.9220    4.4900 C.3   570  ILE570      0.0252
     40  CG1        8.7120  -35.1760    5.8230 C.3   570  ILE570      0.0019
     41  CG2        8.8480  -37.3950    4.6730 C.3   570  ILE570      0.0019
     42  CD1        7.6760  -35.5540    6.8470 C.3   570  ILE570      0.0001
     43  N          7.8040  -29.1540   20.0040 N.3   591  HIS591     -0.1226
     44  CA         6.3790  -29.3150   19.7500 C.3   591  HIS591      0.1752
     45  C          6.0940  -29.6230   18.2650 C.2   591  HIS591      0.2596
     46  O          5.2860  -30.4990   17.9470 O.2   591  HIS591     -0.2718
     47  CB         5.5970  -28.0760   20.1820 C.3   591  HIS591      0.0759
     48  CG         4.1170  -28.2770   20.1390 C.ar  591  HIS591      0.0818
     49  ND1        3.3820  -28.1410   18.9810 N.ar  591  HIS591     -0.2268
     50  CD2        3.2380  -28.6380   21.1060 C.ar  591  HIS591      0.1154
     51  CE1        2.1110  -28.4020   19.2370 C.ar  591  HIS591      0.1986
     52  NE2        1.9960  -28.7080   20.5180 N.ar  591  HIS591     -0.2212
     53  N          6.7570  -28.8970   17.3670 N.am  592  THR592     -0.1953
     54  CA         6.6210  -29.1380   15.9330 C.3   592  THR592      0.1897
     55  C          7.0910  -30.5480   15.5420 C.2   592  THR592      0.2313
     56  O          6.5310  -31.1830   14.6500 O.2   592  THR592     -0.2863
     57  CB         7.4100  -28.0910   15.1470 C.3   592  THR592      0.1794
     58  OG1        6.9510  -26.7850   15.5270 O.3   592  THR592     -0.2208
     59  CG2        7.2230  -28.2850   13.6370 C.3   592  THR592      0.0378
     60  N          7.0370  -33.3800   17.3010 N.3   594  GLN594     -0.1231
     61  CA         6.4180  -34.4400   18.1180 C.3   594  GLN594      0.1698
     62  C          6.1790  -35.7970   17.4650 C.2   594  GLN594      0.2592
     63  O          6.2200  -36.8270   18.1350 O.2   594  GLN594     -0.2718
     64  CB         5.0620  -33.9660   18.6210 C.3   594  GLN594      0.0381
     65  CG         5.0880  -33.1950   19.8840 C.3   594  GLN594      0.0905
     66  CD         3.7040  -32.7270   20.2200 C.2   594  GLN594      0.2608
     67  OE1        2.9690  -33.4060   20.9260 O.2   594  GLN594     -0.2717
     68  NE2        3.3300  -31.5690   19.7010 N.am  594  GLN594     -0.0878
     69  N          5.8660  -35.7830   16.1760 N.am  595  ALA595     -0.1966
     70  CA         5.5200  -37.0010   15.4610 C.3   595  ALA595      0.1728
     71  C          6.7520  -37.7610   14.9640 C.2   595  ALA595      0.2616
     72  O          6.6370  -38.8700   14.4660 O.2   595  ALA595     -0.2715
     73  CB         4.6150  -36.6740   14.2960 C.3   595  ALA595      0.0334
     74  N          7.9180  -37.1470   15.0820 N.am  596  MET596     -0.1977
     75  CA         9.1480  -37.6970   14.5300 C.3   596  MET596      0.1605
     76  C          9.7890  -38.6440   15.5260 C.2   596  MET596      0.2287
     77  O          9.5170  -38.5580   16.7260 O.2   596  MET596     -0.2864
     78  CB        10.1170  -36.5690   14.1690 C.3   596  MET596      0.0413
     79  CG         9.6030  -35.6930   13.0260 C.3   596  MET596      0.0598
     80  SD         9.3350  -36.7330   11.5800 S.3   596  MET596     -0.1393
     81  CE         8.1340  -35.7770   10.6730 C.3   596  MET596      0.0692
@<TRIPOS>BOND
     1     7     5    1
     2    38    37    2
     3     1     2    1
     4    37    36    1
     5     5     6    1
     6     5     2    1
     7     2     3    1
     8    35    36    1
     9    36    39    1
    10     3     4    2
    11     3     8   am
    12    39    41    1
    13    39    40    1
    14     8     9    1
    15    40    42    1
    16     9    12    1
    17     9    10    1
    18    26    24   am
    19    11    10    2
    20    12    13    1
    21    10    19   am
    22    24    25    2
    23    24    23    1
    24    19    20    1
    25    20    23    1
    26    20    21    1
    27    13    14   ar
    28    13    15   ar
    29    14    16   ar
    30    15    17   ar
    31    21    22    2
    32    16    18   ar
    33    81    80    1
    34    17    18   ar
    35    27    28    1
    36    80    79    1
    37    28    29    1
    38    28    31    1
    39    29    30    2
    40    33    32    2
    41    79    78    1
    42    32    31    1
    43    32    34   am
    44    59    57    1
    45    78    75    1
    46    73    70    1
    47    72    71    2
    48    75    74    1
    49    75    76    1
    50    56    55    2
    51    71    74   am
    52    71    70    1
    53    57    58    1
    54    57    54    1
    55    70    69    1
    56    76    77    2
    57    55    54    1
    58    54    53    1
    59    69    62   am
    60    60    61    1
    61    53    45   am
    62    62    61    1
    63    62    63    2
    64    46    45    2
    65    61    64    1
    66    45    44    1
    67    64    65    1
    68    49    51   ar
    69    49    48   ar
    70    51    52   ar
    71    68    66   am
    72    44    43    1
    73    44    47    1
    74    65    66    1
    75    48    47    1
    76    48    50   ar
    77    66    67    2
    78    52    50   ar
