@<TRIPOS>MOLECULE
tmp/5n7pA01.pdb
 128 119 0 0 0
SMALL
GASTEIGER

@<TRIPOS>ATOM
      1  N        132.8470   30.5680   30.6520 N.3    51  LEU51      -0.1231
      2  CA       132.0220   30.7680   29.4700 C.3    51  LEU51       0.1693
      3  C        130.5930   30.2920   29.6540 C.2    51  LEU51       0.2592
      4  O        129.7120   30.6910   28.8810 O.2    51  LEU51      -0.2718
      5  CB       132.6300   30.0210   28.2720 C.3    51  LEU51       0.0284
      6  CG       134.0250   30.4300   27.8310 C.3    51  LEU51       0.0019
      7  CD1      134.5570   29.4870   26.7640 C.3    51  LEU51       0.0001
      8  CD2      134.0190   31.8540   27.3190 C.3    51  LEU51       0.0001
      9  N        130.3620   29.4270   30.6280 N.am   52  GLY52      -0.1957
     10  CA       129.0490   28.8630   30.8550 C.3    52  GLY52       0.1869
     11  C        129.1130   27.9460   32.0590 C.2    52  GLY52       0.2309
     12  O        130.1880   27.4840   32.4660 O.2    52  GLY52      -0.2863
     13  N        132.2640   25.5080   32.0330 N.3    59  VAL59      -0.1245
     14  CA       133.1520   25.5400   30.8820 C.3    59  VAL59       0.1561
     15  C        133.9360   26.8370   30.9510 C.2    59  VAL59       0.2260
     16  O        133.3510   27.9150   31.0850 O.2    59  VAL59      -0.2867
     17  CB       132.3770   25.4450   29.5600 C.3    59  VAL59       0.0252
     18  CG1      133.3270   25.6270   28.3870 C.3    59  VAL59       0.0019
     19  CG2      131.6630   24.1170   29.4790 C.3    59  VAL59       0.0019
     20  N        138.3420   25.6280   25.1300 N.3    72  ALA72      -0.1245
     21  CA       137.2400   25.5670   26.0830 C.3    72  ALA72       0.1562
     22  C        137.4100   24.3080   26.9310 C.2    72  ALA72       0.2260
     23  O        137.4760   23.2010   26.3950 O.2    72  ALA72      -0.2867
     24  CB       135.8930   25.5660   25.3630 C.3    72  ALA72       0.0290
     25  N        135.8290   21.9900   29.8440 N.3    74  LYS74      -0.1245
     26  CA       134.6950   21.6010   30.6670 C.3    74  LYS74       0.1561
     27  C        135.2220   20.8990   31.9120 C.2    74  LYS74       0.2260
     28  O        136.0000   19.9430   31.8120 O.2    74  LYS74      -0.2867
     29  CB       133.7500   20.6900   29.8840 C.3    74  LYS74       0.0271
     30  CG       132.4750   20.3540   30.6170 C.3    74  LYS74       0.0035
     31  CD       131.5130   19.6350   29.6930 C.3    74  LYS74       0.0206
     32  CE       130.2480   19.2590   30.3900 C.3    74  LYS74       0.1093
     33  NZ       129.2520   18.6940   29.4200 N.3    74  LYS74      -0.1314
     34  N        131.8940   19.7730   17.7660 N.3   106  VAL106     -0.1245
     35  CA       133.0850   20.3490   18.3740 C.3   106  VAL106      0.1561
     36  C        134.1420   19.2620   18.5650 C.2   106  VAL106      0.2260
     37  O        133.8290   18.0880   18.8100 O.2   106  VAL106     -0.2867
     38  CB       132.7390   21.0530   19.6970 C.3   106  VAL106      0.0252
     39  CG1      132.4290   20.0450   20.8130 C.3   106  VAL106      0.0019
     40  CG2      133.8750   21.9960   20.1090 C.3   106  VAL106      0.0019
     41  N        138.2990   21.2160   24.7480 N.3   122  MET122     -0.1230
     42  CA       137.7330   21.2700   23.4120 C.3   122  MET122      0.1702
     43  C        138.1600   22.5400   22.6870 C.2   122  MET122      0.2592
     44  O        138.6300   23.5120   23.2790 O.2   122  MET122     -0.2718
     45  CB       136.2010   21.2300   23.4690 C.3   122  MET122      0.0401
     46  CG       135.6300   19.9420   23.9930 C.3   122  MET122      0.0596
     47  SD       133.9230   20.2020   24.5160 S.3   122  MET122     -0.1393
     48  CE       134.1760   20.9150   26.1400 C.3   122  MET122      0.0692
     49  N        137.9270   22.5310   21.3800 N.am  123  GLU123     -0.1966
     50  CA       138.0520   23.7380   20.5840 C.3   123  GLU123      0.1733
     51  C        137.2010   24.8590   21.1840 C.2   123  GLU123      0.2616
     52  O        136.0500   24.6460   21.5920 O.2   123  GLU123     -0.2715
     53  CB       137.6030   23.4270   19.1580 C.3   123  GLU123      0.0429
     54  CG       138.0270   24.4220   18.1240 C.3   123  GLU123      0.1163
     55  CD       138.1080   23.7890   16.7560 C.2   123  GLU123      0.3649
     56  OE1      138.9150   22.8510   16.5830 O.co2 123  GLU123     -0.2457
     57  OE2      137.3520   24.2110   15.8680 O.co2 123  GLU123     -0.2457
     58  N        137.7940   26.0550   21.2600 N.am  124  TYR124     -0.1960
     59  CA       137.0620   27.2550   21.6490 C.3   124  TYR124      0.1771
     60  C        136.3470   27.8150   20.4200 C.2   124  TYR124      0.2619
     61  O        136.9640   27.9890   19.3580 O.2   124  TYR124     -0.2715
     62  CB       138.0200   28.2940   22.2530 C.3   124  TYR124      0.0574
     63  CG       137.3740   29.6320   22.5830 C.ar  124  TYR124     -0.0198
     64  CD1      136.2120   29.7010   23.3280 C.ar  124  TYR124     -0.0009
     65  CD2      137.9400   30.8240   22.1570 C.ar  124  TYR124     -0.0009
     66  CE1      135.6330   30.9070   23.6340 C.ar  124  TYR124      0.0417
     67  CE2      137.3710   32.0370   22.4530 C.ar  124  TYR124      0.0417
     68  CZ       136.2030   32.0780   23.1880 C.ar  124  TYR124      0.1957
     69  OH       135.5940   33.2840   23.5070 O.3   124  TYR124     -0.2866
     70  N        135.0510   28.0760   20.5600 N.am  125  VAL125     -0.1977
     71  CA       134.2070   28.5410   19.4560 C.3   125  VAL125      0.1596
     72  C        133.7610   29.9610   19.7950 C.2   125  VAL125      0.2287
     73  O        132.8040   30.1450   20.5620 O.2   125  VAL125     -0.2864
     74  CB       133.0080   27.6140   19.2240 C.3   125  VAL125      0.0276
     75  CG1      132.2570   28.0270   17.9510 C.3   125  VAL125      0.0022
     76  CG2      133.4550   26.1640   19.1600 C.3   125  VAL125      0.0022
     77  N        126.9580   31.4070   21.8740 N.3   129  GLU129     -0.1245
     78  CA       125.8320   30.4960   21.7240 C.3   129  GLU129      0.1567
     79  C        124.7640   31.0510   20.7870 C.2   129  GLU129      0.2260
     80  O        124.4510   32.2530   20.8080 O.2   129  GLU129     -0.2867
     81  CB       125.1800   30.2410   23.0830 C.3   129  GLU129      0.0388
     82  CG       126.1230   29.6600   24.1100 C.3   129  GLU129      0.1160
     83  CD       125.4870   29.5530   25.4910 C.2   129  GLU129      0.3649
     84  OE1      124.3330   30.0100   25.6460 O.co2 129  GLU129     -0.2457
     85  OE2      126.1260   28.9960   26.4090 O.co2 129  GLU129     -0.2457
     86  N        121.0820   26.6430   23.3490 N.3   172  GLU172     -0.1245
     87  CA       122.1700   26.7640   24.3160 C.3   172  GLU172      0.1567
     88  C        123.3790   25.9120   23.9450 C.2   172  GLU172      0.2260
     89  O        124.5130   26.2150   24.3650 O.2   172  GLU172     -0.2867
     90  CB       121.6870   26.3280   25.7030 C.3   172  GLU172      0.0388
     91  CG       120.6440   27.1820   26.4030 C.3   172  GLU172      0.1160
     92  CD       119.1890   26.8670   26.0550 C.2   172  GLU172      0.3649
     93  OE1      118.8540   26.5070   24.8800 O.co2 172  GLU172     -0.2457
     94  OE2      118.3600   26.9940   26.9860 O.co2 172  GLU172     -0.2457
     95  N        126.9910   26.4260   19.1860 N.3   175  LEU175     -0.1245
     96  CA       127.8980   27.5580   19.1550 C.3   175  LEU175      0.1561
     97  C        128.1160   28.0090   17.7150 C.2   175  LEU175      0.2260
     98  O        128.0430   27.2060   16.7930 O.2   175  LEU175     -0.2867
     99  CB       129.2280   27.1780   19.7930 C.3   175  LEU175      0.0270
    100  CG       129.1090   26.6330   21.2000 C.3   175  LEU175      0.0019
    101  CD1      130.4650   26.3110   21.7570 C.3   175  LEU175      0.0001
    102  CD2      128.3810   27.6070   22.1110 C.3   175  LEU175      0.0001
    103  N        127.8740   21.2240   20.7860 N.3   185  THR185     -0.1203
    104  CA       128.6010   20.9380   22.0030 C.3   185  THR185      0.1994
    105  C        127.7110   20.1530   22.9590 C.2   185  THR185      0.2617
    106  O        126.5300   19.8950   22.6970 O.2   185  THR185     -0.2717
    107  CB       129.0830   22.2310   22.6670 C.3   185  THR185      0.1784
    108  OG1      127.9630   22.9900   23.1600 O.3   185  THR185     -0.2211
    109  CG2      129.8590   23.0660   21.6820 C.3   185  THR185      0.0376
    110  N        128.3030   19.7800   24.0830 N.am  186  ASP186     -0.1973
    111  CA       127.6040   19.1260   25.1810 C.3   186  ASP186      0.1709
    112  C        127.0290   17.7890   24.7510 C.2   186  ASP186      0.2293
    113  O        125.8410   17.6690   24.4060 O.2   186  ASP186     -0.2864
    114  CB       126.4900   19.9820   25.7740 C.3   186  ASP186      0.1436
    115  CG       126.1050   19.4970   27.1730 C.2   186  ASP186      0.3671
    116  OD1      126.4610   18.3360   27.4730 O.co2 186  ASP186     -0.2456
    117  OD2      125.4700   20.2430   27.9620 O.co2 186  ASP186     -0.2456
    118  N        130.0830   36.1100   24.7320 N.3   328  PHE328     -0.1241
    119  CA       129.5570   35.2920   25.8170 C.3   328  PHE328      0.1605
    120  C        129.1060   36.1590   26.9850 C.2   328  PHE328      0.2264
    121  O        129.6770   37.2170   27.2700 O.2   328  PHE328     -0.2867
    122  CB       130.5830   34.2810   26.3170 C.3   328  PHE328      0.0534
    123  CG       130.9270   33.2340   25.3010 C.ar  328  PHE328     -0.0203
    124  CD1      130.2050   32.0500   25.2360 C.ar  328  PHE328     -0.0042
    125  CD2      131.9490   33.4470   24.3980 C.ar  328  PHE328     -0.0042
    126  CE1      130.5090   31.0710   24.2930 C.ar  328  PHE328     -0.0003
    127  CE2      132.2710   32.4920   23.4530 C.ar  328  PHE328     -0.0003
    128  CZ       131.5590   31.2910   23.3900 C.ar  328  PHE328     -0.0000
@<TRIPOS>BOND
     1    57    55   ar
     2    56    55   ar
     3    55    54    1
     4    98    97    2
     5    97    96    1
     6    34    35    1
     7    75    74    1
     8    54    53    1
     9    35    36    1
    10    35    38    1
    11    36    37    2
    12    96    95    1
    13    96    99    1
    14    53    50    1
    15    76    74    1
    16    74    71    1
    17    61    60    2
    18    71    72    1
    19    71    70    1
    20    38    40    1
    21    38    39    1
    22    99   100    1
    23    72    73    2
    24    60    70   am
    25    60    59    1
    26    50    51    1
    27    50    49    1
    28   103   104    1
    29    79    80    2
    30    79    78    1
    31    51    58   am
    32    51    52    2
    33   100   101    1
    34   100   102    1
    35    58    59    1
    36    49    43   am
    37    59    62    1
    38   109   107    1
    39    78    77    1
    40    78    81    1
    41   104   107    1
    42   104   105    1
    43    65    67   ar
    44    65    63   ar
    45    62    63    1
    46    67    68   ar
    47    63    64   ar
    48   107   108    1
    49    43    44    2
    50    43    42    1
    51   106   105    2
    52   105   110   am
    53    81    82    1
    54    68    69    1
    55    68    66   ar
    56    64    66   ar
    57    86    87    1
    58   128   127   ar
    59   128   126   ar
    60    42    45    1
    61    42    41    1
    62   127   125   ar
    63    45    46    1
    64    88    87    1
    65    88    89    2
    66    46    47    1
    67   110   111    1
    68    82    83    1
    69   126   124   ar
    70    87    90    1
    71   125   123   ar
    72   113   112    2
    73    47    48    1
    74   118   119    1
    75   112   111    1
    76    93    92   ar
    77    20    21    1
    78   111   114    1
    79   124   123   ar
    80   123   122    1
    81    24    21    1
    82    83    84   ar
    83    83    85   ar
    84    90    91    1
    85   114   115    1
    86   119   122    1
    87   119   120    1
    88    92    91    1
    89    92    94   ar
    90    21    22    1
    91    23    22    2
    92     7     6    1
    93   120   121    2
    94   115   116   ar
    95   115   117   ar
    96     8     6    1
    97     6     5    1
    98     5     2    1
    99    18    17    1
   100     4     3    2
   101    33    32    1
   102     2     3    1
   103     2     1    1
   104    19    17    1
   105    17    14    1
   106     3     9   am
   107    31    32    1
   108    31    30    1
   109    25    26    1
   110    29    30    1
   111    29    26    1
   112     9    10    1
   113    26    27    1
   114    10    11    1
   115    14    15    1
   116    14    13    1
   117    15    16    2
   118    28    27    2
   119    11    12    2
