@<TRIPOS>MOLECULE
tmp/5n7qA00.pdb
 209 194 0 0 0
SMALL
GASTEIGER

@<TRIPOS>ATOM
      1  N         22.0700   36.4590   62.6870 N.3    15  VAL15      -0.1245
      2  CA        23.4550   36.7700   63.0410 C.3    15  VAL15       0.1561
      3  C         24.3300   35.5380   62.8850 C.2    15  VAL15       0.2260
      4  O         23.8900   34.3990   63.1080 O.2    15  VAL15      -0.2867
      5  CB        23.5850   37.3330   64.4780 C.3    15  VAL15       0.0252
      6  CG1       22.9040   38.6910   64.6410 C.3    15  VAL15       0.0019
      7  CG2       23.0060   36.3860   65.4940 C.3    15  VAL15       0.0019
      8  N         30.8400   38.3840   66.3920 N.3    32  ILE32      -0.1245
      9  CA        30.3370   38.5840   65.0470 C.3    32  ILE32       0.1561
     10  C         31.4740   39.2190   64.2320 C.2    32  ILE32       0.2260
     11  O         32.1090   40.1850   64.6860 O.2    32  ILE32      -0.2867
     12  CB        28.9780   39.3230   65.0470 C.3    32  ILE32       0.0252
     13  CG1       28.4540   39.5090   63.6230 C.3    32  ILE32       0.0019
     14  CG2       29.0190   40.6460   65.7910 C.3    32  ILE32       0.0019
     15  CD1       26.9560   39.7400   63.5940 C.3    32  ILE32       0.0001
     16  N         32.2940   41.4460   61.3550 N.3    34  ASP34      -0.1239
     17  CA        31.4480   42.5460   60.8870 C.3    34  ASP34       0.1674
     18  C         32.2070   43.4310   59.8880 C.2    34  ASP34       0.2266
     19  O         33.0150   44.2840   60.2790 O.2    34  ASP34      -0.2867
     20  CB        30.9960   43.3970   62.1110 C.3    34  ASP34       0.1410
     21  CG        30.2230   44.6250   61.7280 C.2    34  ASP34       0.3668
     22  OD1       29.6080   44.5810   60.6480 O.co2  34  ASP34      -0.2456
     23  OD2       30.1690   45.5560   62.5470 O.co2  34  ASP34      -0.2456
     24  N         31.0580   45.8660   58.3930 N.3    36  GLY36      -0.1210
     25  CA        30.5630   47.2290   58.5800 C.3    36  GLY36       0.1956
     26  C         31.1050   48.0360   59.7210 C.2    36  GLY36       0.2612
     27  O         30.5900   49.1000   59.9990 O.2    36  GLY36      -0.2717
     28  N         32.1640   47.5480   60.3730 N.am   37  SER37      -0.1952
     29  CA        32.8310   48.2790   61.4280 C.3    37  SER37       0.1924
     30  C         34.2730   47.8150   61.4910 C.2    37  SER37       0.2314
     31  O         34.6110   46.8350   60.8360 O.2    37  SER37      -0.2863
     32  CB        32.1150   48.1100   62.7650 C.3    37  SER37       0.2116
     33  OG        32.2860   46.7990   63.2930 O.3    37  SER37      -0.2180
     34  N         31.4460   53.4400   70.6090 N.3    75  ILE75      -0.1231
     35  CA        31.0440   53.1040   69.2420 C.3    75  ILE75       0.1692
     36  C         29.5390   53.0410   69.1810 C.2    75  ILE75       0.2592
     37  O         28.8940   52.4810   70.0930 O.2    75  ILE75      -0.2718
     38  CB        31.6190   51.7600   68.7310 C.3    75  ILE75       0.0266
     39  CG1       33.0930   51.6160   69.0780 C.3    75  ILE75       0.0019
     40  CG2       31.4250   51.6330   67.2210 C.3    75  ILE75       0.0020
     41  CD1       33.6850   50.2550   68.7920 C.3    75  ILE75       0.0001
     42  N         29.0030   53.6030   68.1030 N.am   76  VAL76      -0.1966
     43  CA        27.5810   53.6010   67.8390 C.3    76  VAL76       0.1727
     44  C         27.3240   52.7300   66.6120 C.2    76  VAL76       0.2616
     45  O         27.9170   52.9700   65.5610 O.2    76  VAL76      -0.2715
     46  CB        27.1000   55.0410   67.5870 C.3    76  VAL76       0.0290
     47  CG1       25.5950   55.0950   67.3600 C.3    76  VAL76       0.0023
     48  CG2       27.4370   55.9250   68.7800 C.3    76  VAL76       0.0023
     49  N         26.4390   51.7460   66.7710 N.am   77  TYR77      -0.1960
     50  CA        25.9900   50.9140   65.6660 C.3    77  TYR77       0.1771
     51  C         24.5250   51.1630   65.3520 C.2    77  TYR77       0.2620
     52  O         23.8020   51.7950   66.1310 O.2    77  TYR77      -0.2715
     53  CB        26.1270   49.4480   66.0480 C.3    77  TYR77       0.0574
     54  CG        27.5390   49.0230   66.3940 C.ar   77  TYR77      -0.0198
     55  CD1       28.4410   48.6750   65.4210 C.ar   77  TYR77      -0.0009
     56  CD2       27.9550   48.9570   67.7190 C.ar   77  TYR77      -0.0009
     57  CE1       29.7390   48.2800   65.7400 C.ar   77  TYR77       0.0417
     58  CE2       29.2410   48.5910   68.0510 C.ar   77  TYR77       0.0417
     59  CZ        30.1230   48.2280   67.0880 C.ar   77  TYR77       0.1957
     60  OH        31.3880   47.8720   67.4810 O.3    77  TYR77      -0.2866
     61  N         24.0740   50.6630   64.2120 N.am   78  GLY78      -0.1940
     62  CA        22.6500   50.7190   63.9180 C.3    78  GLY78       0.2014
     63  C         21.7970   50.0700   64.9780 C.2    78  GLY78       0.2639
     64  O         20.7100   50.5780   65.2730 O.2    78  GLY78      -0.2714
     65  N         22.2850   48.9930   65.5950 N.am   79  SER79      -0.1949
     66  CA        21.5010   48.1680   66.5390 C.3    79  SER79       0.1924
     67  C         21.9950   48.1590   67.9730 C.2    79  SER79       0.2314
     68  O         21.5640   47.3400   68.7930 O.2    79  SER79      -0.2863
     69  CB        21.4640   46.7310   66.0010 C.3    79  SER79       0.2116
     70  OG        20.7350   46.7510   64.8140 O.3    79  SER79      -0.2180
     71  N         19.8730   43.8780   70.6670 N.3   113  SER113     -0.1202
     72  CA        20.5780   43.0340   69.7080 C.3   113  SER113      0.2020
     73  C         21.9520   42.6340   70.2250 C.2   113  SER113      0.2618
     74  O         22.4290   41.5650   69.8910 O.2   113  SER113     -0.2717
     75  CB        20.7040   43.7310   68.3580 C.3   113  SER113      0.2103
     76  OG        19.4180   44.0590   67.8350 O.3   113  SER113     -0.2182
     77  N         22.5530   43.4830   71.0600 N.am  114  LEU114     -0.1979
     78  CA        23.8380   43.1700   71.6800 C.3   114  LEU114      0.1596
     79  C         23.6420   42.5250   73.0570 C.2   114  LEU114      0.2287
     80  O         24.3100   41.5360   73.4050 O.2   114  LEU114     -0.2864
     81  CB        24.6880   44.4410   71.8120 C.3   114  LEU114      0.0297
     82  CG        25.0440   45.1300   70.4910 C.3   114  LEU114      0.0022
     83  CD1       25.9410   46.3400   70.7010 C.3   114  LEU114      0.0001
     84  CD2       25.6670   44.1710   69.4710 C.3   114  LEU114      0.0001
     85  N         26.7040   36.0040   71.0250 N.3   119  PHE119     -0.1241
     86  CA        28.1070   36.3870   70.9170 C.3   119  PHE119      0.1605
     87  C         28.4620   37.3800   72.0290 C.2   119  PHE119      0.2264
     88  O         27.5800   38.0380   72.6040 O.2   119  PHE119     -0.2867
     89  CB        28.4210   36.9500   69.5350 C.3   119  PHE119      0.0534
     90  CG        27.4810   38.0350   69.0840 C.ar  119  PHE119     -0.0203
     91  CD1       27.6720   39.3360   69.4890 C.ar  119  PHE119     -0.0042
     92  CD2       26.3760   37.7370   68.2720 C.ar  119  PHE119     -0.0042
     93  CE1       26.8220   40.3560   69.0850 C.ar  119  PHE119     -0.0003
     94  CE2       25.5150   38.7530   67.8640 C.ar  119  PHE119     -0.0003
     95  CZ        25.7370   40.0700   68.2730 C.ar  119  PHE119     -0.0000
     96  N         32.1850   42.0820   68.9960 N.3   122  ILE122     -0.1245
     97  CA        32.2130   42.3140   67.5530 C.3   122  ILE122      0.1561
     98  C         33.6710   42.4290   67.1180 C.2   122  ILE122      0.2260
     99  O         34.4590   43.0270   67.8190 O.2   122  ILE122     -0.2867
    100  CB        31.4700   43.6070   67.1690 C.3   122  ILE122      0.0252
    101  CG1       29.9910   43.5030   67.6040 C.3   122  ILE122      0.0019
    102  CG2       31.6420   43.9120   65.6670 C.3   122  ILE122      0.0019
    103  CD1       29.1510   44.7410   67.3780 C.3   122  ILE122      0.0001
    104  N         37.9120   54.0290   59.4620 N.3   130  ILE130     -0.1245
    105  CA        36.7330   54.2390   60.3330 C.3   130  ILE130      0.1561
    106  C         36.8680   53.6100   61.7260 C.2   130  ILE130      0.2260
    107  O         35.9130   53.6210   62.4800 O.2   130  ILE130     -0.2867
    108  CB        35.4100   53.8050   59.6530 C.3   130  ILE130      0.0252
    109  CG1       35.3770   52.3040   59.4060 C.3   130  ILE130      0.0019
    110  CG2       35.2400   54.5620   58.3440 C.3   130  ILE130      0.0019
    111  CD1       34.0090   51.7690   59.0400 C.3   130  ILE130      0.0001
    112  N         37.3430   53.4640   65.4460 N.3   132  VAL132     -0.1245
    113  CA        37.2490   54.3610   66.5970 C.3   132  VAL132      0.1561
    114  C         38.5840   54.3120   67.3340 C.2   132  VAL132      0.2260
    115  O         39.1680   53.2550   67.5140 O.2   132  VAL132     -0.2867
    116  CB        36.0460   53.9880   67.4730 C.3   132  VAL132      0.0252
    117  CG1       36.0430   54.7600   68.7830 C.3   132  VAL132      0.0019
    118  CG2       34.7520   54.2360   66.7320 C.3   132  VAL132      0.0019
    119  N         33.6440   51.8520   54.9360 N.3   194  TYR194     -0.1241
    120  CA        32.9400   50.6220   54.6470 C.3   194  TYR194      0.1605
    121  C         33.5480   49.9980   53.3910 C.2   194  TYR194      0.2264
    122  O         34.3430   50.6280   52.6680 O.2   194  TYR194     -0.2867
    123  CB        31.4490   50.8650   54.4150 C.3   194  TYR194      0.0534
    124  CG        30.7130   51.6180   55.5160 C.ar  194  TYR194     -0.0201
    125  CD1       30.6340   51.1200   56.8040 C.ar  194  TYR194     -0.0009
    126  CD2       30.0050   52.7850   55.2270 C.ar  194  TYR194     -0.0009
    127  CE1       29.9530   51.7990   57.8040 C.ar  194  TYR194      0.0417
    128  CE2       29.2920   53.4670   56.2090 C.ar  194  TYR194      0.0417
    129  CZ        29.2730   52.9630   57.5020 C.ar  194  TYR194      0.1957
    130  OH        28.5650   53.6570   58.4820 O.3   194  TYR194     -0.2866
    131  N         27.1680   49.1230   50.2930 N.3   223  ILE223     -0.1245
    132  CA        28.2620   48.4530   51.0350 C.3   223  ILE223      0.1561
    133  C         27.9410   46.9790   51.1890 C.2   223  ILE223      0.2260
    134  O         26.7550   46.5930   51.2020 O.2   223  ILE223     -0.2867
    135  CB        28.5490   49.1220   52.4200 C.3   223  ILE223      0.0252
    136  CG1       27.4380   48.8150   53.4480 C.3   223  ILE223      0.0019
    137  CG2       28.7110   50.6400   52.2340 C.3   223  ILE223      0.0019
    138  CD1       27.7190   49.3140   54.8560 C.3   223  ILE223      0.0001
    139  N         28.0390   44.2670   53.9410 N.3   225  ASP225     -0.1239
    140  CA        28.1250   44.2760   55.4130 C.3   225  ASP225      0.1674
    141  C         27.6440   42.9750   56.0270 C.2   225  ASP225      0.2266
    142  O         26.4480   42.7650   56.1990 O.2   225  ASP225     -0.2867
    143  CB        27.3390   45.4280   56.0030 C.3   225  ASP225      0.1410
    144  CG        27.5190   45.5420   57.4820 C.2   225  ASP225      0.3668
    145  OD1       28.3270   44.7890   58.0660 O.co2 225  ASP225     -0.2456
    146  OD2       26.8590   46.4250   58.0880 O.co2 225  ASP225     -0.2456
    147  N         27.6850   42.1630   59.0300 N.3   227  GLY227     -0.1210
    148  CA        27.0570   42.4220   60.3190 C.3   227  GLY227      0.1956
    149  C         25.6670   43.0210   60.2300 C.2   227  GLY227      0.2613
    150  O         25.1310   43.4690   61.2680 O.2   227  GLY227     -0.2717
    151  N         25.1070   43.1060   59.0110 N.am  228  THR228     -0.1938
    152  CA        23.7160   43.5280   58.8320 C.3   228  THR228      0.2028
    153  C         22.9280   42.2980   58.3970 C.2   228  THR228      0.2642
    154  O         23.3700   41.5600   57.5090 O.2   228  THR228     -0.2714
    155  CB        23.6230   44.6950   57.8320 C.3   228  THR228      0.1808
    156  OG1       24.1090   45.8610   58.5260 O.3   228  THR228     -0.2208
    157  CG2       22.1890   44.9470   57.3430 C.3   228  THR228      0.0379
    158  N         21.7480   42.0790   58.9980 N.am  229  SER229     -0.1949
    159  CA        20.9740   40.8870   58.6760 C.3   229  SER229      0.1924
    160  C         20.3010   40.9580   57.3030 C.2   229  SER229      0.2314
    161  O         20.2640   39.9820   56.5380 O.2   229  SER229     -0.2863
    162  CB        19.8590   40.7080   59.7020 C.3   229  SER229      0.2116
    163  OG        20.3820   40.6110   61.0200 O.3   229  SER229     -0.2180
    164  N         19.3830   46.9680   53.5400 N.3   232  THR232     -0.1218
    165  CA        18.8310   48.2960   53.8510 C.3   232  THR232      0.1862
    166  C         18.9710   49.1530   52.6280 C.2   232  THR232      0.2287
    167  O         19.8430   48.9360   51.7910 O.2   232  THR232     -0.2866
    168  CB        19.4520   48.9950   55.0620 C.3   232  THR232      0.1770
    169  OG1       20.7210   49.5720   54.7120 O.3   232  THR232     -0.2211
    170  CG2       19.6940   48.0090   56.2290 C.3   232  THR232      0.0375
    171  N         14.6320   46.7890   54.1790 N.3   301  MET301     -0.1245
    172  CA        14.2770   47.7310   55.2130 C.3   301  MET301      0.1570
    173  C         14.8930   49.1120   54.9480 C.2   301  MET301      0.2261
    174  O         15.9700   49.2350   54.3910 O.2   301  MET301     -0.2867
    175  CB        14.6680   47.1970   56.5830 C.3   301  MET301      0.0387
    176  CG        16.1430   46.9240   56.7520 C.3   301  MET301      0.0595
    177  SD        16.6090   46.5260   58.4520 S.3   301  MET301     -0.1393
    178  CE        16.7460   48.1180   59.2240 C.3   301  MET301      0.0692
    179  N         16.7880   52.6190   55.7670 N.3   303  LEU303     -0.1245
    180  CA        17.7890   53.1880   56.6730 C.3   303  LEU303      0.1561
    181  C         18.4300   54.3990   55.9970 C.2   303  LEU303      0.2260
    182  O         19.0560   54.2800   54.9570 O.2   303  LEU303     -0.2867
    183  CB        18.8540   52.1530   57.0800 C.3   303  LEU303      0.0270
    184  CG        19.9230   52.6860   58.0420 C.3   303  LEU303      0.0019
    185  CD1       19.3500   53.2390   59.3410 C.3   303  LEU303      0.0001
    186  CD2       20.9670   51.6240   58.3600 C.3   303  LEU303      0.0001
    187  N         21.1780   56.8520   55.5600 N.3   305  MET305     -0.1231
    188  CA        22.5980   56.9910   55.8270 C.3   305  MET305      0.1687
    189  C         23.0100   58.4390   55.5170 C.2   305  MET305      0.2434
    190  O         22.2790   59.1490   54.8380 O.2   305  MET305     -0.2733
    191  CB        23.3680   55.9780   54.9950 C.3   305  MET305      0.0400
    192  CG        23.1190   54.5240   55.3800 C.3   305  MET305      0.0596
    193  SD        23.7210   54.0150   57.0100 S.3   305  MET305     -0.1393
    194  CE        25.4720   53.8090   56.6570 C.3   305  MET305      0.0692
    195  N         24.1820   58.8810   56.0010 N.am  306  PRO306     -0.2729
    196  CA        24.6340   60.2730   55.7610 C.3   306  PRO306      0.1401
    197  C         24.6820   60.6760   54.2930 C.2   306  PRO306      0.2269
    198  O         24.2050   61.7560   53.9250 O.2   306  PRO306     -0.2865
    199  CB        26.0290   60.2960   56.3580 C.3   306  PRO306      0.0296
    200  CG        26.0110   59.2490   57.4070 C.3   306  PRO306      0.0237
    201  CD        25.0720   58.1680   56.9290 C.3   306  PRO306      0.0939
    202  N         22.7490   48.9720   52.1200 N.3   311  ILE311     -0.1245
    203  CA        23.6010   48.0070   52.8180 C.3   311  ILE311      0.1561
    204  C         23.1810   46.6060   52.3830 C.2   311  ILE311      0.2260
    205  O         22.0270   46.1860   52.6320 O.2   311  ILE311     -0.2867
    206  CB        23.5160   48.1170   54.3470 C.3   311  ILE311      0.0252
    207  CG1       23.9460   49.5140   54.8570 C.3   311  ILE311      0.0019
    208  CG2       24.3800   47.0250   54.9740 C.3   311  ILE311      0.0019
    209  CD1       23.7760   49.7190   56.3600 C.3   311  ILE311      0.0001
@<TRIPOS>BOND
     1   131   132    1
     2   132   133    1
     3   132   135    1
     4   133   134    2
     5   167   166    2
     6   202   203    1
     7   137   135    1
     8   204   205    2
     9   204   203    1
    10   135   136    1
    11   166   165    1
    12   122   121    2
    13   203   206    1
    14   121   120    1
    15   136   138    1
    16   164   165    1
    17   165   168    1
    18   198   197    2
    19   139   140    1
    20   171   172    1
    21   197   196    1
    22   206   207    1
    23   206   208    1
    24   174   173    2
    25   123   120    1
    26   123   124    1
    27   120   119    1
    28   169   168    1
    29   190   189    2
    30   207   209    1
    31   173   172    1
    32   182   181    2
    33   191   192    1
    34   191   188    1
    35   168   170    1
    36   172   175    1
    37   126   124   ar
    38   126   128   ar
    39   192   193    1
    40   140   143    1
    41   140   141    1
    42   124   125   ar
    43   189   188    1
    44   189   195   am
    45   187   188    1
    46   196   195    1
    47   196   199    1
    48   179   180    1
    49   181   180    1
    50   195   201    1
    51   143   144    1
    52   141   142    2
    53   128   129   ar
    54   199   200    1
    55   161   160    2
    56   175   176    1
    57   194   193    1
    58   180   183    1
    59   176   177    1
    60   125   127   ar
    61   201   200    1
    62   183   184    1
    63   160   159    1
    64   157   155    1
    65   144   145   ar
    66   144   146   ar
    67   129   127   ar
    68   129   130    1
    69   154   153    2
    70   155   156    1
    71   155   152    1
    72   184   186    1
    73   184   185    1
    74   110   108    1
    75    24    25    1
    76   153   152    1
    77   153   158   am
    78   177   178    1
    79    25    26    1
    80   159   158    1
    81   159   162    1
    82   152   151    1
    83   151   149   am
    84   147   148    1
    85   111   109    1
    86   109   108    1
    87   104   105    1
    88   108   105    1
    89   162   163    1
    90    26    27    2
    91    26    28   am
    92    18    19    2
    93    18    17    1
    94   149   148    1
    95   149   150    2
    96   105   106    1
    97    28    29    1
    98    22    21   ar
    99    31    30    2
   100    17    16    1
   101    17    20    1
   102    29    30    1
   103    29    32    1
   104   106   107    2
   105    21    20    1
   106    21    23   ar
   107     1     2    1
   108    32    33    1
   109     3     2    1
   110     3     4    2
   111     2     5    1
   112    15    13    1
   113    13    12    1
   114    62    61    1
   115    62    63    1
   116    61    51   am
   117    10    11    2
   118    10     9    1
   119     5     6    1
   120     5     7    1
   121    70    69    1
   122    63    64    2
   123    63    65   am
   124     9    12    1
   125     9     8    1
   126    12    14    1
   127    51    50    1
   128    51    52    2
   129    55    57   ar
   130    55    54   ar
   131   112   113    1
   132    45    44    2
   133    65    66    1
   134    50    53    1
   135    50    49    1
   136   102   100    1
   137    57    59   ar
   138    69    66    1
   139    53    54    1
   140    54    56   ar
   141    66    67    1
   142   113   114    1
   143   113   116    1
   144    44    49   am
   145    44    43    1
   146   118   116    1
   147    59    60    1
   148    59    58   ar
   149    98    97    1
   150    98    99    2
   151   100    97    1
   152   100   101    1
   153    40    38    1
   154   114   115    2
   155    47    46    1
   156   103   101    1
   157   116   117    1
   158    97    96    1
   159    46    43    1
   160    46    48    1
   161    56    58   ar
   162    76    75    1
   163    43    42    1
   164    94    92   ar
   165    94    95   ar
   166    67    68    2
   167    42    36   am
   168    92    90   ar
   169    95    93   ar
   170    75    72    1
   171    38    39    1
   172    38    35    1
   173    41    39    1
   174    90    91   ar
   175    90    89    1
   176    93    91   ar
   177    36    35    1
   178    36    37    2
   179    35    34    1
   180    84    82    1
   181    89    86    1
   182    72    73    1
   183    72    71    1
   184    74    73    2
   185    73    77   am
   186    82    83    1
   187    82    81    1
   188    86    85    1
   189    86    87    1
   190    77    78    1
   191    78    81    1
   192    78    79    1
   193    87    88    2
   194    79    80    2
