@<TRIPOS>MOLECULE
tmp/5n7uA02.pdb
 102 95 0 0 0
SMALL
GASTEIGER

@<TRIPOS>ATOM
      1  N        132.5350   30.5460   30.7300 N.3    51  LEU51      -0.1231
      2  CA       131.7240   30.7570   29.5340 C.3    51  LEU51       0.1693
      3  C        130.2960   30.2560   29.6790 C.2    51  LEU51       0.2592
      4  O        129.4240   30.6520   28.8910 O.2    51  LEU51      -0.2718
      5  CB       132.3470   29.9990   28.3640 C.3    51  LEU51       0.0284
      6  CG       133.7370   30.4740   27.9880 C.3    51  LEU51       0.0019
      7  CD1      134.3250   29.4920   27.0020 C.3    51  LEU51       0.0001
      8  CD2      133.7320   31.8700   27.4440 C.3    51  LEU51       0.0001
      9  N        130.0500   29.3590   30.6190 N.am   52  GLY52      -0.1957
     10  CA       128.7260   28.8140   30.8400 C.3    52  GLY52       0.1869
     11  C        128.7550   27.9170   32.0590 C.2    52  GLY52       0.2309
     12  O        129.8150   27.4830   32.5180 O.2    52  GLY52      -0.2863
     13  N        131.8310   25.4840   32.0810 N.3    59  VAL59      -0.1245
     14  CA       132.7710   25.5300   30.9690 C.3    59  VAL59       0.1561
     15  C        133.5580   26.8260   31.0940 C.2    59  VAL59       0.2260
     16  O        132.9660   27.9060   31.2320 O.2    59  VAL59      -0.2867
     17  CB       132.0550   25.4530   29.6070 C.3    59  VAL59       0.0252
     18  CG1      133.0680   25.5620   28.5040 C.3    59  VAL59       0.0019
     19  CG2      131.2880   24.1520   29.4830 C.3    59  VAL59       0.0019
     20  N        138.0310   25.6310   25.3330 N.3    72  ALA72      -0.1245
     21  CA       136.9220   25.5930   26.2730 C.3    72  ALA72       0.1562
     22  C        137.0730   24.3310   27.1170 C.2    72  ALA72       0.2260
     23  O        137.1170   23.2270   26.5770 O.2    72  ALA72      -0.2867
     24  CB       135.5920   25.6290   25.5170 C.3    72  ALA72       0.0290
     25  N        131.7590   19.8690   17.9270 N.3   106  VAL106     -0.1245
     26  CA       132.9610   20.4070   18.5540 C.3   106  VAL106      0.1561
     27  C        134.0400   19.3260   18.6850 C.2   106  VAL106      0.2260
     28  O        133.7540   18.1290   18.8230 O.2   106  VAL106     -0.2867
     29  CB       132.6590   21.0700   19.9050 C.3   106  VAL106      0.0252
     30  CG1      132.3140   20.0200   20.9490 C.3   106  VAL106      0.0019
     31  CG2      133.8130   22.0160   20.3040 C.3   106  VAL106      0.0019
     32  N        138.0400   21.2670   24.8520 N.3   122  MET122     -0.1230
     33  CA       137.5270   21.3350   23.4920 C.3   122  MET122      0.1702
     34  C        138.0030   22.6070   22.8120 C.2   122  MET122      0.2592
     35  O        138.3720   23.5830   23.4630 O.2   122  MET122     -0.2718
     36  CB       135.9940   21.3800   23.4930 C.3   122  MET122      0.0401
     37  CG       135.3690   20.1450   24.0110 C.3   122  MET122      0.0596
     38  SD       133.6970   20.4840   24.5100 S.3   122  MET122     -0.1393
     39  CE       133.9430   21.1940   26.1130 C.3   122  MET122      0.0692
     40  N        137.9680   22.5940   21.4840 N.am  123  GLU123     -0.1966
     41  CA       138.2130   23.8170   20.7310 C.3   123  GLU123      0.1733
     42  C        137.2620   24.9150   21.1930 C.2   123  GLU123      0.2616
     43  O        136.0730   24.6780   21.4310 O.2   123  GLU123     -0.2715
     44  CB       138.0150   23.5720   19.2410 C.3   123  GLU123      0.0429
     45  CG       139.0950   22.6900   18.6780 C.3   123  GLU123      0.1163
     46  CD       139.2350   22.7790   17.1750 C.2   123  GLU123      0.3649
     47  OE1      138.3590   23.3780   16.4990 O.co2 123  GLU123     -0.2457
     48  OE2      140.2290   22.2190   16.6850 O.co2 123  GLU123     -0.2457
     49  N        137.8030   26.1210   21.3520 N.am  124  TYR124     -0.1960
     50  CA       137.0110   27.2760   21.7480 C.3   124  TYR124      0.1771
     51  C        136.2750   27.8160   20.5280 C.2   124  TYR124      0.2619
     52  O        136.8690   28.0050   19.4630 O.2   124  TYR124     -0.2715
     53  CB       137.9130   28.3380   22.3710 C.3   124  TYR124      0.0574
     54  CG       137.2090   29.6300   22.7190 C.ar  124  TYR124     -0.0198
     55  CD1      136.0200   29.6350   23.4210 C.ar  124  TYR124     -0.0009
     56  CD2      137.7550   30.8560   22.3660 C.ar  124  TYR124     -0.0009
     57  CE1      135.3890   30.8050   23.7450 C.ar  124  TYR124      0.0417
     58  CE2      137.1400   32.0320   22.6910 C.ar  124  TYR124      0.0417
     59  CZ       135.9420   32.0030   23.3810 C.ar  124  TYR124      0.1957
     60  OH       135.2810   33.1660   23.7000 O.3   124  TYR124     -0.2866
     61  N        134.9740   28.0290   20.6790 N.am  125  VAL125     -0.1977
     62  CA       134.1250   28.5020   19.5850 C.3   125  VAL125      0.1596
     63  C        133.6730   29.9050   19.9720 C.2   125  VAL125      0.2287
     64  O        132.7780   30.0620   20.8150 O.2   125  VAL125     -0.2864
     65  CB       132.9190   27.5780   19.3620 C.3   125  VAL125      0.0276
     66  CG1      132.1380   28.0140   18.1080 C.3   125  VAL125      0.0022
     67  CG2      133.3670   26.1620   19.2290 C.3   125  VAL125      0.0022
     68  N        126.7310   31.3730   21.9420 N.3   129  GLU129     -0.1245
     69  CA       125.6050   30.4680   21.7680 C.3   129  GLU129      0.1567
     70  C        124.5570   31.0480   20.8270 C.2   129  GLU129      0.2260
     71  O        124.2140   32.2330   20.8800 O.2   129  GLU129     -0.2867
     72  CB       124.9280   30.2180   23.1090 C.3   129  GLU129      0.0388
     73  CG       125.8370   29.5580   24.1210 C.3   129  GLU129      0.1160
     74  CD       125.2280   29.4440   25.4910 C.2   129  GLU129      0.3649
     75  OE1      124.0780   29.8940   25.6690 O.co2 129  GLU129     -0.2457
     76  OE2      125.8850   28.9090   26.4060 O.co2 129  GLU129     -0.2457
     77  N        126.8310   26.4550   19.2030 N.3   175  LEU175     -0.1245
     78  CA       127.7310   27.5860   19.2120 C.3   175  LEU175      0.1561
     79  C        127.9510   28.0470   17.7800 C.2   175  LEU175      0.2260
     80  O        127.9090   27.2470   16.8500 O.2   175  LEU175     -0.2867
     81  CB       129.0640   27.1970   19.8370 C.3   175  LEU175      0.0270
     82  CG       128.9520   26.6320   21.2430 C.3   175  LEU175      0.0019
     83  CD1      130.1900   25.8190   21.6840 C.3   175  LEU175      0.0001
     84  CD2      128.7110   27.7880   22.1690 C.3   175  LEU175      0.0001
     85  N        127.8050   21.4180   20.9160 N.3   185  THR185     -0.1218
     86  CA       128.5220   21.0460   22.1000 C.3   185  THR185      0.1862
     87  C        127.5930   20.3280   23.0730 C.2   185  THR185      0.2287
     88  O        126.3720   20.1870   22.8600 O.2   185  THR185     -0.2866
     89  CB       129.1410   22.2790   22.7520 C.3   185  THR185      0.1770
     90  OG1      130.0140   21.8130   23.8080 O.3   185  THR185     -0.2211
     91  CG2      128.0410   23.2920   23.2570 C.3   185  THR185      0.0375
     92  N        129.8310   36.0570   24.8380 N.3   328  PHE328     -0.1241
     93  CA       129.3100   35.2480   25.9270 C.3   328  PHE328      0.1605
     94  C        128.8440   36.1200   27.0810 C.2   328  PHE328      0.2264
     95  O        129.4220   37.1620   27.3920 O.2   328  PHE328     -0.2867
     96  CB       130.3380   34.2440   26.4590 C.3   328  PHE328      0.0534
     97  CG       130.6680   33.1620   25.4760 C.ar  328  PHE328     -0.0203
     98  CD1      129.9850   31.9630   25.4960 C.ar  328  PHE328     -0.0042
     99  CD2      131.6190   33.3760   24.4890 C.ar  328  PHE328     -0.0042
    100  CE1      130.2660   30.9680   24.5490 C.ar  328  PHE328     -0.0003
    101  CE2      131.9100   32.4050   23.5650 C.ar  328  PHE328     -0.0003
    102  CZ       131.2240   31.2030   23.5850 C.ar  328  PHE328     -0.0000
@<TRIPOS>BOND
     1    47    46   ar
     2    48    46   ar
     3    80    79    2
     4    46    45    1
     5    79    78    1
     6    25    26    1
     7    66    65    1
     8    26    27    1
     9    26    29    1
    10    45    44    1
    11    27    28    2
    12    77    78    1
    13    78    81    1
    14    67    65    1
    15    44    41    1
    16    65    62    1
    17    52    51    2
    18    62    63    1
    19    62    61    1
    20    81    82    1
    21    29    31    1
    22    29    30    1
    23    63    64    2
    24    51    61   am
    25    51    50    1
    26    41    42    1
    27    41    40    1
    28    70    71    2
    29    70    69    1
    30    85    86    1
    31    42    49   am
    32    42    43    2
    33    82    83    1
    34    82    84    1
    35    49    50    1
    36    40    34   am
    37    50    53    1
    38    69    68    1
    39    69    72    1
    40    86    89    1
    41    86    87    1
    42    56    58   ar
    43    56    54   ar
    44    53    54    1
    45    58    59   ar
    46    54    55   ar
    47    89    91    1
    48    89    90    1
    49    34    35    2
    50    34    33    1
    51    88    87    2
    52    72    73    1
    53    59    60    1
    54    59    57   ar
    55    55    57   ar
    56    33    36    1
    57    33    32    1
    58    36    37    1
    59   101   102   ar
    60   101    99   ar
    61   102   100   ar
    62    37    38    1
    63    73    74    1
    64    99    97   ar
    65    38    39    1
    66   100    98   ar
    67    92    93    1
    68    20    21    1
    69    97    98   ar
    70    97    96    1
    71    74    75   ar
    72    74    76   ar
    73    24    21    1
    74    93    96    1
    75    93    94    1
    76    21    22    1
    77    23    22    2
    78     7     6    1
    79    94    95    2
    80     8     6    1
    81     6     5    1
    82     5     2    1
    83    18    17    1
    84     4     3    2
    85    19    17    1
    86     2     3    1
    87     2     1    1
    88    17    14    1
    89     3     9   am
    90     9    10    1
    91    10    11    1
    92    14    15    1
    93    14    13    1
    94    15    16    2
    95    11    12    2
