@<TRIPOS>MOLECULE
tmp/5n7vA02.pdb
 152 140 0 0 0
SMALL
GASTEIGER

@<TRIPOS>ATOM
      1  N         44.7070   38.5880   46.7590 N.3    19  GLY19      -0.1210
      2  CA        44.7220   37.1260   46.9620 C.3    19  GLY19       0.1956
      3  C         45.7570   36.4270   46.0910 C.2    19  GLY19       0.2612
      4  O         46.2080   36.9940   45.0940 O.2    19  GLY19      -0.2717
      5  N         46.1200   35.1930   46.4540 N.am   20  GLY20      -0.1956
      6  CA        47.2110   34.4610   45.7870 C.3    20  GLY20       0.1869
      7  C         48.5040   35.2470   45.9300 C.2    20  GLY20       0.2309
      8  O         49.1490   35.2130   46.9800 O.2    20  GLY20      -0.2863
      9  N         48.2310   38.6490   43.8370 N.3    22  SER22      -0.1217
     10  CA        47.6320   39.3680   42.7250 C.3    22  SER22       0.1889
     11  C         46.6450   40.4140   43.2270 C.2    22  SER22       0.2288
     12  O         45.8700   40.1410   44.1350 O.2    22  SER22      -0.2866
     13  CB        46.8950   38.3780   41.8230 C.3    22  SER22       0.2089
     14  OG        45.7170   37.9020   42.4520 O.3    22  SER22      -0.2183
     15  N         43.6230   43.3750   42.0480 N.3    24  VAL24      -0.1245
     16  CA        42.7610   43.8890   40.9990 C.3    24  VAL24       0.1561
     17  C         42.5470   45.3830   41.2120 C.2    24  VAL24       0.2260
     18  O         42.1880   45.7950   42.3000 O.2    24  VAL24      -0.2867
     19  CB        41.4040   43.1680   41.0100 C.3    24  VAL24       0.0252
     20  CG1       40.6120   43.4930   39.7640 C.3    24  VAL24       0.0019
     21  CG2       41.6020   41.6720   41.1000 C.3    24  VAL24       0.0019
     22  N         43.7480   43.1250   36.2830 N.3    38  LYS38      -0.1245
     23  CA        44.2600   42.2030   37.2970 C.3    38  LYS38       0.1561
     24  C         45.7430   41.9850   37.0560 C.2    38  LYS38       0.2260
     25  O         46.1760   41.7440   35.9400 O.2    38  LYS38      -0.2867
     26  CB        43.5070   40.9010   37.2680 C.3    38  LYS38       0.0271
     27  CG        44.1240   39.7500   38.0380 C.3    38  LYS38       0.0035
     28  CD        43.1770   38.5640   37.9120 C.3    38  LYS38       0.0206
     29  CE        43.6770   37.3520   38.6690 C.3    38  LYS38       0.1093
     30  NZ        42.6710   36.2360   38.7400 N.3    38  LYS38      -0.1314
     31  N         49.0850   39.7870   38.2310 N.3    40  VAL40      -0.1245
     32  CA        49.5610   38.5740   38.9370 C.3    40  VAL40       0.1561
     33  C         51.0830   38.5430   38.9120 C.2    40  VAL40       0.2260
     34  O         51.7050   38.8050   37.8860 O.2    40  VAL40      -0.2867
     35  CB        49.0220   37.2680   38.3230 C.3    40  VAL40       0.0252
     36  CG1       49.4360   36.0670   39.1540 C.3    40  VAL40       0.0019
     37  CG2       47.5130   37.3170   38.2100 C.3    40  VAL40       0.0019
     38  N         47.2750   28.9170   34.9330 N.3    53  TYR53      -0.1241
     39  CA        46.9420   30.3230   34.6030 C.3    53  TYR53       0.1605
     40  C         46.8600   30.5560   33.0670 C.2    53  TYR53       0.2264
     41  O         45.9520   31.2110   32.5500 O.2    53  TYR53      -0.2867
     42  CB        47.9910   31.2860   35.1670 C.3    53  TYR53       0.0534
     43  CG        48.1700   31.3720   36.6740 C.ar   53  TYR53      -0.0201
     44  CD1       47.3170   30.7400   37.5640 C.ar   53  TYR53      -0.0009
     45  CD2       49.1900   32.1520   37.1960 C.ar   53  TYR53      -0.0009
     46  CE1       47.4870   30.8720   38.9430 C.ar   53  TYR53       0.0417
     47  CE2       49.3850   32.2810   38.5530 C.ar   53  TYR53       0.0417
     48  CZ        48.5340   31.6510   39.4300 C.ar   53  TYR53       0.1957
     49  OH        48.7480   31.8080   40.7860 O.3    53  TYR53      -0.2866
     50  N         43.5050   29.1730   32.2570 N.3    56  GLU56      -0.1231
     51  CA        42.2700   29.9390   32.4010 C.3    56  GLU56       0.1699
     52  C         42.3090   31.1040   31.4630 C.2    56  GLU56       0.2592
     53  O         41.2820   31.4650   30.8830 O.2    56  GLU56      -0.2718
     54  CB        41.9890   30.4490   33.8000 C.3    56  GLU56       0.0402
     55  CG        40.5930   31.0770   33.8880 C.3    56  GLU56       0.1161
     56  CD        40.0060   31.1320   35.2960 C.2    56  GLU56       0.3649
     57  OE1       40.0770   30.1250   36.0310 O.co2  56  GLU56      -0.2457
     58  OE2       39.4410   32.1910   35.6600 O.co2  56  GLU56      -0.2457
     59  N         43.4680   31.7370   31.3520 N.am   57  ILE57      -0.1980
     60  CA        43.5670   32.8660   30.4610 C.3    57  ILE57       0.1595
     61  C         43.0800   32.4400   29.0600 C.2    57  ILE57       0.2287
     62  O         42.2140   33.0850   28.5020 O.2    57  ILE57      -0.2864
     63  CB        44.9790   33.4460   30.4500 C.3    57  ILE57       0.0276
     64  CG1       45.1890   34.2500   31.7310 C.3    57  ILE57       0.0022
     65  CG2       45.1820   34.3640   29.2490 C.3    57  ILE57       0.0022
     66  CD1       46.6450   34.5110   32.0740 C.3    57  ILE57       0.0001
     67  N         39.2360   31.8830   29.0790 N.3    60  LEU60      -0.1245
     68  CA        38.5050   33.1550   29.1320 C.3    60  LEU60       0.1561
     69  C         38.5630   33.8800   27.7850 C.2    60  LEU60       0.2260
     70  O         37.5790   34.4710   27.3010 O.2    60  LEU60      -0.2867
     71  CB        39.0830   34.0480   30.2220 C.3    60  LEU60       0.0270
     72  CG        38.4810   35.4330   30.3100 C.3    60  LEU60       0.0019
     73  CD1       36.9750   35.3250   30.4610 C.3    60  LEU60       0.0001
     74  CD2       39.1240   36.1700   31.4800 C.3    60  LEU60       0.0001
     75  N         51.6480   38.8020   34.9710 N.3    83  ILE83      -0.1245
     76  CA        50.5900   38.9450   34.0040 C.3    83  ILE83       0.1561
     77  C         49.7660   40.2210   34.2900 C.2    83  ILE83       0.2260
     78  O         49.4960   40.5130   35.4380 O.2    83  ILE83      -0.2867
     79  CB        49.6140   37.7860   34.1200 C.3    83  ILE83       0.0252
     80  CG1       50.3230   36.4480   33.9480 C.3    83  ILE83       0.0019
     81  CG2       48.4820   37.9700   33.1240 C.3    83  ILE83       0.0019
     82  CD1       49.5150   35.2790   34.4970 C.3    83  ILE83       0.0001
     83  N         45.9190   41.6300   33.0550 N.3    85  MET85      -0.1245
     84  CA        44.7090   41.4690   32.2730 C.3    85  MET85       0.1570
     85  C         43.7960   42.6990   32.3030 C.2    85  MET85       0.2261
     86  O         43.3020   43.0860   33.3390 O.2    85  MET85      -0.2867
     87  CB        43.9510   40.2680   32.7540 C.3    85  MET85       0.0387
     88  CG        44.8500   39.0640   32.8410 C.3    85  MET85       0.0595
     89  SD        43.9910   37.6170   33.4370 S.3    85  MET85      -0.1393
     90  CE        45.3560   36.9230   34.3350 C.3    85  MET85       0.0692
     91  N         40.3550   44.0280   31.7830 N.3    87  MET87      -0.1245
     92  CA        39.0080   43.5200   31.7590 C.3    87  MET87       0.1570
     93  C         37.9850   44.6200   31.9150 C.2    87  MET87       0.2261
     94  O         38.2680   45.6910   32.3960 O.2    87  MET87      -0.2867
     95  CB        38.8350   42.4990   32.8740 C.3    87  MET87       0.0387
     96  CG        39.7740   41.3260   32.6920 C.3    87  MET87       0.0595
     97  SD        39.8720   40.2530   34.1260 S.3    87  MET87      -0.1393
     98  CE        38.2830   39.5250   33.9180 C.3    87  MET87       0.0692
     99  N         33.1480   35.3850   36.4910 N.3   148  ILE148     -0.1231
    100  CA        34.4840   35.9680   36.5410 C.3   148  ILE148      0.1692
    101  C         35.5660   34.9110   36.3490 C.2   148  ILE148      0.2592
    102  O         36.5120   35.1390   35.6020 O.2   148  ILE148     -0.2718
    103  CB        34.7750   36.6880   37.8780 C.3   148  ILE148      0.0266
    104  CG1       33.7820   37.7800   38.1810 C.3   148  ILE148      0.0019
    105  CG2       36.1190   37.3800   37.8280 C.3   148  ILE148      0.0020
    106  CD1       33.9190   38.2290   39.6310 C.3   148  ILE148      0.0001
    107  N         35.4700   33.7880   37.0600 N.am  149  ASP149     -0.1974
    108  CA        36.4950   32.7330   36.9460 C.3   149  ASP149      0.1709
    109  C         35.8890   31.3390   36.7330 C.2   149  ASP149      0.2293
    110  O         34.6670   31.1450   36.8600 O.2   149  ASP149     -0.2864
    111  CB        37.3890   32.7230   38.1820 C.3   149  ASP149      0.1436
    112  CG        36.7890   31.9450   39.2930 C.2   149  ASP149      0.3671
    113  OD1       35.5650   32.1000   39.4950 O.co2 149  ASP149     -0.2456
    114  OD2       37.5070   31.1680   39.9440 O.co2 149  ASP149     -0.2456
    115  N         41.0530   27.3360   38.6720 N.3   152  ILE152     -0.1231
    116  CA        42.5290   27.4450   38.6880 C.3   152  ILE152      0.1692
    117  C         42.9540   27.1650   40.1520 C.2   152  ILE152      0.2592
    118  O         42.0890   26.8700   40.9840 O.2   152  ILE152     -0.2718
    119  CB        42.9500   28.8640   38.2220 C.3   152  ILE152      0.0266
    120  CG1       43.2770   28.8750   36.7460 C.3   152  ILE152      0.0019
    121  CG2       44.1620   29.4140   38.9560 C.3   152  ILE152      0.0020
    122  CD1       43.7050   30.2460   36.2680 C.3   152  ILE152      0.0001
    123  N         44.2490   27.2260   40.4890 N.am  153  ALA153     -0.1966
    124  CA        44.6480   27.4520   41.9000 C.3   153  ALA153      0.1728
    125  C         44.3100   28.9040   42.3080 C.2   153  ALA153      0.2616
    126  O         45.2080   29.6790   42.6530 O.2   153  ALA153     -0.2715
    127  CB        46.1330   27.1780   42.1060 C.3   153  ALA153      0.0334
    128  N         43.0120   29.2440   42.2790 N.am  154  ASN154     -0.1958
    129  CA        42.5230   30.6450   42.2430 C.3   154  ASN154      0.1819
    130  C         41.8200   31.0670   43.5280 C.2   154  ASN154      0.2621
    131  O         41.0560   30.2920   44.1060 O.2   154  ASN154     -0.2715
    132  CB        41.5420   30.8360   41.0650 C.3   154  ASN154      0.1195
    133  CG        41.4170   32.2950   40.5950 C.2   154  ASN154      0.2630
    134  OD1       41.8820   33.2310   41.2500 O.2   154  ASN154     -0.2716
    135  ND2       40.7730   32.4840   39.4410 N.am  154  ASN154     -0.0877
    136  N         42.0580   32.3130   43.9400 N.am  155  GLN155     -0.1963
    137  CA        41.5090   32.8460   45.1840 C.3   155  GLN155      0.1733
    138  C         41.4130   34.3780   45.1790 C.2   155  GLN155      0.2616
    139  O         42.3780   35.0690   44.8290 O.2   155  GLN155     -0.2715
    140  CB        42.3800   32.4010   46.3540 C.3   155  GLN155      0.0408
    141  CG        41.6600   32.4240   47.6860 C.3   155  GLN155      0.0908
    142  CD        42.4880   31.8100   48.7900 C.2   155  GLN155      0.2608
    143  OE1       41.9610   31.4310   49.8420 O.2   155  GLN155     -0.2717
    144  NE2       43.7910   31.7110   48.5620 N.am  155  GLN155     -0.0878
    145  N         40.2510   34.8960   45.5820 N.am  156  MET156     -0.1977
    146  CA        40.0160   36.3420   45.6680 C.3   156  MET156      0.1605
    147  C         39.2330   36.7340   46.9300 C.2   156  MET156      0.2287
    148  O         38.6350   35.8910   47.6070 O.2   156  MET156     -0.2864
    149  CB        39.2860   36.8420   44.4110 C.3   156  MET156      0.0413
    150  CG        40.1510   36.9090   43.1550 C.3   156  MET156      0.0598
    151  SD        41.4230   38.1940   43.1970 S.3   156  MET156     -0.1393
    152  CE        42.3880   37.7360   41.7650 C.3   156  MET156      0.0692
@<TRIPOS>BOND
     1    70    69    2
     2    69    68    1
     3    62    61    2
     4    61    60    1
     5    67    68    1
     6    68    71    1
     7    65    63    1
     8    71    72    1
     9    72    73    1
    10    72    74    1
    11    63    60    1
    12    63    64    1
    13    60    59    1
    14    53    52    2
    15    59    52   am
    16    52    51    1
    17    64    66    1
    18    92    91    1
    19    92    93    1
    20    92    95    1
    21    93    94    2
    22    50    51    1
    23    84    85    1
    24    84    87    1
    25    84    83    1
    26    85    86    2
    27    51    54    1
    28    41    40    2
    29    96    95    1
    30    96    97    1
    31    87    88    1
    32    88    89    1
    33    40    39    1
    34    81    79    1
    35    89    90    1
    36    54    55    1
    37    55    56    1
    38    98    97    1
    39    80    79    1
    40    80    82    1
    41    76    79    1
    42    76    77    1
    43    76    75    1
    44    77    78    2
    45    39    38    1
    46    39    42    1
    47    42    43    1
    48    56    58   ar
    49    56    57   ar
    50   102   101    2
    51    25    24    2
    52   122   120    1
    53    22    23    1
    54   101   100    1
    55   101   107   am
    56    99   100    1
    57   100   103    1
    58    43    45   ar
    59    43    44   ar
    60   109   110    2
    61   109   108    1
    62   120   119    1
    63   108   107    1
    64   108   111    1
    65    24    23    1
    66    45    47   ar
    67    26    23    1
    68    26    27    1
    69    44    46   ar
    70   105   103    1
    71   103   104    1
    72    34    33    2
    73    28    27    1
    74    28    29    1
    75   104   106    1
    76   111   112    1
    77    37    35    1
    78   119   116    1
    79   119   121    1
    80    31    32    1
    81    35    32    1
    82    35    36    1
    83    47    48   ar
    84    29    30    1
    85   115   116    1
    86   116   117    1
    87    33    32    1
    88    46    48   ar
    89   112   113   ar
    90   112   114   ar
    91    48    49    1
    92   135   133   am
    93    20    19    1
    94   117   123   am
    95   117   118    2
    96   123   124    1
    97   133   132    1
    98   133   134    2
    99    16    19    1
   100    16    17    1
   101    16    15    1
   102    19    21    1
   103   132   129    1
   104    17    18    2
   105   152   151    1
   106    13    14    1
   107    13    10    1
   108   124   127    1
   109   124   125    1
   110   129   128    1
   111   129   130    1
   112   128   125   am
   113   125   126    2
   114    10    11    1
   115    10     9    1
   116   150   151    1
   117   150   149    1
   118    11    12    2
   119   130   136   am
   120   130   131    2
   121   136   137    1
   122   149   146    1
   123   139   138    2
   124     4     3    2
   125   138   137    1
   126   138   145   am
   127   137   140    1
   128   145   146    1
   129   146   147    1
   130     6     7    1
   131     6     5    1
   132     7     8    2
   133     3     5   am
   134     3     2    1
   135   140   141    1
   136     1     2    1
   137   147   148    2
   138   141   142    1
   139   144   142   am
   140   142   143    2
