@<TRIPOS>MOLECULE
tmp/5n80A00.pdb
 157 154 0 0 0
SMALL
GASTEIGER

@<TRIPOS>ATOM
      1  N        -22.9090    7.9800  -17.1870 N.3   121  PHE121     -0.1241
      2  CA       -22.4700    8.4460  -18.4900 C.3   121  PHE121      0.1605
      3  C        -20.9650    8.6220  -18.4240 C.2   121  PHE121      0.2264
      4  O        -20.4190    8.9900  -17.3850 O.2   121  PHE121     -0.2867
      5  CB       -23.1410    9.7700  -18.9020 C.3   121  PHE121      0.0534
      6  CG       -24.6340    9.6810  -19.0500 C.ar  121  PHE121     -0.0203
      7  CD1      -25.4730    9.9270  -17.9570 C.ar  121  PHE121     -0.0042
      8  CD2      -25.2100    9.3420  -20.2730 C.ar  121  PHE121     -0.0042
      9  CE1      -26.8720    9.8410  -18.0740 C.ar  121  PHE121     -0.0003
     10  CE2      -26.6070    9.2570  -20.4080 C.ar  121  PHE121     -0.0003
     11  CZ       -27.4410    9.5080  -19.3000 C.ar  121  PHE121     -0.0000
     12  N        -31.9480   -2.1040  -32.7440 N.3   187  VAL187     -0.1231
     13  CA       -32.9430   -1.6470  -31.7890 C.3   187  VAL187      0.1692
     14  C        -32.3980   -0.3700  -31.1710 C.2   187  VAL187      0.2593
     15  O        -31.4000   -0.4150  -30.4470 O.2   187  VAL187     -0.2718
     16  CB       -33.2240   -2.7000  -30.7090 C.3   187  VAL187      0.0266
     17  CG1      -34.1540   -2.1270  -29.5930 C.3   187  VAL187      0.0020
     18  CG2      -33.8010   -3.9700  -31.3440 C.3   187  VAL187      0.0020
     19  N        -33.0370    0.7550  -31.4500 N.am  188  GLY188     -0.1942
     20  CA       -32.5890    2.0130  -30.8800 C.3   188  GLY188      0.2014
     21  C        -33.1330    3.1970  -31.6460 C.2   188  GLY188      0.2638
     22  O        -33.7640    3.0590  -32.6980 O.2   188  GLY188     -0.2714
     23  N        -32.8800    4.3830  -31.0880 N.am  189  ARG189     -0.1977
     24  CA       -33.2790    5.6260  -31.7400 C.3   189  ARG189      0.1597
     25  C        -32.4480    5.8300  -32.9990 C.2   189  ARG189      0.2287
     26  O        -31.2670    5.4810  -33.0400 O.2   189  ARG189     -0.2864
     27  CB       -33.1040    6.8130  -30.7840 C.3   189  ARG189      0.0334
     28  CG       -33.9030    6.8150  -29.4820 C.3   189  ARG189      0.0492
     29  CD       -35.4070    6.9620  -29.7270 C.3   189  ARG189      0.2205
     30  NE       -35.7620    8.0970  -30.5690 N.pl3 189  ARG189     -0.0865
     31  CZ       -35.6660    9.3880  -30.2100 C.cat 189  ARG189      0.5346
     32  NH1      -35.1900    9.7700  -29.0350 N.pl3 189  ARG189      0.1354
     33  NH2      -36.0250   10.3300  -31.0760 N.pl3 189  ARG189      0.1354
     34  N        -24.6350   10.4810  -32.7320 N.3   195  GLN195     -0.1231
     35  CA       -24.2200    9.4670  -31.7650 C.3   195  GLN195      0.1698
     36  C        -24.3700    8.0440  -32.3080 C.2   195  GLN195      0.2592
     37  O        -23.5410    7.1690  -32.0010 O.2   195  GLN195     -0.2718
     38  CB       -25.0070    9.6090  -30.4580 C.3   195  GLN195      0.0381
     39  CG       -24.5590    8.5740  -29.4210 C.3   195  GLN195      0.0905
     40  CD       -25.4100    8.5260  -28.1590 C.2   195  GLN195      0.2608
     41  OE1      -26.2850    9.3700  -27.9380 O.2   195  GLN195     -0.2717
     42  NE2      -25.1470    7.5280  -27.3210 N.am  195  GLN195     -0.0878
     43  N        -25.4050    7.7910  -33.1130 N.am  196  LYS196     -0.1980
     44  CA       -25.7940    6.4200  -33.4400 C.3   196  LYS196      0.1596
     45  C        -25.1990    5.9060  -34.7450 C.2   196  LYS196      0.2287
     46  O        -25.0030    4.6890  -34.8840 O.2   196  LYS196     -0.2864
     47  CB       -27.3150    6.3200  -33.5020 C.3   196  LYS196      0.0298
     48  CG       -27.9740    6.6110  -32.1620 C.3   196  LYS196      0.0038
     49  CD       -27.5770    5.5580  -31.1260 C.3   196  LYS196      0.0206
     50  CE       -27.8830    6.0320  -29.7030 C.3   196  LYS196      0.1093
     51  NZ       -27.7810    4.9280  -28.7020 N.3   196  LYS196     -0.1314
     52  N        -36.0370   -1.6220  -35.2560 N.3   217  ILE217     -0.1231
     53  CA       -37.0220   -1.2460  -34.2510 C.3   217  ILE217      0.1692
     54  C        -36.5420    0.0530  -33.6260 C.2   217  ILE217      0.2592
     55  O        -35.5220    0.0600  -32.9210 O.2   217  ILE217     -0.2718
     56  CB       -37.1910   -2.3290  -33.1840 C.3   217  ILE217      0.0266
     57  CG1      -37.5640   -3.6540  -33.8460 C.3   217  ILE217      0.0019
     58  CG2      -38.2210   -1.8700  -32.1430 C.3   217  ILE217      0.0020
     59  CD1      -37.7030   -4.8070  -32.8630 C.3   217  ILE217      0.0001
     60  N        -37.2600    1.1400  -33.8890 N.am  218  GLY218     -0.1957
     61  CA       -36.8760    2.4570  -33.4120 C.3   218  GLY218      0.1869
     62  C        -37.3640    3.5490  -34.3440 C.2   218  GLY218      0.2309
     63  O        -37.8760    3.2980  -35.4350 O.2   218  GLY218     -0.2863
     64  N        -40.9650    3.0930  -33.5970 N.3   244  TRP244     -0.1227
     65  CA       -40.8020    2.8880  -32.1620 C.3   244  TRP244      0.1737
     66  C        -41.7530    1.7920  -31.6760 C.2   244  TRP244      0.2595
     67  O        -42.8830    1.6720  -32.1570 O.2   244  TRP244     -0.2718
     68  CB       -41.0400    4.1870  -31.3890 C.3   244  TRP244      0.0564
     69  CG       -40.7870    3.9990  -29.9130 C.ar  244  TRP244      0.0003
     70  CD1      -39.5650    3.9990  -29.2810 C.ar  244  TRP244      0.0946
     71  CD2      -41.7690    3.7620  -28.8890 C.ar  244  TRP244      0.0152
     72  NE1      -39.7340    3.7760  -27.9310 N.ar  244  TRP244     -0.2442
     73  CE2      -41.0730    3.6290  -27.6630 C.ar  244  TRP244      0.0810
     74  CE3      -43.1710    3.6480  -28.8880 C.ar  244  TRP244      0.0012
     75  CZ2      -41.7330    3.3890  -26.4460 C.ar  244  TRP244      0.0191
     76  CZ3      -43.8250    3.4090  -27.6800 C.ar  244  TRP244      0.0001
     77  CH2      -43.1040    3.2870  -26.4750 C.ar  244  TRP244      0.0015
     78  N        -41.2760    0.9700  -30.7330 N.am  245  GLN245     -0.1965
     79  CA       -42.0580   -0.1200  -30.1580 C.3   245  GLN245      0.1733
     80  C        -41.8500   -0.1150  -28.6570 C.2   245  GLN245      0.2617
     81  O        -40.7070   -0.0580  -28.1930 O.2   245  GLN245     -0.2715
     82  CB       -41.6460   -1.4870  -30.7300 C.3   245  GLN245      0.0408
     83  CG       -41.8380   -1.6030  -32.2210 C.3   245  GLN245      0.0908
     84  CD       -43.3040   -1.7160  -32.5880 C.2   245  GLN245      0.2608
     85  OE1      -44.1010   -2.2730  -31.8340 O.2   245  GLN245     -0.2717
     86  NE2      -43.6680   -1.1910  -33.7530 N.am  245  GLN245     -0.0878
     87  N        -42.9480   -0.1830  -27.9010 N.am  246  SER246     -0.1950
     88  CA       -42.8230   -0.1740  -26.4450 C.3   246  SER246      0.1924
     89  C        -42.1920   -1.4600  -25.9210 C.2   246  SER246      0.2314
     90  O        -41.4820   -1.4350  -24.9080 O.2   246  SER246     -0.2863
     91  CB       -44.1930    0.0400  -25.7970 C.3   246  SER246      0.2116
     92  OG       -45.1140   -0.9550  -26.2130 O.3   246  SER246     -0.2180
     93  N        -39.9560   -3.9360  -27.5910 N.3   248  PRO248     -0.2102
     94  CA       -39.1770   -4.4320  -28.7380 C.3   248  PRO248      0.1504
     95  C        -38.9130   -5.9320  -28.7020 C.2   248  PRO248      0.2575
     96  O        -38.9750   -6.5840  -29.7500 O.2   248  PRO248     -0.2718
     97  CB       -37.8650   -3.6230  -28.6510 C.3   248  PRO248      0.0282
     98  CG       -37.8130   -3.1180  -27.2330 C.3   248  PRO248      0.0208
     99  CD       -39.2220   -2.9250  -26.8080 C.3   248  PRO248      0.0893
    100  N        -38.6330   -6.5070  -27.5250 N.am  249  TRP249     -0.1977
    101  CA       -38.3090   -7.9330  -27.4890 C.3   249  TRP249      0.1640
    102  C        -39.5450   -8.8130  -27.6660 C.2   249  TRP249      0.2290
    103  O        -39.4160   -9.9500  -28.1220 O.2   249  TRP249     -0.2864
    104  CB       -37.5440   -8.2510  -26.2070 C.3   249  TRP249      0.0576
    105  CG       -36.2770   -7.5110  -26.2410 C.ar  249  TRP249      0.0006
    106  CD1      -35.9320   -6.4200  -25.4920 C.ar  249  TRP249      0.0946
    107  CD2      -35.2000   -7.7240  -27.1660 C.ar  249  TRP249      0.0152
    108  NE1      -34.6710   -5.9690  -25.8580 N.ar  249  TRP249     -0.2442
    109  CE2      -34.2090   -6.7510  -26.8880 C.ar  249  TRP249      0.0810
    110  CE3      -34.9710   -8.6520  -28.1900 C.ar  249  TRP249      0.0012
    111  CZ2      -33.0030   -6.6830  -27.6020 C.ar  249  TRP249      0.0191
    112  CZ3      -33.7660   -8.5860  -28.9050 C.ar  249  TRP249      0.0001
    113  CH2      -32.8060   -7.6040  -28.6030 C.ar  249  TRP249      0.0015
    114  N        -21.7360    5.6570  -26.2780 N.3   269  GLU269     -0.1245
    115  CA       -22.9060    5.1500  -25.5640 C.3   269  GLU269      0.1567
    116  C        -22.7280    5.4280  -24.0750 C.2   269  GLU269      0.2260
    117  O        -21.6230    5.2860  -23.5470 O.2   269  GLU269     -0.2867
    118  CB       -23.1050    3.6350  -25.7940 C.3   269  GLU269      0.0388
    119  CG       -23.5750    3.2490  -27.1970 C.3   269  GLU269      0.1160
    120  CD       -25.0480    3.5700  -27.4420 C.2   269  GLU269      0.3649
    121  OE1      -25.8390    3.5740  -26.4780 O.co2 269  GLU269     -0.2457
    122  OE2      -25.4280    3.8160  -28.5970 O.co2 269  GLU269     -0.2457
    123  N        -24.5020    3.6990  -21.5850 N.3   271  PHE271     -0.1241
    124  CA       -24.4220    2.2760  -21.2630 C.3   271  PHE271      0.1605
    125  C        -25.3530    1.5800  -22.2450 C.2   271  PHE271      0.2264
    126  O        -26.5570    1.8500  -22.2410 O.2   271  PHE271     -0.2867
    127  CB       -24.8280    1.9510  -19.8190 C.3   271  PHE271      0.0534
    128  CG       -24.6610    0.4780  -19.4640 C.ar  271  PHE271     -0.0203
    129  CD1      -23.4450   -0.0010  -19.0070 C.ar  271  PHE271     -0.0042
    130  CD2      -25.7130   -0.4230  -19.6290 C.ar  271  PHE271     -0.0042
    131  CE1      -23.2710   -1.3530  -18.7040 C.ar  271  PHE271     -0.0003
    132  CE2      -25.5520   -1.7750  -19.3360 C.ar  271  PHE271     -0.0003
    133  CZ       -24.3310   -2.2460  -18.8730 C.ar  271  PHE271     -0.0000
    134  N        -27.6080   -0.7140  -22.8870 N.3   273  MET273     -0.1230
    135  CA       -28.4760   -1.7320  -22.2940 C.3   273  MET273      0.1702
    136  C        -29.0540   -2.6550  -23.3630 C.2   273  MET273      0.2593
    137  O        -29.3470   -3.8290  -23.0930 O.2   273  MET273     -0.2718
    138  CB       -29.5920   -1.0340  -21.5140 C.3   273  MET273      0.0401
    139  CG       -30.4730   -1.9430  -20.6820 C.3   273  MET273      0.0596
    140  SD       -29.5330   -2.9040  -19.4830 S.3   273  MET273     -0.1393
    141  CE       -28.8770   -1.6050  -18.4450 C.3   273  MET273      0.0692
    142  N        -29.1850   -2.1430  -24.5860 N.am  274  THR274     -0.1953
    143  CA       -29.7090   -2.9330  -25.6930 C.3   274  THR274      0.1897
    144  C        -28.8730   -4.1880  -25.9370 C.2   274  THR274      0.2313
    145  O        -29.4290   -5.2560  -26.2210 O.2   274  THR274     -0.2863
    146  CB       -29.7740   -2.0640  -26.9530 C.3   274  THR274      0.1794
    147  OG1      -30.7770   -1.0480  -26.7900 O.3   274  THR274     -0.2208
    148  CG2      -30.1450   -2.9050  -28.1570 C.3   274  THR274      0.0378
    149  N        -29.6370   -6.7480  -23.1910 N.3   277  GLU277     -0.1245
    150  CA       -30.9310   -7.3440  -23.4770 C.3   277  GLU277      0.1567
    151  C        -30.7890   -8.4380  -24.5230 C.2   277  GLU277      0.2260
    152  O        -31.2340   -9.5720  -24.3140 O.2   277  GLU277     -0.2867
    153  CB       -31.9220   -6.2700  -23.9410 C.3   277  GLU277      0.0388
    154  CG       -32.4250   -5.3690  -22.8230 C.3   277  GLU277      0.1160
    155  CD       -32.9400   -4.0220  -23.3220 C.2   277  GLU277      0.3649
    156  OE1      -33.2210   -3.8770  -24.5370 O.co2 277  GLU277     -0.2457
    157  OE2      -33.0590   -3.0950  -22.5010 O.co2 277  GLU277     -0.2457
@<TRIPOS>BOND
     1    63    62    2
     2    52    53    1
     3    46    45    2
     4    45    44    1
     5    62    61    1
     6    53    54    1
     7    53    56    1
     8    60    54   am
     9    60    61    1
    10    57    56    1
    11    57    59    1
    12    86    84   am
    13    54    55    2
    14    64    65    1
    15    47    44    1
    16    47    48    1
    17    44    43    1
    18    56    58    1
    19    43    36   am
    20    26    25    2
    21    25    24    1
    22    12    13    1
    23    34    35    1
    24    22    21    2
    25    84    83    1
    26    84    85    2
    27    36    37    2
    28    36    35    1
    29    83    82    1
    30    48    49    1
    31    65    66    1
    32    65    68    1
    33    67    66    2
    34    13    14    1
    35    13    16    1
    36    35    38    1
    37    24    23    1
    38    24    27    1
    39    66    78   am
    40    21    23   am
    41    21    20    1
    42    19    14   am
    43    19    20    1
    44    68    69    1
    45    18    16    1
    46    14    15    2
    47    49    50    1
    48    33    31    1
    49    27    28    1
    50    78    79    1
    51    82    79    1
    52    16    17    1
    53    30    31    2
    54    30    29    1
    55    38    39    1
    56    31    32    1
    57    79    80    1
    58    69    70   ar
    59    69    71   ar
    60    96    95    2
    61    29    28    1
    62    50    51    1
    63    39    40    1
    64    70    72   ar
    65   112   113   ar
    66   112   110   ar
    67    71    74   ar
    68    71    73   ar
    69    74    76   ar
    70    94    95    1
    71    94    97    1
    72    94    93    1
    73    95   100   am
    74    80    81    2
    75    80    87   am
    76    97    98    1
    77   113   111   ar
    78   122   120   ar
    79   110   107   ar
    80    40    41    2
    81    40    42   am
    82   148   146    1
    83   103   102    2
    84    72    73   ar
    85    87    88    1
    86    76    77   ar
    87   102   101    1
    88    73    75   ar
    89   111   109   ar
    90    93    99    1
    91   100   101    1
    92   101   104    1
    93   120   119    1
    94   120   121   ar
    95    98    99    1
    96   119   118    1
    97   107   109   ar
    98   107   105   ar
    99   146   147    1
   100   146   143    1
   101   109   108   ar
   102    77    75   ar
   103    88    89    1
   104    88    91    1
   105   114   115    1
   106   105   104    1
   107   105   106   ar
   108   145   144    2
   109    92    91    1
   110   144   143    1
   111    89    90    2
   112   108   106   ar
   113   118   115    1
   114   143   142    1
   115   115   116    1
   116   142   136   am
   117   156   155   ar
   118   151   152    2
   119   151   150    1
   120   116   117    2
   121   153   150    1
   122   153   154    1
   123   150   149    1
   124   136   137    2
   125   136   135    1
   126   155   154    1
   127   155   157   ar
   128   134   135    1
   129   135   138    1
   130   125   126    2
   131   125   124    1
   132   123   124    1
   133   138   139    1
   134   124   127    1
   135   139   140    1
   136    10     8   ar
   137    10    11   ar
   138     8     6   ar
   139   127   128    1
   140   130   128   ar
   141   130   132   ar
   142   140   141    1
   143   128   129   ar
   144   132   133   ar
   145    11     9   ar
   146     6     5    1
   147     6     7   ar
   148   129   131   ar
   149     5     2    1
   150   133   131   ar
   151     2     3    1
   152     2     1    1
   153     3     4    2
   154     9     7   ar
