@<TRIPOS>MOLECULE
tmp/5n81B01.pdb
 83 83 0 0 0
SMALL
GASTEIGER

@<TRIPOS>ATOM
      1  N         22.8420  -43.1240   -4.7480 N.3   323  ILE323     -0.1231
      2  CA        22.0900  -43.2430   -5.9880 C.3   323  ILE323      0.1692
      3  C         20.6780  -43.6560   -5.6250 C.2   323  ILE323      0.2592
      4  O         20.4860  -44.5900   -4.8340 O.2   323  ILE323     -0.2718
      5  CB        22.7100  -44.2830   -6.9370 C.3   323  ILE323      0.0266
      6  CG1       24.1780  -43.9570   -7.2270 C.3   323  ILE323      0.0019
      7  CG2       21.8960  -44.3670   -8.2210 C.3   323  ILE323      0.0020
      8  CD1       24.4020  -42.5690   -7.7500 C.3   323  ILE323      0.0001
      9  N         19.7000  -42.9660   -6.2020 N.am  324  TYR324     -0.1976
     10  CA        18.2910  -43.3160   -6.0930 C.3   324  TYR324      0.1639
     11  C         17.7680  -43.5540   -7.5010 C.2   324  TYR324      0.2290
     12  O         17.8800  -42.6740   -8.3680 O.2   324  TYR324     -0.2864
     13  CB        17.4930  -42.2010   -5.4120 C.3   324  TYR324      0.0560
     14  CG        18.1850  -41.5900   -4.2050 C.ar  324  TYR324     -0.0198
     15  CD1       18.0740  -42.1720   -2.9480 C.ar  324  TYR324     -0.0009
     16  CD2       18.9310  -40.4260   -4.3250 C.ar  324  TYR324     -0.0009
     17  CE1       18.7000  -41.6100   -1.8400 C.ar  324  TYR324      0.0417
     18  CE2       19.5640  -39.8580   -3.2200 C.ar  324  TYR324      0.0417
     19  CZ        19.4450  -40.4550   -1.9860 C.ar  324  TYR324      0.1957
     20  OH        20.0590  -39.8960   -0.8790 O.3   324  TYR324     -0.2866
     21  N         11.1610  -44.9920   -4.8790 N.3   332  LEU332     -0.1231
     22  CA        12.2870  -45.8940   -5.0900 C.3   332  LEU332      0.1693
     23  C         11.8500  -47.2020   -5.7470 C.2   332  LEU332      0.2592
     24  O         10.8130  -47.7720   -5.4020 O.2   332  LEU332     -0.2718
     25  CB        12.9600  -46.1960   -3.7600 C.3   332  LEU332      0.0284
     26  CG        13.5990  -45.0070   -3.0630 C.3   332  LEU332      0.0019
     27  CD1       14.0000  -45.3940   -1.6410 C.3   332  LEU332      0.0001
     28  CD2       14.8140  -44.5640   -3.8630 C.3   332  LEU332      0.0001
     29  N         12.6880  -47.7160   -6.6560 N.am  333  LEU333     -0.1966
     30  CA        12.3330  -48.9180   -7.4090 C.3   333  LEU333      0.1713
     31  C         13.1470  -50.1370   -6.9690 C.2   333  LEU333      0.2458
     32  O         14.3230  -50.0230   -6.6190 O.2   333  LEU333     -0.2730
     33  CB        12.5520  -48.6840   -8.9120 C.3   333  LEU333      0.0310
     34  CG        11.7030  -47.5550   -9.5050 C.3   333  LEU333      0.0022
     35  CD1       12.0330  -47.2920  -10.9730 C.3   333  LEU333      0.0001
     36  CD2       10.2450  -47.9450   -9.3680 C.3   333  LEU333      0.0001
     37  N         12.5490  -51.3250   -7.0110 N.am  334  PRO334     -0.2716
     38  CA        13.2680  -52.5540   -6.6490 C.3   334  PRO334      0.1536
     39  C         14.2260  -52.9950   -7.7520 C.2   334  PRO334      0.2599
     40  O         14.2370  -52.4540   -8.8630 O.2   334  PRO334     -0.2715
     41  CB        12.1300  -53.5670   -6.4800 C.3   334  PRO334      0.0310
     42  CG        11.0910  -53.0930   -7.4760 C.3   334  PRO334      0.0237
     43  CD        11.1460  -51.5790   -7.3920 C.3   334  PRO334      0.0939
     44  N         15.0210  -54.0220   -7.4350 N.am  335  THR335     -0.1951
     45  CA        15.9430  -54.5400   -8.4380 C.3   335  THR335      0.1897
     46  C         15.1590  -54.9880   -9.6670 C.2   335  THR335      0.2313
     47  O         14.0780  -55.5740   -9.5560 O.2   335  THR335     -0.2863
     48  CB        16.7820  -55.6990   -7.8940 C.3   335  THR335      0.1794
     49  OG1       15.9330  -56.8030   -7.5590 O.3   335  THR335     -0.2208
     50  CG2       17.5590  -55.2670   -6.6740 C.3   335  THR335      0.0378
     51  N         18.7050  -51.1680  -10.9410 N.3   383  TRP383     -0.1227
     52  CA        19.5320  -51.9770  -10.0630 C.3   383  TRP383      0.1737
     53  C         19.5130  -53.4260  -10.5170 C.2   383  TRP383      0.2595
     54  O         18.4600  -53.9690  -10.8600 O.2   383  TRP383     -0.2718
     55  CB        19.0230  -51.9130   -8.6230 C.3   383  TRP383      0.0564
     56  CG        19.1810  -50.5830   -7.9360 C.ar  383  TRP383      0.0003
     57  CD1       18.2000  -49.6560   -7.7070 C.ar  383  TRP383      0.0946
     58  CD2       20.3820  -50.0480   -7.3590 C.ar  383  TRP383      0.0152
     59  NE1       18.7170  -48.5800   -7.0320 N.ar  383  TRP383     -0.2442
     60  CE2       20.0500  -48.7930   -6.7990 C.ar  383  TRP383      0.0810
     61  CE3       21.6940  -50.5090   -7.2530 C.ar  383  TRP383      0.0012
     62  CZ2       20.9980  -47.9830   -6.1550 C.ar  383  TRP383      0.0191
     63  CZ3       22.6300  -49.7110   -6.6060 C.ar  383  TRP383      0.0001
     64  CH2       22.2730  -48.4620   -6.0680 C.ar  383  TRP383      0.0015
     65  N         20.6780  -54.0530  -10.4910 N.am  384  LEU384     -0.1966
     66  CA        20.7900  -55.4880  -10.6760 C.3   384  LEU384      0.1728
     67  C         20.7320  -56.1790   -9.3200 C.2   384  LEU384      0.2616
     68  O         20.9930  -55.5750   -8.2750 O.2   384  LEU384     -0.2715
     69  CB        22.0940  -55.8300  -11.3960 C.3   384  LEU384      0.0311
     70  CG        22.2290  -55.1560  -12.7640 C.3   384  LEU384      0.0022
     71  CD1       23.5490  -55.5330  -13.4170 C.3   384  LEU384      0.0001
     72  CD2       21.0410  -55.4890  -13.6760 C.3   384  LEU384      0.0001
     73  N         20.3860  -57.4690   -9.3470 N.am  385  THR385     -0.1951
     74  CA        20.1860  -58.1880   -8.0960 C.3   385  THR385      0.1897
     75  C         21.4530  -58.2520   -7.2540 C.2   385  THR385      0.2313
     76  O         21.3660  -58.5610   -6.0600 O.2   385  THR385     -0.2863
     77  CB        19.6510  -59.6000   -8.3650 C.3   385  THR385      0.1794
     78  OG1       20.5830  -60.3330   -9.1730 O.3   385  THR385     -0.2208
     79  CG2       18.3070  -59.5340   -9.0740 C.3   385  THR385      0.0378
     80  N         23.3630  -55.5600   -6.7010 N.3   387  GLY387     -0.1225
     81  CA        23.6550  -54.2560   -6.1480 C.3   387  GLY387      0.1811
     82  C         24.4550  -53.3360   -7.0410 C.2   387  GLY387      0.2280
     83  O         24.8020  -52.2270   -6.6080 O.2   387  GLY387     -0.2866
@<TRIPOS>BOND
     1    72    70    1
     2    71    70    1
     3    70    69    1
     4    69    66    1
     5    35    34    1
     6    51    52    1
     7    54    53    2
     8    66    65    1
     9    66    67    1
    10    53    65   am
    11    53    52    1
    12    52    55    1
    13    46    47    2
    14    46    45    1
    15    34    36    1
    16    34    33    1
    17    73    67   am
    18    73    74    1
    19    67    68    2
    20    78    77    1
    21    79    77    1
    22    33    30    1
    23    40    39    2
    24    55    56    1
    25    45    48    1
    26    45    44    1
    27    12    11    2
    28    77    74    1
    29     7     5    1
    30    74    75    1
    31    56    57   ar
    32    56    58   ar
    33    48    49    1
    34    48    50    1
    35    39    44   am
    36    39    38    1
    37     8     6    1
    38    57    59   ar
    39    11    10    1
    40    42    43    1
    41    42    41    1
    42    30    31    1
    43    30    29    1
    44    43    37    1
    45    58    61   ar
    46    58    60   ar
    47    75    76    2
    48    61    63   ar
    49     6     5    1
    50    82    83    2
    51    82    81    1
    52    59    60   ar
    53    37    31   am
    54    37    38    1
    55    31    32    2
    56     5     2    1
    57    60    62   ar
    58    80    81    1
    59    29    23   am
    60    38    41    1
    61    63    64   ar
    62     9    10    1
    63     9     3   am
    64    62    64   ar
    65    10    13    1
    66     2     3    1
    67     2     1    1
    68    23    24    2
    69    23    22    1
    70     3     4    2
    71    13    14    1
    72    22    21    1
    73    22    25    1
    74    16    14   ar
    75    16    18   ar
    76    14    15   ar
    77    28    26    1
    78    25    26    1
    79    18    19   ar
    80    26    27    1
    81    15    17   ar
    82    19    17   ar
    83    19    20    1
