@<TRIPOS>MOLECULE
tmp/5n82A01.pdb
 179 174 0 0 0
SMALL
GASTEIGER

@<TRIPOS>ATOM
      1  N         34.5410   43.9660   57.6590 N.3   159  THR159     -0.1218
      2  CA        33.1780   43.4710   57.7780 C.3   159  THR159      0.1862
      3  C         33.1740   42.2490   58.6830 C.2   159  THR159      0.2287
      4  O         34.2160   41.6400   58.9330 O.2   159  THR159     -0.2866
      5  CB        32.5780   43.0890   56.4210 C.3   159  THR159      0.1770
      6  OG1       33.3310   42.0040   55.8620 O.3   159  THR159     -0.2211
      7  CG2       32.5980   44.2820   55.4660 C.3   159  THR159      0.0375
      8  N         31.1440   51.9620   56.0690 N.3   201  PHE201     -0.1227
      9  CA        30.2930   51.2080   55.1550 C.3   201  PHE201      0.1736
     10  C         30.6940   51.5900   53.7340 C.2   201  PHE201      0.2595
     11  O         30.7760   52.7790   53.4230 O.2   201  PHE201     -0.2718
     12  CB        28.8320   51.5650   55.4440 C.3   201  PHE201      0.0547
     13  CG        27.8100   50.7280   54.7250 C.ar  201  PHE201     -0.0202
     14  CD1       28.0590   49.4040   54.3810 C.ar  201  PHE201     -0.0042
     15  CD2       26.5660   51.2690   54.4370 C.ar  201  PHE201     -0.0042
     16  CE1       27.0840   48.6520   53.7460 C.ar  201  PHE201     -0.0003
     17  CE2       25.5910   50.5300   53.7860 C.ar  201  PHE201     -0.0003
     18  CZ        25.8480   49.2150   53.4350 C.ar  201  PHE201     -0.0000
     19  N         30.9780   50.6020   52.8740 N.am  202  ASP202     -0.1960
     20  CA        31.5700   51.0140   51.6030 C.3   202  ASP202      0.1840
     21  C         30.6000   51.7630   50.6910 C.2   202  ASP202      0.2621
     22  O         31.0410   52.3050   49.6720 O.2   202  ASP202     -0.2715
     23  CB        32.2050   49.8210   50.8550 C.3   202  ASP202      0.1450
     24  CG        31.1970   48.8650   50.2530 C.2   202  ASP202      0.3671
     25  OD1       29.9820   49.0090   50.4940 O.co2 202  ASP202     -0.2456
     26  OD2       31.6470   47.9490   49.5080 O.co2 202  ASP202     -0.2456
     27  N         29.3120   51.8550   51.0330 N.am  203  VAL203     -0.1977
     28  CA        28.4540   52.7580   50.2650 C.3   203  VAL203      0.1596
     29  C         29.0280   54.1740   50.2750 C.2   203  VAL203      0.2287
     30  O         28.8730   54.9290   49.3000 O.2   203  VAL203     -0.2864
     31  CB        27.0100   52.7280   50.8020 C.3   203  VAL203      0.0276
     32  CG1       26.1680   53.8040   50.1170 C.3   203  VAL203      0.0022
     33  CG2       26.3840   51.3520   50.5870 C.3   203  VAL203      0.0022
     34  N         31.3390   54.7180   47.3090 N.3   206  TRP206     -0.1241
     35  CA        30.4940   54.9710   46.1500 C.3   206  TRP206      0.1605
     36  C         30.0080   56.4180   46.1270 C.2   206  TRP206      0.2264
     37  O         30.1370   57.1010   45.1100 O.2   206  TRP206     -0.2867
     38  CB        29.3520   53.9470   46.1920 C.3   206  TRP206      0.0550
     39  CG        28.0360   54.2080   45.5060 C.ar  206  TRP206      0.0003
     40  CD1       26.9890   54.9380   45.9890 C.ar  206  TRP206      0.0946
     41  CD2       27.5750   53.5990   44.2990 C.ar  206  TRP206      0.0152
     42  NE1       25.9240   54.8790   45.1150 N.ar  206  TRP206     -0.2442
     43  CE2       26.2550   54.0510   44.0750 C.ar  206  TRP206      0.0810
     44  CE3       28.1560   52.7290   43.3710 C.ar  206  TRP206      0.0012
     45  CZ2       25.5130   53.6780   42.9490 C.ar  206  TRP206      0.0191
     46  CZ3       27.4150   52.3550   42.2520 C.ar  206  TRP206      0.0001
     47  CH2       26.1040   52.8220   42.0590 C.ar  206  TRP206      0.0015
     48  N         20.4760   50.8790   48.0020 N.3   268  ALA268     -0.1231
     49  CA        21.5370   49.8840   47.9900 C.3   268  ALA268      0.1694
     50  C         21.5710   49.1670   49.3280 C.2   268  ALA268      0.2593
     51  O         21.0910   49.6870   50.3430 O.2   268  ALA268     -0.2718
     52  CB        22.9030   50.5190   47.7180 C.3   268  ALA268      0.0304
     53  N         22.1540   47.9600   49.3150 N.am  269  GLY269     -0.1942
     54  CA        22.5060   47.2290   50.5240 C.3   269  GLY269      0.2014
     55  C         21.4700   46.2310   51.0070 C.2   269  GLY269      0.2640
     56  O         21.8230   45.2550   51.6800 O.2   269  GLY269     -0.2714
     57  N         20.2000   46.4700   50.7060 N.am  270  SER270     -0.1935
     58  CA        19.1250   45.6140   51.1770 C.3   270  SER270      0.2055
     59  C         18.0660   45.5480   50.0930 C.2   270  SER270      0.2642
     60  O         17.9940   46.4160   49.2180 O.2   270  SER270     -0.2714
     61  CB        18.5290   46.1450   52.4900 C.3   270  SER270      0.2130
     62  OG        19.5020   46.1080   53.5210 O.3   270  SER270     -0.2179
     63  N         17.2370   44.5120   50.1620 N.am  271  ALA271     -0.1977
     64  CA        16.2140   44.3190   49.1440 C.3   271  ALA271      0.1597
     65  C         15.2180   45.4720   49.1390 C.2   271  ALA271      0.2287
     66  O         14.7070   45.8820   50.1870 O.2   271  ALA271     -0.2864
     67  CB        15.4870   42.9960   49.3790 C.3   271  ALA271      0.0319
     68  N         18.2160   50.5290   41.6520 N.3   288  ASN288     -0.1225
     69  CA        18.5550   49.5300   42.6650 C.3   288  ASN288      0.1785
     70  C         19.9970   49.1120   42.4020 C.2   288  ASN288      0.2597
     71  O         20.3170   48.6800   41.2920 O.2   288  ASN288     -0.2718
     72  CB        17.6080   48.3280   42.5690 C.3   288  ASN288      0.1169
     73  CG        17.8250   47.3090   43.6810 C.2   288  ASN288      0.2627
     74  OD1       18.4200   47.6160   44.7120 O.2   288  ASN288     -0.2716
     75  ND2       17.3320   46.0930   43.4720 N.am  288  ASN288     -0.0877
     76  N         20.8750   49.2640   43.3890 N.am  289  ALA289     -0.1966
     77  CA        22.2880   48.9500   43.2060 C.3   289  ALA289      0.1728
     78  C         22.7010   47.8500   44.1730 C.2   289  ALA289      0.2616
     79  O         22.4660   47.9700   45.3790 O.2   289  ALA289     -0.2715
     80  CB        23.1550   50.2000   43.4160 C.3   289  ALA289      0.0334
     81  N         23.3280   46.7930   43.6430 N.am  290  TYR290     -0.1960
     82  CA        23.6860   45.6060   44.4090 C.3   290  TYR290      0.1771
     83  C         25.1850   45.3400   44.3520 C.2   290  TYR290      0.2620
     84  O         25.8200   45.4630   43.3000 O.2   290  TYR290     -0.2715
     85  CB        22.9410   44.3490   43.8880 C.3   290  TYR290      0.0574
     86  CG        23.6600   43.0360   44.2110 C.ar  290  TYR290     -0.0198
     87  CD1       23.4120   42.3580   45.3900 C.ar  290  TYR290     -0.0009
     88  CD2       24.5980   42.4960   43.3240 C.ar  290  TYR290     -0.0009
     89  CE1       24.0830   41.1650   45.6990 C.ar  290  TYR290      0.0417
     90  CE2       25.2730   41.3250   43.6170 C.ar  290  TYR290      0.0417
     91  CZ        25.0100   40.6620   44.8000 C.ar  290  TYR290      0.1957
     92  OH        25.6870   39.4890   45.0800 O.3   290  TYR290     -0.2866
     93  N         25.7420   44.8900   45.4700 N.am  291  GLY291     -0.1940
     94  CA        27.0640   44.3190   45.4340 C.3   291  GLY291      0.1998
     95  C         27.5010   43.8800   46.8120 C.2   291  GLY291      0.2481
     96  O         26.9680   44.3420   47.8260 O.2   291  GLY291     -0.2729
     97  N         28.4740   42.9790   46.8720 N.am  292  PRO292     -0.2715
     98  CA        29.1550   42.6830   48.1360 C.3   292  PRO292      0.1536
     99  C         30.2930   43.6720   48.3360 C.2   292  PRO292      0.2599
    100  O         30.7680   44.3020   47.3910 O.2   292  PRO292     -0.2715
    101  CB        29.7060   41.2700   47.9010 C.3   292  PRO292      0.0310
    102  CG        30.0950   41.3170   46.4410 C.3   292  PRO292      0.0237
    103  CD        29.0300   42.1850   45.7580 C.3   292  PRO292      0.0939
    104  N         30.7200   43.8160   49.5990 N.am  293  THR293     -0.1937
    105  CA        31.8760   44.6790   49.8520 C.3   293  THR293      0.2028
    106  C         33.0840   44.2350   49.0250 C.2   293  THR293      0.2642
    107  O         33.9140   45.0580   48.6240 O.2   293  THR293     -0.2714
    108  CB        32.1760   44.6930   51.3570 C.3   293  THR293      0.1808
    109  OG1       31.1020   45.3640   52.0180 O.3   293  THR293     -0.2208
    110  CG2       33.4660   45.4410   51.6610 C.3   293  THR293      0.0379
    111  N         33.1600   42.9440   48.6950 N.am  294  GLU294     -0.1976
    112  CA        34.3120   42.3960   48.0000 C.3   294  GLU294      0.1602
    113  C         34.4370   42.8540   46.5420 C.2   294  GLU294      0.2287
    114  O         35.4410   42.5320   45.8930 O.2   294  GLU294     -0.2864
    115  CB        34.2570   40.8600   48.0950 C.3   294  GLU294      0.0415
    116  CG        34.5660   40.2690   49.4900 C.3   294  GLU294      0.1163
    117  CD        33.3750   40.2250   50.4570 C.2   294  GLU294      0.3649
    118  OE1       32.2950   40.7570   50.1380 O.co2 294  GLU294     -0.2457
    119  OE2       33.5220   39.6440   51.5680 O.co2 294  GLU294     -0.2457
    120  N         32.6580   46.1750   45.9000 N.3   296  LEU296     -0.1231
    121  CA        31.9000   47.4070   46.1100 C.3   296  LEU296      0.1693
    122  C         30.5000   47.2670   45.5230 C.2   296  LEU296      0.2591
    123  O         29.5150   47.1560   46.2650 O.2   296  LEU296     -0.2718
    124  CB        32.6300   48.6220   45.5080 C.3   296  LEU296      0.0284
    125  CG        31.9000   49.9570   45.6800 C.3   296  LEU296      0.0019
    126  CD1       31.6920   50.2590   47.1520 C.3   296  LEU296      0.0001
    127  CD2       32.6560   51.0970   44.9790 C.3   296  LEU296      0.0001
    128  N         30.3990   47.2610   44.1970 N.am  297  VAL297     -0.1980
    129  CA        29.1160   47.2100   43.5050 C.3   297  VAL297      0.1595
    130  C         29.2690   46.3120   42.2830 C.2   297  VAL297      0.2287
    131  O         30.2950   46.3430   41.5960 O.2   297  VAL297     -0.2864
    132  CB        28.6310   48.6220   43.1040 C.3   297  VAL297      0.0276
    133  CG1       29.6420   49.2810   42.1920 C.3   297  VAL297      0.0022
    134  CG2       27.2630   48.5610   42.4100 C.3   297  VAL297      0.0022
    135  N         17.8310   43.0340   40.6930 N.3   315  ILE315     -0.1245
    136  CA        19.0680   43.7800   40.9260 C.3   315  ILE315      0.1561
    137  C         19.7540   44.1540   39.6140 C.2   315  ILE315      0.2260
    138  O         20.7400   44.9060   39.6350 O.2   315  ILE315     -0.2867
    139  CB        20.0510   43.0380   41.8590 C.3   315  ILE315      0.0252
    140  CG1       20.3190   41.6100   41.3720 C.3   315  ILE315      0.0019
    141  CG2       19.5130   43.0260   43.3170 C.3   315  ILE315      0.0019
    142  CD1       21.4110   40.9110   42.1530 C.3   315  ILE315      0.0001
    143  N         29.8060   34.9150   46.1310 N.3   378  THR378     -0.1218
    144  CA        29.1570   35.8440   47.0590 C.3   378  THR378      0.1862
    145  C         28.3970   35.1540   48.1820 C.2   378  THR378      0.2287
    146  O         28.1650   35.7790   49.2230 O.2   378  THR378     -0.2866
    147  CB        28.1620   36.7580   46.3500 C.3   378  THR378      0.1770
    148  OG1       27.0780   35.9700   45.8350 O.3   378  THR378     -0.2211
    149  CG2       28.8210   37.5770   45.2200 C.3   378  THR378      0.0375
    150  N         25.3140   34.7060   47.7650 N.3   380  ASP380     -0.1239
    151  CA        23.9700   35.1560   47.4390 C.3   380  ASP380      0.1674
    152  C         23.3260   34.2280   46.4170 C.2   380  ASP380      0.2266
    153  O         23.9820   33.7640   45.4760 O.2   380  ASP380     -0.2867
    154  CB        23.9850   36.5770   46.8660 C.3   380  ASP380      0.1410
    155  CG        24.3990   37.6300   47.8920 C.2   380  ASP380      0.3668
    156  OD1       24.0140   37.5060   49.0800 O.co2 380  ASP380     -0.2456
    157  OD2       25.0900   38.6010   47.4950 O.co2 380  ASP380     -0.2456
    158  N         17.5320   38.8470   42.6380 N.3   392  PHE392     -0.1241
    159  CA        18.1810   38.4900   43.8980 C.3   392  PHE392      0.1605
    160  C         17.2210   37.6910   44.7780 C.2   392  PHE392      0.2264
    161  O         16.0570   38.0670   44.9370 O.2   392  PHE392     -0.2867
    162  CB        18.6350   39.7650   44.6180 C.3   392  PHE392      0.0534
    163  CG        19.2500   39.5280   45.9710 C.ar  392  PHE392     -0.0203
    164  CD1       18.5100   39.7300   47.1290 C.ar  392  PHE392     -0.0042
    165  CD2       20.5800   39.1560   46.0900 C.ar  392  PHE392     -0.0042
    166  CE1       19.0790   39.5380   48.3850 C.ar  392  PHE392     -0.0003
    167  CE2       21.1570   38.9590   47.3350 C.ar  392  PHE392     -0.0003
    168  CZ        20.3990   39.1440   48.4920 C.ar  392  PHE392     -0.0000
    169  N         20.1430   34.3780   50.3830 N.3   395  ARG395     -0.1245
    170  CA        21.4060   33.6910   50.6020 C.3   395  ARG395      0.1563
    171  C         21.2770   32.2240   50.2200 C.2   395  ARG395      0.2260
    172  O         20.2220   31.6110   50.4140 O.2   395  ARG395     -0.2867
    173  CB        21.8460   33.8010   52.0710 C.3   395  ARG395      0.0307
    174  CG        22.0260   35.2310   52.5720 C.3   395  ARG395      0.0489
    175  CD        23.2530   35.9240   51.9650 C.3   395  ARG395      0.2205
    176  NE        24.5020   35.3270   52.4290 N.pl3 395  ARG395     -0.0865
    177  CZ        25.7020   35.5440   51.8930 C.cat 395  ARG395      0.5346
    178  NH1       25.8460   36.3550   50.8460 N.pl3 395  ARG395      0.1354
    179  NH2       26.7670   34.9260   52.4020 N.pl3 395  ARG395      0.1354
@<TRIPOS>BOND
     1   137   138    2
     2   137   136    1
     3   135   136    1
     4   136   139    1
     5    71    70    2
     6   140   139    1
     7   140   142    1
     8   131   130    2
     9    68    69    1
    10   139   141    1
    11    47    46   ar
    12    47    45   ar
    13   133   132    1
    14    46    44   ar
    15   130   129    1
    16    70    69    1
    17    70    76   am
    18   134   132    1
    19    72    69    1
    20    72    73    1
    21   158   159    1
    22    45    43   ar
    23   132   129    1
    24    77    76    1
    25    77    80    1
    26    77    78    1
    27    84    83    2
    28    88    90   ar
    29    88    86   ar
    30    44    41   ar
    31    75    73   am
    32   129   128    1
    33    90    91   ar
    34    81    78   am
    35    81    82    1
    36    73    74    2
    37    85    86    1
    38    85    82    1
    39   159   162    1
    40   159   160    1
    41    43    41   ar
    42    43    42   ar
    43    78    79    2
    44   128   122   am
    45    86    87   ar
    46    41    39   ar
    47    83    82    1
    48    83    93   am
    49   162   163    1
    50   160   161    2
    51    91    92    1
    52    91    89   ar
    53   127   125    1
    54    37    36    2
    55    42    40   ar
    56   149   147    1
    57    87    89   ar
    58    94    93    1
    59    94    95    1
    60   153   152    2
    61    39    40   ar
    62    39    38    1
    63   124   125    1
    64   124   121    1
    65   122   121    1
    66   122   123    2
    67   125   126    1
    68   103   102    1
    69   103    97    1
    70   148   147    1
    71   114   113    2
    72   120   121    1
    73   163   165   ar
    74   163   164   ar
    75   165   167   ar
    76    36    35    1
    77   143   144    1
    78    35    38    1
    79    35    34    1
    80   147   144    1
    81   152   151    1
    82   102   101    1
    83   113   112    1
    84    95    97   am
    85    95    96    2
    86   154   151    1
    87   154   155    1
    88    97    98    1
    89   144   145    1
    90   164   166   ar
    91   167   168   ar
    92   100    99    2
    93   151   150    1
    94   157   155   ar
    95    52    49    1
    96   155   156   ar
    97   101    98    1
    98    49    48    1
    99    49    50    1
   100   112   115    1
   101   112   111    1
   102   115   116    1
   103    98    99    1
   104   145   146    2
   105    99   104   am
   106   166   168   ar
   107   107   106    2
   108   111   106   am
   109   106   105    1
   110    65    64    1
   111    65    66    2
   112    64    67    1
   113    64    63    1
   114    60    59    2
   115    30    29    2
   116    53    50   am
   117    53    54    1
   118    50    51    2
   119   116   117    1
   120    26    24   ar
   121   104   105    1
   122    22    21    2
   123   105   108    1
   124    59    63   am
   125    59    58    1
   126    32    31    1
   127   118   117   ar
   128   171   172    2
   129   171   170    1
   130    24    25   ar
   131    24    23    1
   132    28    29    1
   133    28    31    1
   134    28    27    1
   135   169   170    1
   136   117   119   ar
   137    54    55    1
   138    33    31    1
   139   170   173    1
   140    21    27   am
   141    21    20    1
   142    57    55   am
   143    57    58    1
   144   178   177    1
   145    23    20    1
   146    55    56    2
   147    58    61    1
   148   108   110    1
   149   108   109    1
   150    20    19    1
   151   177   179    1
   152   177   176    2
   153   175   176    1
   154   175   174    1
   155   173   174    1
   156    61    62    1
   157    19    10   am
   158    11    10    2
   159    18    16   ar
   160    18    17   ar
   161    10     9    1
   162    16    14   ar
   163    17    15   ar
   164    14    13   ar
   165    15    13   ar
   166    13    12    1
   167     9    12    1
   168     9     8    1
   169     7     5    1
   170     6     5    1
   171     5     2    1
   172     1     2    1
   173     2     3    1
   174     3     4    2
