@<TRIPOS>MOLECULE
tmp/5n84A01.pdb
 97 89 0 0 0
SMALL
GASTEIGER

@<TRIPOS>ATOM
      1  N         48.7860   39.0440   43.5290 N.3    22  SER22      -0.1217
      2  CA        47.8510   39.6740   42.6100 C.3    22  SER22       0.1889
      3  C         47.2310   40.9960   43.1150 C.2    22  SER22       0.2288
      4  O         46.8490   41.1030   44.2670 O.2    22  SER22      -0.2866
      5  CB        46.7540   38.6860   42.3210 C.3    22  SER22       0.2089
      6  OG        45.9150   39.2400   41.3510 O.3    22  SER22      -0.2183
      7  N         44.1420   43.7200   36.1640 N.3    38  LYS38      -0.1245
      8  CA        44.7440   42.8090   37.1010 C.3    38  LYS38       0.1561
      9  C         46.2050   42.6340   36.8040 C.2    38  LYS38       0.2260
     10  O         46.6040   42.5220   35.6390 O.2    38  LYS38      -0.2867
     11  CB        44.0350   41.4750   37.0180 C.3    38  LYS38       0.0271
     12  CG        44.5240   40.5230   38.0690 C.3    38  LYS38       0.0035
     13  CD        43.5240   39.4300   38.3460 C.3    38  LYS38       0.0206
     14  CE        44.1670   38.0660   38.2310 C.3    38  LYS38       0.1093
     15  NZ        43.1620   36.9600   38.2600 N.3    38  LYS38      -0.1314
     16  N         49.5310   40.3990   38.0780 N.3    40  VAL40      -0.1245
     17  CA        49.9660   39.2360   38.8070 C.3    40  VAL40       0.1561
     18  C         51.4680   39.2640   38.7110 C.2    40  VAL40       0.2260
     19  O         52.0530   39.5130   37.6470 O.2    40  VAL40      -0.2867
     20  CB        49.4440   37.9180   38.2510 C.3    40  VAL40       0.0252
     21  CG1       49.7890   36.7860   39.1920 C.3    40  VAL40       0.0019
     22  CG2       47.9390   37.9290   38.0080 C.3    40  VAL40       0.0019
     23  N         47.5810   29.4850   35.5730 N.3    53  TYR53      -0.1241
     24  CA        47.2790   30.8470   35.1390 C.3    53  TYR53       0.1605
     25  C         47.1030   31.0470   33.6260 C.2    53  TYR53       0.2264
     26  O         46.2330   31.8050   33.1810 O.2    53  TYR53      -0.2867
     27  CB        48.3850   31.7910   35.5710 C.3    53  TYR53       0.0534
     28  CG        48.5630   31.9870   37.0250 C.ar   53  TYR53      -0.0201
     29  CD1       47.7020   31.4650   37.9290 C.ar   53  TYR53      -0.0009
     30  CD2       49.6470   32.7390   37.4970 C.ar   53  TYR53      -0.0009
     31  CE1       47.8870   31.6650   39.2900 C.ar   53  TYR53       0.0417
     32  CE2       49.8530   32.9510   38.8400 C.ar   53  TYR53       0.0417
     33  CZ        48.9620   32.4130   39.7470 C.ar   53  TYR53       0.1957
     34  OH        49.1300   32.5940   41.1120 O.3    53  TYR53      -0.2866
     35  N         43.7010   29.4930   32.5410 N.3    56  GLU56      -0.1231
     36  CA        42.5350   30.2980   32.8020 C.3    56  GLU56       0.1699
     37  C         42.4720   31.4740   31.7800 C.2    56  GLU56       0.2592
     38  O         41.4420   31.9310   31.3910 O.2    56  GLU56      -0.2718
     39  CB        42.5860   30.8560   34.2190 C.3    56  GLU56       0.0402
     40  CG        41.4450   31.7950   34.5960 C.3    56  GLU56       0.1161
     41  CD        40.5830   31.2930   35.7600 C.2    56  GLU56       0.3649
     42  OE1       41.1020   31.0980   36.8500 O.co2  56  GLU56      -0.2457
     43  OE2       39.3680   31.1560   35.6210 O.co2  56  GLU56      -0.2457
     44  N         43.5850   32.0180   31.4140 N.am   57  ILE57      -0.1980
     45  CA        43.5560   33.1540   30.5410 C.3    57  ILE57       0.1595
     46  C         43.0830   32.6960   29.1230 C.2    57  ILE57       0.2287
     47  O         42.2410   33.3280   28.5540 O.2    57  ILE57      -0.2864
     48  CB        44.9550   33.7600   30.5260 C.3    57  ILE57       0.0276
     49  CG1       45.1770   34.5690   31.8760 C.3    57  ILE57       0.0022
     50  CG2       45.1220   34.6270   29.3080 C.3    57  ILE57       0.0022
     51  CD1       46.5940   34.7870   32.3540 C.3    57  ILE57       0.0001
     52  N         39.3760   32.2400   29.4110 N.3    60  LEU60      -0.1245
     53  CA        38.5930   33.4650   29.4560 C.3    60  LEU60       0.1561
     54  C         38.5770   34.1620   28.0380 C.2    60  LEU60       0.2260
     55  O         37.6090   34.6880   27.5940 O.2    60  LEU60      -0.2867
     56  CB        39.2020   34.4260   30.4020 C.3    60  LEU60       0.0270
     57  CG        38.4140   35.7150   30.6070 C.3    60  LEU60       0.0019
     58  CD1       36.9830   35.4660   31.0440 C.3    60  LEU60       0.0001
     59  CD2       39.1310   36.5150   31.7080 C.3    60  LEU60       0.0001
     60  N         51.9060   39.2280   34.7760 N.3    83  ILE83      -0.1245
     61  CA        50.7410   39.3940   33.9380 C.3    83  ILE83       0.1561
     62  C         49.9730   40.7000   34.1980 C.2    83  ILE83       0.2260
     63  O         49.7150   41.0850   35.3710 O.2    83  ILE83      -0.2867
     64  CB        49.7890   38.2450   34.2100 C.3    83  ILE83       0.0252
     65  CG1       50.5290   36.9190   34.0300 C.3    83  ILE83       0.0019
     66  CG2       48.6260   38.3410   33.2510 C.3    83  ILE83       0.0019
     67  CD1       49.6720   35.7120   34.3510 C.3    83  ILE83       0.0001
     68  N         46.2060   42.0950   32.9040 N.3    85  MET85      -0.1245
     69  CA        45.0090   41.7970   32.1920 C.3    85  MET85       0.1570
     70  C         44.1050   42.9910   32.2200 C.2    85  MET85       0.2261
     71  O         43.6290   43.4210   33.2950 O.2    85  MET85      -0.2867
     72  CB        44.2970   40.6000   32.8610 C.3    85  MET85       0.0387
     73  CG        45.0910   39.3320   32.6450 C.3    85  MET85       0.0595
     74  SD        44.6290   37.9060   33.6460 S.3    85  MET85      -0.1393
     75  CE        42.9830   37.6000   33.1000 C.3    85  MET85       0.0692
     76  N         42.7200   28.8480   37.8260 N.3   153  ALA153     -0.1231
     77  CA        43.9670   29.3460   38.4200 C.3   153  ALA153      0.1694
     78  C         44.1460   28.8900   39.8520 C.2   153  ALA153      0.2592
     79  O         43.1840   28.9030   40.5680 O.2   153  ALA153     -0.2718
     80  CB        43.9990   30.8440   38.4230 C.3   153  ALA153      0.0304
     81  N         45.3870   28.5730   40.2450 N.am  154  ASN154     -0.1960
     82  CA        45.6960   28.1620   41.6360 C.3   154  ASN154      0.1819
     83  C         45.3030   29.1710   42.7230 C.2   154  ASN154      0.2621
     84  O         45.0780   30.3360   42.4280 O.2   154  ASN154     -0.2715
     85  CB        47.1960   27.8920   41.7850 C.3   154  ASN154      0.1195
     86  CG        47.6120   26.5230   41.2600 C.2   154  ASN154      0.2630
     87  OD1       46.7890   25.6570   41.0160 O.2   154  ASN154     -0.2716
     88  ND2       48.9130   26.3200   41.1130 N.am  154  ASN154     -0.0877
     89  N         45.2710   28.6870   43.9750 N.am  155  GLN155     -0.1977
     90  CA        45.1300   29.4810   45.2390 C.3   155  GLN155      0.1601
     91  C         43.6520   29.7060   45.5190 C.2   155  GLN155      0.2287
     92  O         43.1430   30.7970   45.3190 O.2   155  GLN155     -0.2864
     93  CB        45.9530   30.8150   45.2860 C.3   155  GLN155      0.0394
     94  CG        47.4020   30.7480   45.8420 C.3   155  GLN155      0.0908
     95  CD        48.4780   30.1670   44.8760 C.2   155  GLN155      0.2608
     96  OE1       49.2140   30.9080   44.2090 O.2   155  GLN155     -0.2717
     97  NE2       48.5890   28.8380   44.8310 N.am  155  GLN155     -0.0878
@<TRIPOS>BOND
     1    55    54    2
     2    54    53    1
     3    47    46    2
     4    46    45    1
     5    50    48    1
     6    52    53    1
     7    53    56    1
     8    56    57    1
     9    48    45    1
    10    48    49    1
    11    45    44    1
    12    57    58    1
    13    57    59    1
    14    38    37    2
    15    44    37   am
    16    37    36    1
    17    49    51    1
    18    69    70    1
    19    69    72    1
    20    69    68    1
    21    70    71    2
    22    35    36    1
    23    73    72    1
    24    73    74    1
    25    36    39    1
    26    75    74    1
    27    26    25    2
    28    66    64    1
    29    25    24    1
    30    61    62    1
    31    61    64    1
    32    61    60    1
    33    65    64    1
    34    65    67    1
    35    62    63    2
    36    39    40    1
    37    40    41    1
    38    24    27    1
    39    24    23    1
    40    27    28    1
    41    43    41   ar
    42    10     9    2
    43    41    42   ar
    44     7     8    1
    45     9     8    1
    46    11     8    1
    47    11    12    1
    48    28    30   ar
    49    28    29   ar
    50    30    32   ar
    51    19    18    2
    52    76    77    1
    53    29    31   ar
    54    22    20    1
    55    12    13    1
    56    16    17    1
    57    14    15    1
    58    14    13    1
    59    20    17    1
    60    20    21    1
    61    77    80    1
    62    77    78    1
    63    18    17    1
    64    32    33   ar
    65    31    33   ar
    66    33    34    1
    67    78    81   am
    68    78    79    2
    69    81    82    1
    70    87    86    2
    71    88    86   am
    72    86    85    1
    73     6     5    1
    74    82    85    1
    75    82    83    1
    76     5     2    1
    77    84    83    2
    78     2     3    1
    79     2     1    1
    80    83    89   am
    81     3     4    2
    82    89    90    1
    83    96    95    2
    84    97    95   am
    85    95    94    1
    86    90    93    1
    87    90    91    1
    88    93    94    1
    89    92    91    2
