@<TRIPOS>MOLECULE
tmp/5n84A00.pdb
 174 162 0 0 0
SMALL
GASTEIGER

@<TRIPOS>ATOM
      1  N         42.2100   53.6560   41.4730 N.3    14  LYS14      -0.1245
      2  CA        42.2840   53.1060   42.8070 C.3    14  LYS14       0.1561
      3  C         42.5150   51.6210   42.7330 C.2    14  LYS14       0.2260
      4  O         42.2700   51.0260   41.7150 O.2    14  LYS14      -0.2867
      5  CB        41.0010   53.4190   43.6000 C.3    14  LYS14       0.0271
      6  CG        39.7030   52.7500   43.1480 C.3    14  LYS14       0.0035
      7  CD        38.4760   53.4540   43.7520 C.3    14  LYS14       0.0206
      8  CE        37.1380   53.0790   43.0930 C.3    14  LYS14       0.1093
      9  NZ        36.3990   54.2720   42.5540 N.3    14  LYS14      -0.1314
     10  N         41.2130   47.9960   43.8370 N.3    16  ILE16      -0.1245
     11  CA        39.9560   47.3960   44.2180 C.3    16  ILE16       0.1561
     12  C         40.2430   46.1570   45.0120 C.2    16  ILE16       0.2260
     13  O         39.6120   45.9170   46.0330 O.2    16  ILE16      -0.2867
     14  CB        39.1550   46.8460   43.0180 C.3    16  ILE16       0.0252
     15  CG1       39.0660   47.8390   41.8600 C.3    16  ILE16       0.0019
     16  CG2       37.7810   46.3890   43.4870 C.3    16  ILE16       0.0019
     17  CD1       38.6020   47.1780   40.5720 C.3    16  ILE16       0.0001
     18  N         44.3090   44.1310   41.7980 N.3    24  VAL24      -0.1245
     19  CA        43.4210   44.6930   40.8090 C.3    24  VAL24       0.1561
     20  C         43.2640   46.1930   40.9560 C.2    24  VAL24       0.2260
     21  O         43.1690   46.6930   42.0650 O.2    24  VAL24      -0.2867
     22  CB        42.0680   44.0570   40.8870 C.3    24  VAL24       0.0252
     23  CG1       41.2300   44.4910   39.6710 C.3    24  VAL24       0.0019
     24  CG2       42.1980   42.5480   40.9050 C.3    24  VAL24       0.0019
     25  N         41.3230   49.9070   39.2230 N.3    26  GLN26      -0.1245
     26  CA        40.4370   50.6300   38.3280 C.3    26  GLN26       0.1566
     27  C         41.2520   51.6910   37.6120 C.2    26  GLN26       0.2260
     28  O         42.0240   52.4060   38.2010 O.2    26  GLN26      -0.2867
     29  CB        39.3000   51.2180   39.1180 C.3    26  GLN26       0.0367
     30  CG        38.1400   51.6940   38.2700 C.3    26  GLN26       0.0905
     31  CD        36.9660   52.1250   39.1470 C.2    26  GLN26       0.2608
     32  OE1       37.0600   53.0620   39.9710 O.2    26  GLN26      -0.2717
     33  NE2       35.8640   51.4290   38.9910 N.am   26  GLN26      -0.0878
     34  N         39.2280   47.6420   34.3960 N.3    36  ALA36      -0.1245
     35  CA        39.9270   47.0450   35.5280 C.3    36  ALA36       0.1562
     36  C         41.1350   46.2800   34.9650 C.2    36  ALA36       0.2260
     37  O         40.9820   45.4720   34.0510 O.2    36  ALA36      -0.2867
     38  CB        39.0020   46.1250   36.2610 C.3    36  ALA36       0.0290
     39  N         44.1420   43.7200   36.1640 N.3    38  LYS38      -0.1245
     40  CA        44.7440   42.8090   37.1010 C.3    38  LYS38       0.1561
     41  C         46.2050   42.6340   36.8040 C.2    38  LYS38       0.2260
     42  O         46.6040   42.5220   35.6390 O.2    38  LYS38      -0.2867
     43  CB        44.0350   41.4750   37.0180 C.3    38  LYS38       0.0271
     44  CG        44.5240   40.5230   38.0690 C.3    38  LYS38       0.0035
     45  CD        43.5240   39.4300   38.3460 C.3    38  LYS38       0.0206
     46  CE        44.1670   38.0660   38.2310 C.3    38  LYS38       0.1093
     47  NZ        43.1620   36.9600   38.2600 N.3    38  LYS38      -0.1314
     48  N         43.7010   29.4930   32.5410 N.3    56  GLU56      -0.1231
     49  CA        42.5350   30.2980   32.8020 C.3    56  GLU56       0.1699
     50  C         42.4720   31.4740   31.7800 C.2    56  GLU56       0.2592
     51  O         41.4420   31.9310   31.3910 O.2    56  GLU56      -0.2718
     52  CB        42.5860   30.8560   34.2190 C.3    56  GLU56       0.0402
     53  CG        41.4450   31.7950   34.5960 C.3    56  GLU56       0.1161
     54  CD        40.5830   31.2930   35.7600 C.2    56  GLU56       0.3649
     55  OE1       41.1020   31.0980   36.8500 O.co2  56  GLU56      -0.2457
     56  OE2       39.3680   31.1560   35.6210 O.co2  56  GLU56      -0.2457
     57  N         43.5850   32.0180   31.4140 N.am   57  ILE57      -0.1980
     58  CA        43.5560   33.1540   30.5410 C.3    57  ILE57       0.1595
     59  C         43.0830   32.6960   29.1230 C.2    57  ILE57       0.2287
     60  O         42.2410   33.3280   28.5540 O.2    57  ILE57      -0.2864
     61  CB        44.9550   33.7600   30.5260 C.3    57  ILE57       0.0276
     62  CG1       45.1770   34.5690   31.8760 C.3    57  ILE57       0.0022
     63  CG2       45.1220   34.6270   29.3080 C.3    57  ILE57       0.0022
     64  CD1       46.5940   34.7870   32.3540 C.3    57  ILE57       0.0001
     65  N         39.3760   32.2400   29.4110 N.3    60  LEU60      -0.1245
     66  CA        38.5930   33.4650   29.4560 C.3    60  LEU60       0.1561
     67  C         38.5770   34.1620   28.0380 C.2    60  LEU60       0.2260
     68  O         37.6090   34.6880   27.5940 O.2    60  LEU60      -0.2867
     69  CB        39.2020   34.4260   30.4020 C.3    60  LEU60       0.0270
     70  CG        38.4140   35.7150   30.6070 C.3    60  LEU60       0.0019
     71  CD1       36.9830   35.4660   31.0440 C.3    60  LEU60       0.0001
     72  CD2       39.1310   36.5150   31.7080 C.3    60  LEU60       0.0001
     73  N         32.7160   38.0330   32.1130 N.3    71  ILE71      -0.1245
     74  CA        33.4340   39.2890   32.0730 C.3    71  ILE71       0.1561
     75  C         34.3070   39.4350   30.8220 C.2    71  ILE71       0.2260
     76  O         34.8640   38.4710   30.2940 O.2    71  ILE71      -0.2867
     77  CB        34.2330   39.4450   33.3580 C.3    71  ILE71       0.0252
     78  CG1       34.7220   40.8470   33.4920 C.3    71  ILE71       0.0019
     79  CG2       35.3740   38.4330   33.4700 C.3    71  ILE71       0.0019
     80  CD1       35.5320   41.0170   34.7470 C.3    71  ILE71       0.0001
     81  N         46.2060   42.0950   32.9040 N.3    85  MET85      -0.1245
     82  CA        45.0090   41.7970   32.1920 C.3    85  MET85       0.1570
     83  C         44.1050   42.9910   32.2200 C.2    85  MET85       0.2261
     84  O         43.6290   43.4210   33.2950 O.2    85  MET85      -0.2867
     85  CB        44.2970   40.6000   32.8610 C.3    85  MET85       0.0387
     86  CG        45.0910   39.3320   32.6450 C.3    85  MET85       0.0595
     87  SD        44.6290   37.9060   33.6460 S.3    85  MET85      -0.1393
     88  CE        42.9830   37.6000   33.1000 C.3    85  MET85       0.0692
     89  N         40.5790   44.2290   31.6660 N.3    87  MET87      -0.1230
     90  CA        39.2660   43.6660   31.7480 C.3    87  MET87       0.1702
     91  C         38.2480   44.7690   32.0010 C.2    87  MET87       0.2592
     92  O         38.5700   45.8890   32.3150 O.2    87  MET87      -0.2718
     93  CB        39.2170   42.6190   32.8760 C.3    87  MET87       0.0401
     94  CG        40.1940   41.4360   32.6750 C.3    87  MET87       0.0596
     95  SD        39.9940   40.1880   33.9370 S.3    87  MET87      -0.1393
     96  CE        40.5260   41.0940   35.3430 C.3    87  MET87       0.0692
     97  N         37.0050   44.3870   31.8210 N.am   88  GLU88      -0.1966
     98  CA        35.8230   45.1730   32.0600 C.3    88  GLU88       0.1733
     99  C         35.7480   45.4700   33.5300 C.2    88  GLU88       0.2616
    100  O         36.0050   44.5640   34.3210 O.2    88  GLU88      -0.2715
    101  CB        34.6590   44.2560   31.6290 C.3    88  GLU88       0.0429
    102  CG        33.2430   44.7050   31.8410 C.3    88  GLU88       0.1163
    103  CD        32.2400   43.7330   31.2390 C.2    88  GLU88       0.3649
    104  OE1       32.5580   42.5500   30.9990 O.co2  88  GLU88      -0.2457
    105  OE2       31.1070   44.1470   31.0200 O.co2  88  GLU88      -0.2457
    106  N         35.3600   46.7060   33.8950 N.am   89  CYS89      -0.1954
    107  CA        35.2080   47.1320   35.3020 C.3    89  CYS89       0.1843
    108  C         33.7460   47.0030   35.6540 C.2    89  CYS89       0.2626
    109  O         32.8690   47.5060   34.9520 O.2    89  CYS89      -0.2714
    110  CB        35.5790   48.6180   35.5250 C.3    89  CYS89       0.0997
    111  SG        35.7280   49.0490   37.2940 S.3    89  CYS89      -0.0797
    112  N         33.4410   46.3530   36.7460 N.am   90  GLY90      -0.1940
    113  CA        32.0420   46.2700   37.1360 C.3    90  GLY90       0.2014
    114  C         31.6450   47.3100   38.1530 C.2    90  GLY90       0.2639
    115  O         32.4760   48.0680   38.6400 O.2    90  GLY90      -0.2714
    116  N         30.3560   47.3150   38.4710 N.am   91  ASN91      -0.1958
    117  CA        29.8060   48.2250   39.4340 C.3    91  ASN91       0.1819
    118  C         30.0050   47.7560   40.8850 C.2    91  ASN91       0.2621
    119  O         30.2900   48.5720   41.7340 O.2    91  ASN91      -0.2715
    120  CB        28.3350   48.4800   39.1120 C.3    91  ASN91       0.1195
    121  CG        28.1580   49.1660   37.7610 C.2    91  ASN91       0.2630
    122  OD1       27.5150   48.6410   36.8400 O.2    91  ASN91      -0.2716
    123  ND2       28.7730   50.3390   37.6230 N.am   91  ASN91      -0.0877
    124  N         29.9060   46.4560   41.1620 N.am   92  ILE92      -0.1963
    125  CA        30.0200   45.9440   42.5380 C.3    92  ILE92       0.1727
    126  C         29.9200   44.4330   42.5170 C.2    92  ILE92       0.2616
    127  O         29.2180   43.8780   41.6410 O.2    92  ILE92      -0.2715
    128  CB        28.8710   46.5220   43.4210 C.3    92  ILE92       0.0290
    129  CG1       28.9870   46.0420   44.8720 C.3    92  ILE92       0.0022
    130  CG2       27.4870   46.2620   42.7920 C.3    92  ILE92       0.0023
    131  CD1       28.0700   46.8240   45.8010 C.3    92  ILE92       0.0001
    132  N         30.5440   43.7430   43.4650 N.am   93  ASP93      -0.1971
    133  CA        30.4090   42.2960   43.4530 C.3    93  ASP93       0.1709
    134  C         29.0430   41.9380   43.9660 C.2    93  ASP93       0.2293
    135  O         28.3730   42.7650   44.5580 O.2    93  ASP93      -0.2864
    136  CB        31.5270   41.5430   44.1290 C.3    93  ASP93       0.1436
    137  CG        31.5270   41.7370   45.5870 C.2    93  ASP93       0.3671
    138  OD1       32.0540   42.7890   45.9960 O.co2  93  ASP93      -0.2456
    139  OD2       30.9870   40.8730   46.3070 O.co2  93  ASP93      -0.2456
    140  N         29.6760   39.6060   39.2720 N.3   139  LEU139     -0.1245
    141  CA        29.8860   40.9990   39.2440 C.3   139  LEU139      0.1561
    142  C         28.6960   41.6400   38.5990 C.2   139  LEU139      0.2260
    143  O         28.2790   41.2140   37.5280 O.2   139  LEU139     -0.2867
    144  CB        31.0620   41.2620   38.3610 C.3   139  LEU139      0.0270
    145  CG        31.6620   42.6510   38.3680 C.3   139  LEU139      0.0019
    146  CD1       32.0960   42.9750   39.7850 C.3   139  LEU139      0.0001
    147  CD2       32.8210   42.7260   37.3530 C.3   139  LEU139      0.0001
    148  N         33.1520   36.1560   36.6180 N.3   148  ILE148     -0.1231
    149  CA        34.4300   36.8740   36.7030 C.3   148  ILE148      0.1692
    150  C         35.5750   35.9000   36.5610 C.2   148  ILE148      0.2592
    151  O         36.6800   36.2970   36.2200 O.2   148  ILE148     -0.2718
    152  CB        34.4700   37.5430   38.1180 C.3   148  ILE148      0.0266
    153  CG1       33.8190   38.8840   38.0810 C.3   148  ILE148      0.0019
    154  CG2       35.8150   37.6080   38.8030 C.3   148  ILE148      0.0020
    155  CD1       33.4430   39.2970   39.5060 C.3   148  ILE148      0.0001
    156  N         35.3450   34.6370   36.9390 N.am  149  ASP149     -0.1960
    157  CA        36.3590   33.6280   36.8000 C.3   149  ASP149      0.1840
    158  C         35.7960   32.1930   36.6800 C.2   149  ASP149      0.2622
    159  O         34.5720   31.9380   36.9260 O.2   149  ASP149     -0.2715
    160  CB        37.2850   33.7720   37.9770 C.3   149  ASP149      0.1450
    161  CG        36.8030   32.9840   39.1860 C.2   149  ASP149      0.3671
    162  OD1       35.6780   33.1770   39.6450 O.co2 149  ASP149     -0.2456
    163  OD2       37.5490   32.1160   39.6210 O.co2 149  ASP149     -0.2456
    164  N         36.6950   31.2510   36.3660 N.am  150  PHE150     -0.1974
    165  CA        36.3410   29.8570   36.0330 C.3   150  PHE150      0.1639
    166  C         36.8120   28.8080   36.9890 C.2   150  PHE150      0.2290
    167  O         36.5700   27.6100   36.7660 O.2   150  PHE150     -0.2864
    168  CB        36.8400   29.4960   34.6120 C.3   150  PHE150      0.0560
    169  CG        36.2980   30.3600   33.5310 C.ar  150  PHE150     -0.0200
    170  CD1       35.2240   31.2030   33.7370 C.ar  150  PHE150     -0.0042
    171  CD2       36.8180   30.2660   32.2390 C.ar  150  PHE150     -0.0042
    172  CE1       34.7250   32.0000   32.7290 C.ar  150  PHE150     -0.0003
    173  CE2       36.3110   31.0530   31.2030 C.ar  150  PHE150     -0.0003
    174  CZ        35.2740   31.9410   31.4600 C.ar  150  PHE150     -0.0000
@<TRIPOS>BOND
     1    68    67    2
     2    67    66    1
     3    60    59    2
     4    59    58    1
     5    63    61    1
     6    65    66    1
     7    66    69    1
     8    76    75    2
     9    69    70    1
    10    61    58    1
    11    61    62    1
    12    58    57    1
    13    70    71    1
    14    70    72    1
    15    75    74    1
    16   104   103   ar
    17   105   103   ar
    18   173   174   ar
    19   173   171   ar
    20   103   102    1
    21    51    50    2
    22    57    50   am
    23   174   172   ar
    24   101   102    1
    25   101    98    1
    26    89    90    1
    27    90    91    1
    28    90    93    1
    29    50    49    1
    30    97    91   am
    31    97    98    1
    32    62    64    1
    33    91    92    2
    34    98    99    1
    35    74    73    1
    36    74    77    1
    37    82    83    1
    38    82    85    1
    39    82    81    1
    40    83    84    2
    41   171   169   ar
    42    48    49    1
    43    86    85    1
    44    86    87    1
    45    94    93    1
    46    94    95    1
    47   172   170   ar
    48    49    52    1
    49    88    87    1
    50    77    79    1
    51    77    78    1
    52    78    80    1
    53    99   106   am
    54    99   100    2
    55   169   170   ar
    56   169   168    1
    57   106   107    1
    58    95    96    1
    59    37    36    2
    60    52    53    1
    61    34    35    1
    62    53    54    1
    63   168   165    1
    64   109   108    2
    65    36    35    1
    66   107   110    1
    67   107   108    1
    68   110   111    1
    69    35    38    1
    70    56    54   ar
    71    42    41    2
    72   108   112   am
    73    54    55   ar
    74   165   164    1
    75   165   166    1
    76    39    40    1
    77   151   150    2
    78   164   158   am
    79   150   149    1
    80   150   156   am
    81   148   149    1
    82   158   157    1
    83   158   159    2
    84   149   152    1
    85   112   113    1
    86   167   166    2
    87   157   156    1
    88   157   160    1
    89    41    40    1
    90   122   121    2
    91    43    40    1
    92    43    44    1
    93   113   114    1
    94   147   145    1
    95   143   142    2
    96    27    28    2
    97    27    26    1
    98   123   121   am
    99   121   120    1
   100   160   161    1
   101    44    45    1
   102   153   152    1
   103   153   155    1
   104   152   154    1
   105   114   116   am
   106   114   115    2
   107    46    47    1
   108    46    45    1
   109    30    29    1
   110    30    31    1
   111    26    29    1
   112    26    25    1
   113   144   145    1
   114   144   141    1
   115   145   146    1
   116   116   117    1
   117   142   141    1
   118    33    31   am
   119   120   117    1
   120    31    32    2
   121   161   163   ar
   122   161   162   ar
   123   141   140    1
   124   117   118    1
   125    23    22    1
   126    17    15    1
   127    19    22    1
   128    19    20    1
   129    19    18    1
   130   118   124   am
   131   118   119    2
   132    22    24    1
   133    20    21    2
   134   124   125    1
   135     1     2    1
   136   127   126    2
   137     4     3    2
   138    15    14    1
   139   126   125    1
   140   126   132   am
   141   125   128    1
   142     9     8    1
   143     3     2    1
   144   130   128    1
   145     2     5    1
   146    14    16    1
   147    14    11    1
   148     8     7    1
   149     6     5    1
   150     6     7    1
   151   128   129    1
   152   133   132    1
   153   133   134    1
   154   133   136    1
   155    10    11    1
   156   134   135    2
   157   136   137    1
   158    11    12    1
   159   129   131    1
   160    12    13    2
   161   137   138   ar
   162   137   139   ar
