@<TRIPOS>MOLECULE
tmp/5n87A01.pdb
 131 120 0 0 0
SMALL
GASTEIGER

@<TRIPOS>ATOM
      1  N         43.7430   38.9800   45.6270 N.3    19  GLY19      -0.1225
      2  CA        43.8420   37.5200   45.7460 C.3    19  GLY19       0.1811
      3  C         45.2590   36.9650   45.8140 C.2    19  GLY19       0.2280
      4  O         45.7640   36.3950   44.8400 O.2    19  GLY19      -0.2866
      5  N         48.4490   36.9470   45.1840 N.3    21  SER21      -0.1202
      6  CA        49.4610   37.5480   44.3150 C.3    21  SER21       0.2020
      7  C         48.8110   38.1850   43.0780 C.2    21  SER21       0.2619
      8  O         49.4020   38.2110   41.9960 O.2    21  SER21      -0.2717
      9  CB        50.4740   36.4820   43.8950 C.3    21  SER21       0.2103
     10  OG        49.8320   35.4320   43.1910 O.3    21  SER21      -0.2182
     11  N         47.5950   38.7000   43.2530 N.am   22  SER22      -0.1951
     12  CA        46.8800   39.4000   42.1930 C.3    22  SER22       0.1924
     13  C         46.0790   40.5810   42.7420 C.2    22  SER22       0.2314
     14  O         45.5420   40.5130   43.8450 O.2    22  SER22      -0.2863
     15  CB        45.9380   38.4400   41.4600 C.3    22  SER22       0.2116
     16  OG        44.8020   38.1320   42.2490 O.3    22  SER22      -0.2180
     17  N         43.3110   43.3110   35.6320 N.3    38  LYS38      -0.1245
     18  CA        43.7470   42.3420   36.6280 C.3    38  LYS38       0.1561
     19  C         45.2440   42.0990   36.4860 C.2    38  LYS38       0.2260
     20  O         45.7330   41.7380   35.4140 O.2    38  LYS38      -0.2867
     21  CB        42.9990   41.0440   36.4760 C.3    38  LYS38       0.0271
     22  CG        43.4350   39.9810   37.4600 C.3    38  LYS38       0.0035
     23  CD        42.5030   38.7980   37.3710 C.3    38  LYS38       0.0206
     24  CE        43.1470   37.5670   37.9570 C.3    38  LYS38       0.1093
     25  NZ        42.1510   36.4710   38.0290 N.3    38  LYS38      -0.1314
     26  N         48.6450   40.0890   37.8980 N.3    40  VAL40      -0.1245
     27  CA        49.0730   38.8650   38.5640 C.3    40  VAL40       0.1561
     28  C         50.5900   38.8390   38.5820 C.2    40  VAL40       0.2260
     29  O         51.2310   38.9500   37.5400 O.2    40  VAL40      -0.2867
     30  CB        48.5460   37.6030   37.8720 C.3    40  VAL40       0.0252
     31  CG1       48.8450   36.3720   38.7230 C.3    40  VAL40       0.0019
     32  CG2       47.0500   37.7220   37.6060 C.3    40  VAL40       0.0019
     33  N         46.9900   29.0950   34.9010 N.3    53  TYR53      -0.1241
     34  CA        46.7010   30.4840   34.5570 C.3    53  TYR53       0.1605
     35  C         46.5370   30.6600   33.0510 C.2    53  TYR53       0.2264
     36  O         45.6420   31.3650   32.5810 O.2    53  TYR53      -0.2867
     37  CB        47.8280   31.4080   35.0190 C.3    53  TYR53       0.0534
     38  CG        48.0120   31.5840   36.5030 C.ar   53  TYR53      -0.0201
     39  CD1       47.0980   31.0920   37.4260 C.ar   53  TYR53      -0.0009
     40  CD2       49.1020   32.3000   36.9830 C.ar   53  TYR53      -0.0009
     41  CE1       47.2770   31.2940   38.7910 C.ar   53  TYR53       0.0417
     42  CE2       49.2910   32.5120   38.3330 C.ar   53  TYR53       0.0417
     43  CZ        48.3820   32.0070   39.2350 C.ar   53  TYR53       0.1957
     44  OH        48.5850   32.2200   40.5790 O.3    53  TYR53      -0.2866
     45  N         43.2200   29.0400   31.9640 N.3    56  GLU56      -0.1231
     46  CA        42.0410   29.8680   32.2180 C.3    56  GLU56       0.1699
     47  C         41.9950   31.0580   31.2580 C.2    56  GLU56       0.2592
     48  O         40.9360   31.3720   30.7350 O.2    56  GLU56      -0.2718
     49  CB        41.9410   30.3450   33.6670 C.3    56  GLU56       0.0402
     50  CG        40.7650   31.3070   33.8590 C.3    56  GLU56       0.1161
     51  CD        39.8720   31.0180   35.0520 C.2    56  GLU56       0.3649
     52  OE1       40.1360   30.1190   35.8770 O.co2  56  GLU56      -0.2457
     53  OE2       38.8550   31.7120   35.1560 O.co2  56  GLU56      -0.2457
     54  N         43.1300   31.7020   31.0080 N.am   57  ILE57      -0.1980
     55  CA        43.1400   32.8200   30.0830 C.3    57  ILE57       0.1595
     56  C         42.6810   32.4080   28.6700 C.2    57  ILE57       0.2287
     57  O         41.9580   33.1660   27.9990 O.2    57  ILE57      -0.2864
     58  CB        44.5230   33.5060   30.0530 C.3    57  ILE57       0.0276
     59  CG1       44.7240   34.3380   31.3250 C.3    57  ILE57       0.0022
     60  CG2       44.6620   34.4340   28.8520 C.3    57  ILE57       0.0022
     61  CD1       46.1770   34.5840   31.6390 C.3    57  ILE57       0.0001
     62  N         38.9540   31.9290   28.6290 N.3    60  LEU60      -0.1245
     63  CA        38.2610   33.2120   28.7170 C.3    60  LEU60       0.1561
     64  C         38.2630   33.9260   27.3610 C.2    60  LEU60       0.2260
     65  O         37.2470   34.4320   26.8970 O.2    60  LEU60      -0.2867
     66  CB        38.8870   34.1030   29.7760 C.3    60  LEU60       0.0270
     67  CG        38.2350   35.4840   29.9370 C.3    60  LEU60       0.0019
     68  CD1       36.7850   35.3410   30.3430 C.3    60  LEU60       0.0001
     69  CD2       38.9940   36.3070   30.9670 C.3    60  LEU60       0.0001
     70  N         51.2040   39.0130   34.6690 N.3    83  ILE83      -0.1245
     71  CA        50.1080   39.1200   33.7150 C.3    83  ILE83       0.1561
     72  C         49.3140   40.4150   33.9530 C.2    83  ILE83       0.2260
     73  O         49.0430   40.7770   35.1000 O.2    83  ILE83      -0.2867
     74  CB        49.1430   37.9330   33.8410 C.3    83  ILE83       0.0252
     75  CG1       49.9160   36.6110   33.7420 C.3    83  ILE83       0.0019
     76  CG2       48.0790   38.0120   32.7550 C.3    83  ILE83       0.0019
     77  CD1       49.0870   35.3740   34.0120 C.3    83  ILE83       0.0001
     78  N         45.5970   41.7990   32.5080 N.3    85  MET85      -0.1245
     79  CA        44.4170   41.4890   31.7270 C.3    85  MET85       0.1570
     80  C         43.4970   42.6970   31.7430 C.2    85  MET85       0.2261
     81  O         43.0500   43.1350   32.8190 O.2    85  MET85      -0.2867
     82  CB        43.7090   40.2880   32.3290 C.3    85  MET85       0.0387
     83  CG        44.6020   39.0580   32.4490 C.3    85  MET85       0.0595
     84  SD        43.7900   37.7180   33.3220 S.3    85  MET85      -0.1393
     85  CE        42.4710   37.3880   32.1500 C.3    85  MET85       0.0692
     86  N         40.0750   44.0790   31.1000 N.3    87  MET87      -0.1245
     87  CA        38.7420   43.5570   31.1120 C.3    87  MET87       0.1570
     88  C         37.7240   44.6930   31.2150 C.2    87  MET87       0.2261
     89  O         38.0690   45.8410   31.4880 O.2    87  MET87      -0.2867
     90  CB        38.5770   42.6050   32.3010 C.3    87  MET87       0.0387
     91  CG        39.4910   41.3800   32.2380 C.3    87  MET87       0.0595
     92  SD        39.5000   40.3990   33.7550 S.3    87  MET87      -0.1393
     93  CE        38.1040   39.3720   33.4260 C.3    87  MET87       0.0692
     94  N         32.7660   35.7780   36.0250 N.3   148  ILE148     -0.1231
     95  CA        34.0870   36.3980   36.0580 C.3   148  ILE148      0.1692
     96  C         35.1900   35.3690   35.7700 C.2   148  ILE148      0.2592
     97  O         36.1960   35.6920   35.1470 O.2   148  ILE148     -0.2718
     98  CB        34.3240   37.0370   37.4570 C.3   148  ILE148      0.0266
     99  CG1       33.4550   38.2770   37.6460 C.3   148  ILE148      0.0019
    100  CG2       35.7810   37.4010   37.6720 C.3   148  ILE148      0.0020
    101  CD1       33.3180   38.6830   39.1040 C.3   148  ILE148      0.0001
    102  N         35.0230   34.1290   36.2260 N.am  149  ASP149     -0.1974
    103  CA        36.0810   33.1340   36.0160 C.3   149  ASP149      0.1709
    104  C         35.5450   31.7200   35.8990 C.2   149  ASP149      0.2293
    105  O         34.3490   31.4930   36.0610 O.2   149  ASP149     -0.2864
    106  CB        37.0750   33.2100   37.1580 C.3   149  ASP149      0.1436
    107  CG        36.5910   32.4780   38.3860 C.2   149  ASP149      0.3671
    108  OD1       35.4390   32.7280   38.7960 O.co2 149  ASP149     -0.2456
    109  OD2       37.3590   31.6380   38.9120 O.co2 149  ASP149     -0.2456
    110  N         42.2360   28.2870   37.1690 N.3   153  ALA153     -0.1231
    111  CA        43.4930   28.7450   37.7730 C.3   153  ALA153      0.1694
    112  C         43.5370   28.3670   39.2430 C.2   153  ALA153      0.2592
    113  O         42.5170   28.4420   39.9230 O.2   153  ALA153     -0.2718
    114  CB        43.6690   30.2520   37.6220 C.3   153  ALA153      0.0304
    115  N         44.7180   27.9650   39.7170 N.am  154  ASN154     -0.1960
    116  CA        44.9430   27.6670   41.1410 C.3   154  ASN154      0.1819
    117  C         44.5590   28.8220   42.0670 C.2   154  ASN154      0.2621
    118  O         44.8520   29.9820   41.7720 O.2   154  ASN154     -0.2715
    119  CB        46.4120   27.3270   41.4000 C.3   154  ASN154      0.1195
    120  CG        46.8270   25.9960   40.8100 C.2   154  ASN154      0.2630
    121  OD1       48.0080   25.7610   40.5840 O.2   154  ASN154     -0.2716
    122  ND2       45.8650   25.1210   40.5600 N.am  154  ASN154     -0.0877
    123  N         43.9320   28.4750   43.1930 N.am  155  GLN155     -0.1977
    124  CA        43.4290   29.4350   44.1870 C.3   155  GLN155      0.1601
    125  C         42.2780   30.2690   43.6110 C.2   155  GLN155      0.2287
    126  O         42.2420   31.4960   43.7370 O.2   155  GLN155     -0.2864
    127  CB        44.5510   30.3330   44.7450 C.3   155  GLN155      0.0394
    128  CG        45.8300   29.5950   45.1500 C.3   155  GLN155      0.0908
    129  CD        47.0120   29.8430   44.2140 C.2   155  GLN155      0.2608
    130  OE1       46.9960   30.7650   43.3940 O.2   155  GLN155     -0.2717
    131  NE2       48.0560   29.0260   44.3500 N.am  155  GLN155     -0.0878
@<TRIPOS>BOND
     1    65    64    2
     2    64    63    1
     3    57    56    2
     4    62    63    1
     5    56    55    1
     6    63    66    1
     7    60    58    1
     8    66    67    1
     9    67    68    1
    10    67    69    1
    11    58    55    1
    12    58    59    1
    13    55    54    1
    14    48    47    2
    15    54    47   am
    16    86    87    1
    17    87    88    1
    18    87    90    1
    19    88    89    2
    20    47    46    1
    21    59    61    1
    22    79    80    1
    23    79    82    1
    24    79    78    1
    25    80    81    2
    26    45    46    1
    27    85    84    1
    28    46    49    1
    29    91    90    1
    30    91    92    1
    31    82    83    1
    32    83    84    1
    33    36    35    2
    34    76    74    1
    35    35    34    1
    36    93    92    1
    37    49    50    1
    38    71    74    1
    39    71    72    1
    40    71    70    1
    41    75    74    1
    42    75    77    1
    43    50    51    1
    44    72    73    2
    45    34    33    1
    46    34    37    1
    47    37    38    1
    48    51    53   ar
    49    51    52   ar
    50    97    96    2
    51    20    19    2
    52    17    18    1
    53    96    95    1
    54    96   102   am
    55   104   103    1
    56   104   105    2
    57   103   102    1
    58   103   106    1
    59    94    95    1
    60    95    98    1
    61    21    18    1
    62    21    22    1
    63    19    18    1
    64    38    40   ar
    65    38    39   ar
    66    40    42   ar
    67   106   107    1
    68   110   111    1
    69    23    22    1
    70    23    24    1
    71    39    41   ar
    72    98    99    1
    73    98   100    1
    74    29    28    2
    75    32    30    1
    76   114   111    1
    77    99   101    1
    78   111   112    1
    79    30    27    1
    80    30    31    1
    81    26    27    1
    82    24    25    1
    83    42    43   ar
    84   107   108   ar
    85   107   109   ar
    86    27    28    1
    87    41    43   ar
    88    43    44    1
    89   112   115   am
    90   112   113    2
    91   115   116    1
    92   122   120   am
    93   121   120    2
    94   120   119    1
    95   116   119    1
    96   116   117    1
    97    15    12    1
    98    15    16    1
    99   118   117    2
   100     8     7    2
   101   117   123   am
   102    12    13    1
   103    12    11    1
   104    13    14    2
   105     7    11   am
   106     7     6    1
   107    10     9    1
   108   123   124    1
   109   130   129    2
   110   125   126    2
   111   125   124    1
   112     9     6    1
   113   124   127    1
   114   129   131   am
   115   129   128    1
   116     6     5    1
   117   127   128    1
   118     4     3    2
   119     1     2    1
   120     2     3    1
