@<TRIPOS>MOLECULE
tmp/5n87A00.pdb
 201 184 0 0 0
SMALL
GASTEIGER

@<TRIPOS>ATOM
      1  N         41.4660   53.2690   41.1300 N.3    14  LYS14      -0.1245
      2  CA        41.5020   52.6180   42.4350 C.3    14  LYS14       0.1561
      3  C         41.5540   51.0970   42.3270 C.2    14  LYS14       0.2260
      4  O         41.2400   50.5200   41.2860 O.2    14  LYS14      -0.2867
      5  CB        40.2800   53.0110   43.2610 C.3    14  LYS14       0.0271
      6  CG        38.9670   52.9230   42.5040 C.3    14  LYS14       0.0035
      7  CD        37.7910   52.8310   43.4600 C.3    14  LYS14       0.0206
      8  CE        36.4740   52.9140   42.7080 C.3    14  LYS14       0.1093
      9  NZ        35.3260   52.5770   43.5870 N.3    14  LYS14      -0.1314
     10  N         40.0870   47.4350   43.3180 N.3    16  ILE16      -0.1231
     11  CA        38.7250   46.9170   43.5180 C.3    16  ILE16       0.1692
     12  C         38.6670   45.4100   43.7950 C.2    16  ILE16       0.2593
     13  O         37.5770   44.8350   43.8800 O.2    16  ILE16      -0.2718
     14  CB        37.8260   47.2350   42.2970 C.3    16  ILE16       0.0266
     15  CG1       38.2860   46.4450   41.0610 C.3    16  ILE16       0.0019
     16  CG2       37.8240   48.7320   42.0110 C.3    16  ILE16       0.0020
     17  CD1       37.5320   46.7710   39.7920 C.3    16  ILE16       0.0001
     18  N         39.8270   44.7670   43.9340 N.am   17  GLY17      -0.1942
     19  CA        39.8820   43.3220   44.1470 C.3    17  GLY17       0.2014
     20  C         41.2720   42.8680   44.5280 C.2    17  GLY17       0.2640
     21  O         42.2510   43.5570   44.2290 O.2    17  GLY17      -0.2714
     22  N         41.3550   41.7140   45.1950 N.am   18  SER18      -0.1935
     23  CA        42.6390   41.1480   45.6320 C.3    18  SER18       0.2058
     24  C         42.5920   39.6310   45.8110 C.2    18  SER18       0.2682
     25  O         41.5380   39.0710   46.1230 O.2    18  SER18      -0.2710
     26  CB        43.0850   41.7980   46.9410 C.3    18  SER18       0.2130
     27  OG        43.8380   42.9620   46.6730 O.3    18  SER18      -0.2179
     28  N         43.7430   38.9800   45.6270 N.am   19  GLY19      -0.1729
     29  CA        43.8420   37.5200   45.7460 C.2    19  GLY19       0.1340
     30  C         45.2590   36.9650   45.8140 C.2    19  GLY19       0.2521
     31  O         45.7640   36.3950   44.8400 O.2    19  GLY19      -0.2816
     32  N         47.5950   38.7000   43.2530 N.3    22  SER22      -0.1217
     33  CA        46.8800   39.4000   42.1930 C.3    22  SER22       0.1889
     34  C         46.0790   40.5810   42.7420 C.2    22  SER22       0.2288
     35  O         45.5420   40.5130   43.8450 O.2    22  SER22      -0.2866
     36  CB        45.9380   38.4400   41.4600 C.3    22  SER22       0.2089
     37  OG        44.8020   38.1320   42.2490 O.3    22  SER22      -0.2183
     38  N         43.1540   43.7400   41.3490 N.3    24  VAL24      -0.1245
     39  CA        42.2950   44.2380   40.2910 C.3    24  VAL24       0.1561
     40  C         42.1100   45.7420   40.4720 C.2    24  VAL24       0.2260
     41  O         41.8080   46.2030   41.5710 O.2    24  VAL24      -0.2867
     42  CB        40.9350   43.5250   40.2950 C.3    24  VAL24       0.0252
     43  CG1       40.0820   43.9810   39.1140 C.3    24  VAL24       0.0019
     44  CG2       41.1450   42.0220   40.2520 C.3    24  VAL24       0.0019
     45  N         40.4550   49.5090   38.8590 N.3    26  GLN26      -0.1245
     46  CA        39.6740   50.3340   37.9280 C.3    26  GLN26       0.1566
     47  C         40.6310   51.3290   37.2840 C.2    26  GLN26       0.2260
     48  O         41.4640   51.9060   37.9710 O.2    26  GLN26      -0.2867
     49  CB        38.5650   51.0810   38.6670 C.3    26  GLN26       0.0367
     50  CG        37.4990   51.6450   37.7530 C.3    26  GLN26       0.0905
     51  CD        36.3650   52.3150   38.5150 C.2    26  GLN26       0.2608
     52  OE1       36.5950   53.0790   39.4610 O.2    26  GLN26      -0.2717
     53  NE2       35.1340   52.0520   38.0900 N.am   26  GLN26      -0.0878
     54  N         38.6810   47.4810   33.7450 N.3    36  ALA36      -0.1245
     55  CA        39.3340   46.8400   34.8850 C.3    36  ALA36       0.1562
     56  C         40.5820   46.1200   34.3870 C.2    36  ALA36       0.2260
     57  O         40.5530   45.4650   33.3510 O.2    36  ALA36      -0.2867
     58  CB        38.3960   45.8670   35.5630 C.3    36  ALA36       0.0290
     59  N         43.3110   43.3110   35.6320 N.3    38  LYS38      -0.1245
     60  CA        43.7470   42.3420   36.6280 C.3    38  LYS38       0.1561
     61  C         45.2440   42.0990   36.4860 C.2    38  LYS38       0.2260
     62  O         45.7330   41.7380   35.4140 O.2    38  LYS38      -0.2867
     63  CB        42.9990   41.0440   36.4760 C.3    38  LYS38       0.0271
     64  CG        43.4350   39.9810   37.4600 C.3    38  LYS38       0.0035
     65  CD        42.5030   38.7980   37.3710 C.3    38  LYS38       0.0206
     66  CE        43.1470   37.5670   37.9570 C.3    38  LYS38       0.1093
     67  NZ        42.1510   36.4710   38.0290 N.3    38  LYS38      -0.1314
     68  N         32.3370   37.6990   31.3880 N.3    71  ILE71      -0.1245
     69  CA        33.0570   38.9700   31.4130 C.3    71  ILE71       0.1561
     70  C         33.9120   39.1520   30.1490 C.2    71  ILE71       0.2260
     71  O         34.4450   38.1850   29.5930 O.2    71  ILE71      -0.2867
     72  CB        33.9330   39.1040   32.6730 C.3    71  ILE71       0.0252
     73  CG1       34.5180   40.5220   32.7700 C.3    71  ILE71       0.0019
     74  CG2       35.0570   38.0610   32.6760 C.3    71  ILE71       0.0019
     75  CD1       35.0870   40.8570   34.1280 C.3    71  ILE71       0.0001
     76  N         40.0750   44.0790   31.1000 N.3    87  MET87      -0.1230
     77  CA        38.7420   43.5570   31.1120 C.3    87  MET87       0.1702
     78  C         37.7240   44.6930   31.2150 C.2    87  MET87       0.2592
     79  O         38.0690   45.8410   31.4880 O.2    87  MET87      -0.2718
     80  CB        38.5770   42.6050   32.3010 C.3    87  MET87       0.0401
     81  CG        39.4910   41.3800   32.2380 C.3    87  MET87       0.0596
     82  SD        39.5000   40.3990   33.7550 S.3    87  MET87      -0.1393
     83  CE        38.1040   39.3720   33.4260 C.3    87  MET87       0.0692
     84  N         36.4850   44.3260   30.9200 N.am   88  GLU88      -0.1966
     85  CA        35.2730   45.0700   31.2220 C.3    88  GLU88       0.1733
     86  C         35.2760   45.4710   32.6760 C.2    88  GLU88       0.2616
     87  O         35.5940   44.6440   33.5250 O.2    88  GLU88      -0.2715
     88  CB        34.0940   44.1070   31.0560 C.3    88  GLU88       0.0429
     89  CG        32.9010   44.6260   30.3120 C.3    88  GLU88       0.1163
     90  CD        31.7600   43.6330   30.3510 C.2    88  GLU88       0.3649
     91  OE1       31.9950   42.4450   30.6870 O.co2  88  GLU88      -0.2457
     92  OE2       30.6280   44.0460   30.0450 O.co2  88  GLU88      -0.2457
     93  N         34.8920   46.7080   32.9740 N.am   89  CYS89      -0.1954
     94  CA        34.6720   47.1210   34.3580 C.3    89  CYS89       0.1843
     95  C         33.2010   46.9370   34.7090 C.2    89  CYS89       0.2626
     96  O         32.3220   47.3790   33.9760 O.2    89  CYS89      -0.2714
     97  CB        35.0540   48.5870   34.5570 C.3    89  CYS89       0.0997
     98  SG        35.1080   49.0370   36.3050 S.3    89  CYS89      -0.0797
     99  N         32.9320   46.2820   35.8250 N.am   90  GLY90      -0.1940
    100  CA        31.5630   46.1120   36.2860 C.3    90  GLY90       0.2014
    101  C         31.1880   47.1240   37.3480 C.2    90  GLY90       0.2639
    102  O         32.0450   47.7750   37.9470 O.2    90  GLY90      -0.2714
    103  N         29.8910   47.2360   37.5940 N.am   91  ASN91      -0.1958
    104  CA        29.3780   48.1420   38.6120 C.3    91  ASN91       0.1819
    105  C         29.7950   47.6580   39.9950 C.2    91  ASN91       0.2621
    106  O         30.2580   48.4440   40.8240 O.2    91  ASN91      -0.2715
    107  CB        27.8530   48.2450   38.4870 C.3    91  ASN91       0.1195
    108  CG        27.4090   48.5500   37.0630 C.2    91  ASN91       0.2630
    109  OD1       26.6280   47.8120   36.4650 O.2    91  ASN91      -0.2716
    110  ND2       27.9330   49.6280   36.5040 N.am   91  ASN91      -0.0877
    111  N         29.6740   46.3490   40.2130 N.am   92  ILE92      -0.1963
    112  CA        29.8950   45.7230   41.5180 C.3    92  ILE92       0.1727
    113  C         29.7060   44.2040   41.3690 C.2    92  ILE92       0.2616
    114  O         29.0600   43.7660   40.4280 O.2    92  ILE92      -0.2715
    115  CB        28.8830   46.2620   42.5520 C.3    92  ILE92       0.0290
    116  CG1       29.1760   45.7320   43.9580 C.3    92  ILE92       0.0022
    117  CG2       27.4540   45.9330   42.1290 C.3    92  ILE92       0.0023
    118  CD1       28.4590   46.5040   45.0450 C.3    92  ILE92       0.0001
    119  N         30.2500   43.4080   42.2910 N.am   93  ASP93      -0.1971
    120  CA        30.0330   41.9570   42.2570 C.3    93  ASP93       0.1709
    121  C         28.8240   41.5550   43.0850 C.2    93  ASP93       0.2293
    122  O         28.4390   42.2540   44.0330 O.2    93  ASP93      -0.2864
    123  CB        31.2500   41.1900   42.7690 C.3    93  ASP93       0.1436
    124  CG        31.4770   41.3980   44.2320 C.2    93  ASP93       0.3671
    125  OD1       32.0000   42.4810   44.5860 O.co2  93  ASP93      -0.2456
    126  OD2       31.1200   40.4970   45.0230 O.co2  93  ASP93      -0.2456
    127  N         28.8730   41.3470   47.1620 N.3    96  SER96      -0.1217
    128  CA        28.8270   42.6360   47.8390 C.3    96  SER96       0.1889
    129  C         27.4560   43.2760   47.6850 C.2    96  SER96       0.2288
    130  O         26.8870   43.7530   48.6590 O.2    96  SER96      -0.2866
    131  CB        29.9170   43.5530   47.2970 C.3    96  SER96       0.2089
    132  OG        31.1750   42.9330   47.4810 O.3    96  SER96      -0.2183
    133  N         24.7670   44.2690   51.0570 N.3   100  LYS100     -0.1245
    134  CA        24.1190   45.5470   51.3690 C.3   100  LYS100      0.1561
    135  C         22.7360   45.6230   50.7250 C.2   100  LYS100      0.2260
    136  O         22.4190   46.5700   50.0100 O.2   100  LYS100     -0.2867
    137  CB        25.0010   46.7390   50.9660 C.3   100  LYS100      0.0271
    138  CG        25.3640   46.8500   49.4900 C.3   100  LYS100      0.0035
    139  CD        26.5660   47.7620   49.2710 C.3   100  LYS100      0.0206
    140  CE        27.8510   47.1680   49.8380 C.3   100  LYS100      0.1093
    141  NZ        29.0690   47.8770   49.3550 N.3   100  LYS100     -0.1314
    142  N         30.1950   30.7960   43.5840 N.3   134  LYS134     -0.1245
    143  CA        29.7680   31.5790   44.7280 C.3   134  LYS134      0.1561
    144  C         29.2910   32.9010   44.1580 C.2   134  LYS134      0.2260
    145  O         29.5740   33.2010   43.0040 O.2   134  LYS134     -0.2867
    146  CB        30.9300   31.8720   45.6800 C.3   134  LYS134      0.0271
    147  CG        31.7430   30.6870   46.1330 C.3   134  LYS134      0.0035
    148  CD        32.9810   31.1290   46.8990 C.3   134  LYS134      0.0206
    149  CE        34.0280   31.8250   46.0370 C.3   134  LYS134      0.1093
    150  NZ        34.6450   30.9370   45.0110 N.3   134  LYS134     -0.1314
    151  N         30.4420   35.7920   44.6510 N.3   136  ALA136     -0.1231
    152  CA        31.6360   36.5580   44.2800 C.3   136  ALA136      0.1694
    153  C         32.1190   36.3140   42.8460 C.2   136  ALA136      0.2592
    154  O         32.8480   37.1460   42.3110 O.2   136  ALA136     -0.2718
    155  CB        32.7830   36.2660   45.2570 C.3   136  ALA136      0.0304
    156  N         31.7410   35.1840   42.2310 N.am  137  ASN137     -0.1974
    157  CA        32.1720   34.8760   40.8560 C.3   137  ASN137      0.1688
    158  C         31.3410   35.5830   39.7980 C.2   137  ASN137      0.2292
    159  O         31.6320   35.4880   38.5970 O.2   137  ASN137     -0.2864
    160  CB        32.1060   33.3760   40.5870 C.3   137  ASN137      0.1181
    161  CG        33.0000   32.5730   41.5040 C.2   137  ASN137      0.2629
    162  OD1       32.5390   31.9830   42.4660 O.2   137  ASN137     -0.2716
    163  ND2       34.2750   32.5430   41.2030 N.am  137  ASN137     -0.0877
    164  N         29.5390   39.1840   38.2980 N.3   139  LEU139     -0.1245
    165  CA        29.7450   40.6090   38.2130 C.3   139  LEU139      0.1561
    166  C         28.4980   41.2560   37.6390 C.2   139  LEU139      0.2260
    167  O         28.0090   40.8410   36.5790 O.2   139  LEU139     -0.2867
    168  CB        30.9320   40.9020   37.2920 C.3   139  LEU139      0.0270
    169  CG        31.4160   42.3560   37.2450 C.3   139  LEU139      0.0019
    170  CD1       31.9070   42.8130   38.6080 C.3   139  LEU139      0.0001
    171  CD2       32.5240   42.4890   36.2180 C.3   139  LEU139      0.0001
    172  N         32.7660   35.7780   36.0250 N.3   148  ILE148     -0.1231
    173  CA        34.0870   36.3980   36.0580 C.3   148  ILE148      0.1692
    174  C         35.1900   35.3690   35.7700 C.2   148  ILE148      0.2592
    175  O         36.1960   35.6920   35.1470 O.2   148  ILE148     -0.2718
    176  CB        34.3240   37.0370   37.4570 C.3   148  ILE148      0.0266
    177  CG1       33.4550   38.2770   37.6460 C.3   148  ILE148      0.0019
    178  CG2       35.7810   37.4010   37.6720 C.3   148  ILE148      0.0020
    179  CD1       33.3180   38.6830   39.1040 C.3   148  ILE148      0.0001
    180  N         35.0230   34.1290   36.2260 N.am  149  ASP149     -0.1974
    181  CA        36.0810   33.1340   36.0160 C.3   149  ASP149      0.1709
    182  C         35.5450   31.7200   35.8990 C.2   149  ASP149      0.2293
    183  O         34.3490   31.4930   36.0610 O.2   149  ASP149     -0.2864
    184  CB        37.0750   33.2100   37.1580 C.3   149  ASP149      0.1436
    185  CG        36.5910   32.4780   38.3860 C.2   149  ASP149      0.3671
    186  OD1       35.4390   32.7280   38.7960 O.co2 149  ASP149     -0.2456
    187  OD2       37.3590   31.6380   38.9120 O.co2 149  ASP149     -0.2456
    188  N         42.2360   28.2870   37.1690 N.3   153  ALA153     -0.1245
    189  CA        43.4930   28.7450   37.7730 C.3   153  ALA153      0.1562
    190  C         43.5370   28.3670   39.2430 C.2   153  ALA153      0.2260
    191  O         42.5170   28.4420   39.9230 O.2   153  ALA153     -0.2867
    192  CB        43.6690   30.2520   37.6220 C.3   153  ALA153      0.0290
    193  N         43.9320   28.4750   43.1930 N.3   155  GLN155     -0.1245
    194  CA        43.4290   29.4350   44.1870 C.3   155  GLN155      0.1566
    195  C         42.2780   30.2690   43.6110 C.2   155  GLN155      0.2260
    196  O         42.2420   31.4960   43.7370 O.2   155  GLN155     -0.2867
    197  CB        44.5510   30.3330   44.7450 C.3   155  GLN155      0.0367
    198  CG        45.8300   29.5950   45.1500 C.3   155  GLN155      0.0905
    199  CD        47.0120   29.8430   44.2140 C.2   155  GLN155      0.2608
    200  OE1       46.9960   30.7650   43.3940 O.2   155  GLN155     -0.2717
    201  NE2       48.0560   29.0260   44.3500 N.am  155  GLN155     -0.0878
@<TRIPOS>BOND
     1    71    70    2
     2    92    90   ar
     3    70    69    1
     4    89    90    1
     5    89    88    1
     6    90    91   ar
     7    84    78   am
     8    84    85    1
     9    88    85    1
    10    76    77    1
    11    77    78    1
    12    77    80    1
    13    78    79    2
    14    85    86    1
    15    68    69    1
    16    69    72    1
    17    81    80    1
    18    81    82    1
    19    72    74    1
    20    72    73    1
    21    86    93   am
    22    86    87    2
    23    73    75    1
    24    93    94    1
    25    57    56    2
    26    83    82    1
    27    54    55    1
    28    96    95    2
    29    94    97    1
    30    94    95    1
    31    56    55    1
    32    97    98    1
    33    95    99   am
    34    55    58    1
    35   175   174    2
    36    62    61    2
    37    59    60    1
    38   174   173    1
    39   174   180   am
    40    99   100    1
    41   182   181    1
    42   182   183    2
    43   181   180    1
    44   181   184    1
    45   172   173    1
    46   173   176    1
    47   171   169    1
    48   100   101    1
    49   109   108    2
    50    63    60    1
    51    63    64    1
    52    61    60    1
    53   110   108   am
    54   167   166    2
    55   108   107    1
    56   184   185    1
    57   188   189    1
    58   169   168    1
    59   169   170    1
    60    47    46    1
    61    47    48    2
    62   168   165    1
    63   101   103   am
    64   101   102    2
    65    65    64    1
    66    65    66    1
    67   176   177    1
    68   176   178    1
    69   103   104    1
    70   192   189    1
    71   166   165    1
    72   177   179    1
    73    50    51    1
    74    50    49    1
    75   189   190    1
    76    46    49    1
    77    46    45    1
    78    66    67    1
    79    53    51   am
    80   165   164    1
    81   185   186   ar
    82   185   187   ar
    83   107   104    1
    84    51    52    2
    85   159   158    2
    86   104   105    1
    87    43    42    1
    88   190   191    2
    89    17    15    1
    90   158   157    1
    91   105   111   am
    92   105   106    2
    93   111   112    1
    94    44    42    1
    95    39    42    1
    96    39    40    1
    97    39    38    1
    98   114   113    2
    99    40    41    2
   100   160   157    1
   101   160   161    1
   102   157   156    1
   103    15    14    1
   104     1     2    1
   105   163   161   am
   106     4     3    2
   107   113   112    1
   108   113   119   am
   109    36    33    1
   110    36    37    1
   111   161   162    2
   112   112   115    1
   113    16    14    1
   114   117   115    1
   115    33    34    1
   116    33    32    1
   117   156   153   am
   118   120   119    1
   119   120   123    1
   120   120   121    1
   121    14    11    1
   122   154   153    2
   123     3     2    1
   124     2     5    1
   125     6     5    1
   126     6     7    1
   127   115   116    1
   128     8     7    1
   129     8     9    1
   130    34    35    2
   131   123   124    1
   132   153   152    1
   133   145   144    2
   134   121   122    2
   135   193   194    1
   136    10    11    1
   137   200   199    2
   138    11    12    1
   139   142   143    1
   140   195   196    2
   141   195   194    1
   142    12    13    2
   143    12    18   am
   144    18    19    1
   145   116   118    1
   146    19    20    1
   147   144   143    1
   148   194   197    1
   149   199   201   am
   150   199   198    1
   151    21    20    2
   152   124   125   ar
   153   124   126   ar
   154   152   151    1
   155   152   155    1
   156    20    22   am
   157   143   146    1
   158   197   198    1
   159    31    30    2
   160   150   149    1
   161    22    23    1
   162    28    29    2
   163    28    24    1
   164    23    24    1
   165    23    26    1
   166   146   147    1
   167    29    30    1
   168    24    25    2
   169   149   148    1
   170   147   148    1
   171    27    26    1
   172   127   128    1
   173   131   132    1
   174   131   128    1
   175   129   128    1
   176   129   130    2
   177   139   138    1
   178   139   140    1
   179   141   140    1
   180   138   137    1
   181   136   135    2
   182   135   134    1
   183   137   134    1
   184   133   134    1
