@<TRIPOS>MOLECULE
tmp/5n8bA00.pdb
 227 221 0 0 0
SMALL
GASTEIGER

@<TRIPOS>ATOM
      1  N         19.6520    9.7600   19.5520 N.3     9  ASN9       -0.1240
      2  CA        19.5500   10.7950   18.5170 C.3     9  ASN9        0.1653
      3  C         20.8290   10.8000   17.6760 C.2     9  ASN9        0.2266
      4  O         21.7300    9.9730   17.8860 O.2     9  ASN9       -0.2867
      5  CB        19.1640   12.1630   19.0970 C.3     9  ASN9        0.1155
      6  CG        20.2700   12.8220   19.9010 C.2     9  ASN9        0.2627
      7  OD1       21.4170   12.3500   19.9350 O.2     9  ASN9       -0.2716
      8  ND2       19.9320   13.9370   20.5390 N.am    9  ASN9       -0.0877
      9  N         23.3010   12.7300   17.5740 N.3    11  LEU11      -0.1245
     10  CA        24.5060   13.0520   18.3470 C.3    11  LEU11       0.1561
     11  C         24.9220   11.9650   19.3210 C.2    11  LEU11       0.2260
     12  O         25.9590   12.0730   19.9640 O.2    11  LEU11      -0.2867
     13  CB        24.2990   14.3780   19.0690 C.3    11  LEU11       0.0270
     14  CG        24.2110   15.4940   18.0300 C.3    11  LEU11       0.0019
     15  CD1       23.6210   16.7140   18.6670 C.3    11  LEU11       0.0001
     16  CD2       25.5640   15.8140   17.4120 C.3    11  LEU11       0.0001
     17  N         23.2030   11.0220   22.0230 N.3    13  SER13      -0.1217
     18  CA        22.5190   11.0840   23.3050 C.3    13  SER13       0.1889
     19  C         21.5180    9.9340   23.3230 C.2    13  SER13       0.2288
     20  O         20.9320    9.6130   22.2940 O.2    13  SER13      -0.2866
     21  CB        21.8210   12.4210   23.5080 C.3    13  SER13       0.2089
     22  OG        22.6910   13.5020   23.2620 O.3    13  SER13      -0.2183
     23  N         17.9040    9.1600   30.7260 N.3    29  TYR29      -0.1227
     24  CA        18.4590    9.8450   29.5520 C.3    29  TYR29       0.1736
     25  C         19.8850   10.2760   29.8970 C.2    29  TYR29       0.2595
     26  O         20.1190   10.8710   30.9500 O.2    29  TYR29      -0.2718
     27  CB        17.6050   11.0620   29.1930 C.3    29  TYR29       0.0548
     28  CG        17.8220   11.6690   27.8180 C.ar   29  TYR29      -0.0200
     29  CD1       18.4690   10.9940   26.7730 C.ar   29  TYR29      -0.0009
     30  CD2       17.3050   12.9210   27.5350 C.ar   29  TYR29      -0.0009
     31  CE1       18.6060   11.5570   25.5160 C.ar   29  TYR29       0.0417
     32  CE2       17.4210   13.4950   26.2810 C.ar   29  TYR29       0.0417
     33  CZ        18.0820   12.8180   25.2670 C.ar   29  TYR29       0.1957
     34  OH        18.2320   13.3310   23.9940 O.3    29  TYR29      -0.2866
     35  N         20.8460    9.9600   29.0280 N.am   30  GLU30      -0.1965
     36  CA        22.2450   10.2910   29.2730 C.3    30  GLU30       0.1733
     37  C         22.9170   10.8070   28.0180 C.2    30  GLU30       0.2617
     38  O         22.3960   10.7120   26.9170 O.2    30  GLU30      -0.2715
     39  CB        22.9930    9.0960   29.8410 C.3    30  GLU30       0.0429
     40  CG        23.2250    7.9840   28.8390 C.3    30  GLU30       0.1163
     41  CD        23.8850    6.7530   29.4320 C.2    30  GLU30       0.3649
     42  OE1       23.9290    6.6090   30.6620 O.co2  30  GLU30      -0.2457
     43  OE2       24.3820    5.9190   28.6550 O.co2  30  GLU30      -0.2457
     44  N         24.1170   11.3410   28.1930 N.am   31  SER31      -0.1936
     45  CA        24.8910   11.8460   27.0620 C.3    31  SER31       0.2055
     46  C         25.5060   10.6990   26.2600 C.2    31  SER31       0.2643
     47  O         25.4960    9.5400   26.6860 O.2    31  SER31      -0.2714
     48  CB        26.0000   12.7580   27.5420 C.3    31  SER31       0.2130
     49  OG        27.0060   11.9900   28.1720 O.3    31  SER31      -0.2179
     50  N         26.0660   11.0470   25.1110 N.am   32  ALA32      -0.1963
     51  CA        26.8050   10.0820   24.3040 C.3    32  ALA32       0.1728
     52  C         27.9600    9.4450   25.0800 C.2    32  ALA32       0.2616
     53  O         28.1980    8.2490   24.9450 O.2    32  ALA32      -0.2715
     54  CB        27.3120   10.7200   23.0290 C.3    32  ALA32       0.0334
     55  N         28.6500   10.2240   25.9120 N.am   33  VAL33      -0.1977
     56  CA        29.7100    9.6550   26.7500 C.3    33  VAL33       0.1596
     57  C         29.0860    8.7580   27.8310 C.2    33  VAL33       0.2287
     58  O         29.5810    7.6660   28.1170 O.2    33  VAL33      -0.2864
     59  CB        30.6130   10.7480   27.3530 C.3    33  VAL33       0.0276
     60  CG1       31.5620   10.1570   28.3840 C.3    33  VAL33       0.0022
     61  CG2       31.3980   11.4390   26.2500 C.3    33  VAL33       0.0022
     62  N         26.0500   12.7160   33.6710 N.3    38  SER38      -0.1217
     63  CA        25.2500   13.0040   32.4830 C.3    38  SER38       0.1889
     64  C         23.8590   12.3680   32.5160 C.2    38  SER38       0.2288
     65  O         23.1130   12.5340   31.5480 O.2    38  SER38      -0.2866
     66  CB        25.9810   12.5200   31.2230 C.3    38  SER38       0.2089
     67  OG        25.7410   11.1440   30.9770 O.3    38  SER38      -0.2183
     68  N         20.0010   11.4440   33.7640 N.3    40  TYR40      -0.1241
     69  CA        18.8090   12.0560   34.3470 C.3    40  TYR40       0.1605
     70  C         17.6340   11.1160   34.2740 C.2    40  TYR40       0.2264
     71  O         17.5100   10.3320   33.3240 O.2    40  TYR40      -0.2867
     72  CB        18.4600   13.3420   33.6040 C.3    40  TYR40       0.0534
     73  CG        19.5480   14.3820   33.5800 C.ar   40  TYR40      -0.0201
     74  CD1       19.6270   15.3790   34.5490 C.ar   40  TYR40      -0.0009
     75  CD2       20.5200   14.3690   32.5900 C.ar   40  TYR40      -0.0009
     76  CE1       20.6310   16.3350   34.5180 C.ar   40  TYR40       0.0417
     77  CE2       21.5210   15.3240   32.5420 C.ar   40  TYR40       0.0417
     78  CZ        21.5740   16.3070   33.5050 C.ar   40  TYR40       0.1957
     79  OH        22.5480   17.2560   33.4190 O.3    40  TYR40      -0.2866
     80  N         16.4070   18.8690   34.4230 N.3    65  TRP65      -0.1241
     81  CA        17.8670   18.8410   34.2640 C.3    65  TRP65       0.1605
     82  C         18.5830   19.0390   35.5960 C.2    65  TRP65       0.2264
     83  O         19.4610   19.9060   35.7460 O.2    65  TRP65      -0.2867
     84  CB        18.3020   19.8520   33.1980 C.3    65  TRP65       0.0550
     85  CG        17.7030   19.5560   31.8690 C.ar   65  TRP65       0.0003
     86  CD1       16.7790   20.3140   31.2080 C.ar   65  TRP65       0.0946
     87  CD2       17.9380   18.4080   31.0490 C.ar   65  TRP65       0.0152
     88  NE1       16.4440   19.7340   30.0150 N.ar   65  TRP65      -0.2442
     89  CE2       17.1360   18.5560   29.8980 C.ar   65  TRP65       0.0810
     90  CE3       18.7690   17.2830   31.1480 C.ar   65  TRP65       0.0012
     91  CZ2       17.1340   17.6140   28.8650 C.ar   65  TRP65       0.0191
     92  CZ3       18.7630   16.3560   30.1190 C.ar   65  TRP65       0.0001
     93  CH2       17.9490   16.5230   28.9970 C.ar   65  TRP65       0.0015
     94  N         24.7420   18.0860   39.1930 N.3    70  ARG70      -0.1231
     95  CA        24.5840   19.3800   38.5590 C.3    70  ARG70       0.1694
     96  C         23.1140   19.6880   38.3650 C.2    70  ARG70       0.2592
     97  O         22.2670   18.7950   38.3720 O.2    70  ARG70      -0.2718
     98  CB        25.3600   19.4160   37.2310 C.3    70  ARG70       0.0321
     99  CG        24.8930   18.4100   36.2030 C.3    70  ARG70       0.0489
    100  CD        25.8450   18.2960   35.0130 C.3    70  ARG70       0.2205
    101  NE        25.2100   17.6050   33.9030 N.pl3  70  ARG70      -0.0865
    102  CZ        25.7890   17.1820   32.7810 C.cat  70  ARG70       0.5346
    103  NH1       25.0360   16.5890   31.8470 N.pl3  70  ARG70       0.1354
    104  NH2       27.0890   17.3620   32.5620 N.pl3  70  ARG70       0.1354
    105  N         22.8310   20.9710   38.1920 N.am   71  ASN71      -0.1960
    106  CA        21.4590   21.4340   38.0830 C.3    71  ASN71       0.1819
    107  C         21.4160   22.6560   37.1860 C.2    71  ASN71       0.2621
    108  O         21.9980   23.6960   37.5210 O.2    71  ASN71      -0.2715
    109  CB        20.8900   21.7660   39.4710 C.3    71  ASN71       0.1195
    110  CG        19.3870   22.0140   39.4600 C.2    71  ASN71       0.2630
    111  OD1       18.7770   22.1120   38.3960 O.2    71  ASN71      -0.2716
    112  ND2       18.7950   22.1300   40.6370 N.am   71  ASN71      -0.0877
    113  N         20.7600   22.5180   36.0380 N.am   72  ALA72      -0.1963
    114  CA        20.6110   23.6100   35.0850 C.3    72  ALA72       0.1728
    115  C         19.4100   24.4950   35.3680 C.2    72  ALA72       0.2616
    116  O         19.2210   25.4780   34.6700 O.2    72  ALA72      -0.2715
    117  CB        20.5240   23.0690   33.6710 C.3    72  ALA72       0.0334
    118  N         18.5830   24.1450   36.3550 N.am   73  HIS73      -0.1959
    119  CA        17.3590   24.9080   36.6680 C.3    73  HIS73       0.1787
    120  C         16.4920   25.0600   35.4330 C.2    73  HIS73       0.2620
    121  O         16.0980   26.1660   35.0430 O.2    73  HIS73      -0.2715
    122  CB        17.6710   26.2620   37.3070 C.3    73  HIS73       0.0785
    123  CG        18.5000   26.1540   38.5400 C.ar   73  HIS73       0.0821
    124  ND1       18.1470   25.3620   39.6120 N.ar   73  HIS73      -0.2267
    125  CD2       19.6670   26.7500   38.8770 C.ar   73  HIS73       0.1154
    126  CE1       19.0630   25.4850   40.5600 C.ar   73  HIS73       0.1986
    127  NE2       20.0030   26.3060   40.1320 N.ar   73  HIS73      -0.2212
    128  N         16.2190   23.9210   34.8160 N.am   74  SER74      -0.1950
    129  CA        15.4240   23.8480   33.6090 C.3    74  SER74       0.1924
    130  C         14.8790   22.4320   33.4490 C.2    74  SER74       0.2314
    131  O         15.3260   21.5000   34.1120 O.2    74  SER74      -0.2863
    132  CB        16.2080   24.3020   32.3740 C.3    74  SER74       0.2116
    133  OG        17.3620   23.5280   32.2170 O.3    74  SER74      -0.2180
    134  N         12.8140   19.8600   30.2200 N.3    76  THR76      -0.1218
    135  CA        12.3640   19.7170   28.8420 C.3    76  THR76       0.1862
    136  C         11.2320   18.7150   28.7670 C.2    76  THR76       0.2287
    137  O         11.2970   17.6710   29.4240 O.2    76  THR76      -0.2866
    138  CB        13.5190   19.2950   27.9310 C.3    76  THR76       0.1770
    139  OG1       14.5160   20.3110   28.0180 O.3    76  THR76      -0.2211
    140  CG2       13.0930   19.1140   26.4810 C.3    76  THR76       0.0375
    141  N          9.1510   16.4650   25.7200 N.3    78  TRP78      -0.1241
    142  CA         9.0860   16.0200   24.3330 C.3    78  TRP78       0.1605
    143  C          7.6900   15.4890   24.0860 C.2    78  TRP78       0.2264
    144  O          7.2000   14.6520   24.8460 O.2    78  TRP78      -0.2867
    145  CB        10.0810   14.8960   24.0790 C.3    78  TRP78       0.0550
    146  CG        11.5330   15.2700   24.0790 C.ar   78  TRP78       0.0003
    147  CD1       12.3200   15.4210   22.9900 C.ar   78  TRP78       0.0946
    148  CD2       12.3860   15.4730   25.2140 C.ar   78  TRP78       0.0152
    149  NE1       13.6060   15.7170   23.3520 N.ar   78  TRP78      -0.2442
    150  CE2       13.6840   15.7440   24.7180 C.ar   78  TRP78       0.0810
    151  CE3       12.1930   15.4280   26.6020 C.ar   78  TRP78       0.0012
    152  CZ2       14.7730   15.9580   25.5580 C.ar   78  TRP78       0.0191
    153  CZ3       13.2740   15.6290   27.4380 C.ar   78  TRP78       0.0001
    154  CH2       14.5500   15.8750   26.9110 C.ar   78  TRP78       0.0015
    155  N          9.9930   19.5510   21.0760 N.3    94  TRP94      -0.1241
    156  CA        10.3090   19.7570   22.4800 C.3    94  TRP94       0.1605
    157  C         10.1590   21.2040   22.8940 C.2    94  TRP94       0.2264
    158  O         10.2480   22.1340   22.0790 O.2    94  TRP94      -0.2867
    159  CB        11.6860   19.1810   22.8590 C.3    94  TRP94       0.0550
    160  CG        12.8950   19.6400   22.1010 C.ar   94  TRP94       0.0003
    161  CD1       13.6310   18.8960   21.2380 C.ar   94  TRP94       0.0946
    162  CD2       13.5850   20.9020   22.2210 C.ar   94  TRP94       0.0152
    163  NE1       14.7230   19.6050   20.7970 N.ar   94  TRP94      -0.2442
    164  CE2       14.7100   20.8440   21.3740 C.ar   94  TRP94       0.0810
    165  CE3       13.3690   22.0720   22.9560 C.ar   94  TRP94       0.0012
    166  CZ2       15.5970   21.9170   21.2150 C.ar   94  TRP94       0.0191
    167  CZ3       14.2600   23.1400   22.7910 C.ar   94  TRP94       0.0001
    168  CH2       15.3680   23.0440   21.9400 C.ar   94  TRP94       0.0015
    169  N         11.7990   23.5100   26.1480 N.3    96  LEU96      -0.1245
    170  CA        12.8020   23.5750   27.2150 C.3    96  LEU96       0.1561
    171  C         12.5550   24.8600   27.9900 C.2    96  LEU96       0.2260
    172  O         12.7190   25.9590   27.4400 O.2    96  LEU96      -0.2867
    173  CB        14.1970   23.5640   26.5920 C.3    96  LEU96       0.0270
    174  CG        15.3930   24.0390   27.4230 C.3    96  LEU96       0.0019
    175  CD1       15.5350   23.3260   28.7470 C.3    96  LEU96       0.0001
    176  CD2       16.6640   23.8770   26.6180 C.3    96  LEU96       0.0001
    177  N         13.3240   27.2310   31.3940 N.3    98  SER98      -0.1202
    178  CA        14.1490   27.6080   32.5450 C.3    98  SER98       0.2020
    179  C         13.3410   28.2390   33.6390 C.2    98  SER98       0.2619
    180  O         12.3630   28.9500   33.3830 O.2    98  SER98      -0.2717
    181  CB        15.1730   28.6620   32.1660 C.3    98  SER98       0.2103
    182  OG        16.2360   28.0700   31.4930 O.3    98  SER98      -0.2182
    183  N         13.7730   28.0210   34.8850 N.am   99  GLY99      -0.1956
    184  CA        13.2850   28.8580   35.9720 C.3    99  GLY99       0.1869
    185  C         13.8590   30.2570   35.7910 C.2    99  GLY99       0.2309
    186  O         15.0590   30.4180   35.6230 O.2    99  GLY99      -0.2863
    187  N         11.0770   35.0310   28.1170 N.3   107  LYS107     -0.1231
    188  CA        12.1510   34.3380   27.4280 C.3   107  LYS107      0.1693
    189  C         12.5750   33.0710   28.1650 C.2   107  LYS107      0.2592
    190  O         13.7280   32.6480   28.0820 O.2   107  LYS107     -0.2718
    191  CB        13.3240   35.2740   27.1250 C.3   107  LYS107      0.0285
    192  CG        13.9580   35.9990   28.2950 C.3   107  LYS107      0.0035
    193  CD        15.1860   36.7650   27.8130 C.3   107  LYS107      0.0206
    194  CE        15.6930   37.7590   28.8340 C.3   107  LYS107      0.1093
    195  NZ        16.9190   38.4450   28.3320 N.3   107  LYS107     -0.1314
    196  N         11.6120   32.4280   28.8160 N.am  108  SER108     -0.1952
    197  CA        11.8770   31.2130   29.5850 C.3   108  SER108      0.1924
    198  C         11.8430   29.9140   28.7930 C.2   108  SER108      0.2314
    199  O         12.3590   28.9250   29.3000 O.2   108  SER108     -0.2863
    200  CB        10.8710   31.0620   30.7370 C.3   108  SER108      0.2116
    201  OG         9.5670   30.8090   30.2580 O.3   108  SER108     -0.2180
    202  N         12.3320   27.7140   25.2300 N.3   110  LEU110     -0.1245
    203  CA        12.8050   27.4130   23.8880 C.3   110  LEU110      0.1561
    204  C         12.0040   26.2790   23.2560 C.2   110  LEU110      0.2260
    205  O         11.5040   25.4040   23.9600 O.2   110  LEU110     -0.2867
    206  CB        14.2670   26.9720   23.9430 C.3   110  LEU110      0.0270
    207  CG        15.2770   28.0290   24.3720 C.3   110  LEU110      0.0019
    208  CD1       16.5620   27.3500   24.8020 C.3   110  LEU110      0.0001
    209  CD2       15.5380   29.0470   23.2740 C.3   110  LEU110      0.0001
    210  N         13.0590   20.4210   18.0240 N.3   113  HIS113     -0.1226
    211  CA        12.5990   19.1240   17.5420 C.3   113  HIS113      0.1752
    212  C         13.7680   18.1600   17.5440 C.2   113  HIS113      0.2596
    213  O         14.9340   18.5620   17.4750 O.2   113  HIS113     -0.2718
    214  CB        12.0140   19.2250   16.1210 C.3   113  HIS113      0.0759
    215  CG        12.8940   19.9450   15.1650 C.ar  113  HIS113      0.0818
    216  ND1       13.7790   19.2880   14.3460 N.ar  113  HIS113     -0.2268
    217  CD2       13.0380   21.2650   14.9070 C.ar  113  HIS113      0.1154
    218  CE1       14.4300   20.1770   13.6130 C.ar  113  HIS113      0.1986
    219  NE2       14.0040   21.3840   13.9400 N.ar  113  HIS113     -0.2212
    220  N         13.4570   16.8710   17.5980 N.am  114  ASP114     -0.1974
    221  CA        14.4840   15.8410   17.4950 C.3   114  ASP114      0.1709
    222  C         13.8360   14.5220   17.1200 C.2   114  ASP114      0.2293
    223  O         12.6360   14.3270   17.3180 O.2   114  ASP114     -0.2864
    224  CB        15.2560   15.7060   18.8190 C.3   114  ASP114      0.1436
    225  CG        16.6850   15.1540   18.6470 C.2   114  ASP114      0.3671
    226  OD1       17.1270   14.9120   17.5020 O.co2 114  ASP114     -0.2456
    227  OD2       17.3560   14.9990   19.6870 O.co2 114  ASP114     -0.2456
@<TRIPOS>BOND
     1   218   219   ar
     2   218   216   ar
     3   219   217   ar
     4   216   215   ar
     5   217   215   ar
     6   215   214    1
     7   214   211    1
     8   222   223    2
     9   222   221    1
    10    16    14    1
    11   213   212    2
    12   221   220    1
    13   221   224    1
    14   226   225   ar
    15   211   212    1
    16   211   210    1
    17   212   220   am
    18     9    10    1
    19     3     4    2
    20     3     2    1
    21    14    15    1
    22    14    13    1
    23    10    13    1
    24    10    11    1
    25     2     5    1
    26     2     1    1
    27   225   224    1
    28   225   227   ar
    29     5     6    1
    30    11    12    2
    31     6     7    2
    32     6     8   am
    33   163   161   ar
    34   163   164   ar
    35   155   156    1
    36   166   164   ar
    37   166   168   ar
    38   161   160   ar
    39   164   162   ar
    40   168   167   ar
    41    17    18    1
    42   158   157    2
    43   160   162   ar
    44   160   159    1
    45   162   165   ar
    46    20    19    2
    47   156   159    1
    48   156   157    1
    49   167   165   ar
    50   147   149   ar
    51   147   146   ar
    52    54    51    1
    53   204   203    1
    54   204   205    2
    55    22    21    1
    56   209   207    1
    57    18    19    1
    58    18    21    1
    59   149   150   ar
    60   203   206    1
    61   203   202    1
    62   206   207    1
    63    34    33    1
    64   145   146    1
    65   145   142    1
    66   146   148   ar
    67   143   142    1
    68   143   144    2
    69    51    52    1
    70    51    50    1
    71   142   141    1
    72   207   208    1
    73   150   148   ar
    74   150   152   ar
    75    53    52    2
    76    52    55   am
    77    50    46   am
    78   148   151   ar
    79    33    31   ar
    80    33    32   ar
    81    31    29   ar
    82   152   154   ar
    83    55    56    1
    84   169   170    1
    85    61    59    1
    86    46    47    2
    87    46    45    1
    88    32    30   ar
    89   140   138    1
    90   173   170    1
    91   173   174    1
    92   151   153   ar
    93   176   174    1
    94    56    59    1
    95    56    57    1
    96    29    28   ar
    97   154   153   ar
    98    38    37    2
    99    45    48    1
   100    45    44    1
   101   191   188    1
   102   191   192    1
   103   170   171    1
   104    59    60    1
   105   174   175    1
   106   188   187    1
   107   188   189    1
   108   172   171    2
   109    30    28   ar
   110    48    49    1
   111   193   192    1
   112   193   194    1
   113    28    27    1
   114    57    58    2
   115   138   139    1
   116   138   135    1
   117    37    44   am
   118    37    36    1
   119   190   189    2
   120   189   196   am
   121   195   194    1
   122    43    41   ar
   123   136   135    1
   124   136   137    2
   125   198   199    2
   126   198   197    1
   127   196   197    1
   128    40    41    1
   129    40    39    1
   130   135   134    1
   131    91    93   ar
   132    91    89   ar
   133    93    92   ar
   134    35    36    1
   135    35    25   am
   136    27    24    1
   137    36    39    1
   138    41    42   ar
   139    24    25    1
   140    24    23    1
   141   197   200    1
   142    25    26    2
   143    89    88   ar
   144    89    87   ar
   145    88    86   ar
   146    92    90   ar
   147   201   200    1
   148    67    66    1
   149    87    90   ar
   150    87    85   ar
   151    86    85   ar
   152    66    63    1
   153   177   178    1
   154   182   181    1
   155    65    64    2
   156   103   102    1
   157    85    84    1
   158   181   178    1
   159   133   132    1
   160   132   129    1
   161    63    64    1
   162    63    62    1
   163    77    75   ar
   164    77    78   ar
   165   178   179    1
   166   104   102    1
   167    75    73   ar
   168   102   101    2
   169    84    81    1
   170    71    70    2
   171   180   179    2
   172    79    78    1
   173   130   129    1
   174   130   131    2
   175    78    76   ar
   176    73    72    1
   177    73    74   ar
   178    72    69    1
   179   129   128    1
   180   179   183   am
   181   117   114    1
   182    68    69    1
   183   101   100    1
   184    81    80    1
   185    81    82    1
   186    70    69    1
   187    76    74   ar
   188   116   115    2
   189   128   120   am
   190   183   184    1
   191   100    99    1
   192   121   120    2
   193   114   115    1
   194   114   113    1
   195   115   118   am
   196   120   119    1
   197    82    83    2
   198   186   185    2
   199   185   184    1
   200   113   107   am
   201    99    98    1
   202   118   119    1
   203   119   122    1
   204   107   108    2
   205   107   106    1
   206    98    95    1
   207   122   123    1
   208   106   105    1
   209   106   109    1
   210   105    96   am
   211    96    97    2
   212    96    95    1
   213   111   110    2
   214   123   125   ar
   215   123   124   ar
   216    95    94    1
   217   125   127   ar
   218   110   109    1
   219   110   112   am
   220   124   126   ar
   221   127   126   ar
