@<TRIPOS>MOLECULE
tmp/5n8cB00.pdb
 199 189 0 0 0
SMALL
GASTEIGER

@<TRIPOS>ATOM
      1  N         16.8840   27.6980   -9.9240 N.3    19  LEU19      -0.1231
      2  CA        16.6610   26.3250  -10.3370 C.3    19  LEU19       0.1693
      3  C         15.7760   26.2260  -11.6370 C.2    19  LEU19       0.2592
      4  O         16.0850   25.4650  -12.5780 O.2    19  LEU19      -0.2718
      5  CB        15.9480   25.5270   -9.2390 C.3    19  LEU19       0.0284
      6  CG        15.5970   24.0490   -9.4940 C.3    19  LEU19       0.0019
      7  CD1       16.8090   23.2720   -9.9040 C.3    19  LEU19       0.0001
      8  CD2       15.0090   23.4440   -8.2260 C.3    19  LEU19       0.0001
      9  N         14.6630   26.9500  -11.6460 N.am   20  HIS20      -0.1976
     10  CA        13.6660   26.7920  -12.6970 C.3    20  HIS20       0.1656
     11  C         14.0370   27.7030  -13.8050 C.2    20  HIS20       0.2291
     12  O         14.0910   27.3280  -14.9770 O.2    20  HIS20      -0.2864
     13  CB        12.2150   27.0510  -12.2160 C.3    20  HIS20       0.0771
     14  CG        11.6450   25.9310  -11.4350 C.ar   20  HIS20       0.0820
     15  ND1       11.5900   24.6470  -11.9300 N.ar   20  HIS20      -0.2267
     16  CD2       11.1800   25.8670  -10.1650 C.ar   20  HIS20       0.1154
     17  CE1       11.0920   23.8420  -11.0030 C.ar   20  HIS20       0.1986
     18  NE2       10.8400   24.5570   -9.9160 N.ar   20  HIS20      -0.2212
     19  N          5.9940   22.1220   -7.7720 N.3    63  MET63      -0.1230
     20  CA         7.3930   21.7440   -7.8240 C.3    63  MET63       0.1702
     21  C          8.1180   22.2030   -6.5420 C.2    63  MET63       0.2593
     22  O          8.8010   21.3870   -5.8490 O.2    63  MET63      -0.2718
     23  CB         8.0380   22.2710   -9.1140 C.3    63  MET63       0.0401
     24  CG         7.3780   21.6600  -10.3770 C.3    63  MET63       0.0596
     25  SD         7.8050   22.6200  -11.8370 S.3    63  MET63      -0.1393
     26  CE         6.8540   24.1610  -11.6110 C.3    63  MET63       0.0692
     27  N          7.9730   23.4820   -6.2570 N.am   64  SER64      -0.1952
     28  CA         8.6710   24.1450   -5.1790 C.3    64  SER64       0.1924
     29  C          7.6490   25.1580   -4.6470 C.2    64  SER64       0.2314
     30  O          6.5620   25.2520   -5.1770 O.2    64  SER64      -0.2863
     31  CB         9.8960   24.8820   -5.7020 C.3    64  SER64       0.2116
     32  OG         9.4930   25.9900   -6.4860 O.3    64  SER64      -0.2180
     33  N         10.7100   29.1220   -5.3310 N.3    76  THR76      -0.1218
     34  CA        11.6780   28.3110   -4.6110 C.3    76  THR76       0.1862
     35  C         12.1560   28.9660   -3.3130 C.2    76  THR76       0.2287
     36  O         13.3280   29.1910   -3.0710 O.2    76  THR76      -0.2866
     37  CB        12.8240   27.9590   -5.5920 C.3    76  THR76       0.1770
     38  OG1       12.2330   27.6780   -6.8700 O.3    76  THR76      -0.2211
     39  CG2       13.5980   26.7000   -5.1370 C.3    76  THR76       0.0375
     40  N         11.7730   27.7850   -0.2220 N.3    78  GLU78      -0.1231
     41  CA        11.7930   26.8670    0.9250 C.3    78  GLU78       0.1699
     42  C         13.1490   26.5740    1.4750 C.2    78  GLU78       0.2592
     43  O         13.2640   26.3410    2.6730 O.2    78  GLU78      -0.2718
     44  CB        11.1020   25.4970    0.5960 C.3    78  GLU78       0.0402
     45  CG        11.6460   24.7800   -0.6280 C.3    78  GLU78       0.1161
     46  CD        10.9140   25.0970   -1.9530 C.2    78  GLU78       0.3649
     47  OE1       10.4040   26.2230   -2.1710 O.co2  78  GLU78      -0.2457
     48  OE2       10.9510   24.2260   -2.8510 O.co2  78  GLU78      -0.2457
     49  N         14.1890   26.5340    0.6410 N.am   79  HIS79      -0.1976
     50  CA        15.5070   26.2710    1.1970 C.3    79  HIS79       0.1656
     51  C         16.0560   27.4120    1.9670 C.2    79  HIS79       0.2291
     52  O         16.6820   27.2040    3.0320 O.2    79  HIS79      -0.2864
     53  CB        16.5310   25.8070    0.1370 C.3    79  HIS79       0.0771
     54  CG        16.0550   24.6130   -0.6390 C.ar   79  HIS79       0.0820
     55  ND1       16.6170   24.2190   -1.8380 N.ar   79  HIS79      -0.2267
     56  CD2       15.0310   23.7490   -0.3960 C.ar   79  HIS79       0.1154
     57  CE1       15.9180   23.1790   -2.3080 C.ar   79  HIS79       0.1986
     58  NE2       14.9700   22.8700   -1.4310 N.ar   79  HIS79      -0.2212
     59  N         18.6280   18.8740   -2.6070 N.3   191  THR191     -0.1203
     60  CA        17.4650   18.4940   -3.3750 C.3   191  THR191      0.1994
     61  C         17.8130   17.3680   -4.3720 C.2   191  THR191      0.2618
     62  O         19.0130   17.0420   -4.6460 O.2   191  THR191     -0.2717
     63  CB        16.8260   19.6930   -4.1170 C.3   191  THR191      0.1784
     64  OG1       15.5450   19.2960   -4.6170 O.3   191  THR191     -0.2211
     65  CG2       17.6800   20.1700   -5.2630 C.3   191  THR191      0.0376
     66  N         16.7460   16.7730   -4.8890 N.am  192  PHE192     -0.1961
     67  CA        16.8830   15.5890   -5.7180 C.3   192  PHE192      0.1771
     68  C         15.8070   15.4640   -6.7480 C.2   192  PHE192      0.2620
     69  O         14.7180   16.0490   -6.6460 O.2   192  PHE192     -0.2715
     70  CB        16.9990   14.2950   -4.8590 C.3   192  PHE192      0.0574
     71  CG        15.8020   14.0210   -4.0310 C.ar  192  PHE192     -0.0200
     72  CD1       14.7280   13.3040   -4.5620 C.ar  192  PHE192     -0.0042
     73  CD2       15.7280   14.5160   -2.7280 C.ar  192  PHE192     -0.0042
     74  CE1       13.5890   13.0460   -3.8040 C.ar  192  PHE192     -0.0003
     75  CE2       14.6080   14.2510   -1.9620 C.ar  192  PHE192     -0.0003
     76  CZ        13.5260   13.5370   -2.5070 C.ar  192  PHE192     -0.0000
     77  N         16.1010   14.6410   -7.7430 N.am  193  GLY193     -0.1954
     78  CA        15.1590   14.3360   -8.7770 C.3   193  GLY193      0.1869
     79  C         15.5000   13.0740   -9.5390 C.2   193  GLY193      0.2309
     80  O         16.6840   12.6400   -9.5790 O.2   193  GLY193     -0.2863
     81  N         15.4570   10.9170  -13.0050 N.3   195  MET195     -0.1245
     82  CA        15.7490   11.2760  -14.4050 C.3   195  MET195      0.1570
     83  C         14.5340   11.6110  -15.2840 C.2   195  MET195      0.2261
     84  O         14.4920   12.6660  -15.9210 O.2   195  MET195     -0.2867
     85  CB        16.5520   10.1420  -15.0610 C.3   195  MET195      0.0387
     86  CG        17.0480   10.4160  -16.4640 C.3   195  MET195      0.0595
     87  SD        18.2020   11.8200  -16.6180 S.3   195  MET195     -0.1393
     88  CE        19.2480   11.4580  -15.3070 C.3   195  MET195      0.0692
     89  N         12.7780   14.8060  -14.1560 N.3   198  ILE198     -0.1231
     90  CA        13.5670   15.9680  -14.5330 C.3   198  ILE198      0.1692
     91  C         13.5060   16.3160  -16.0330 C.2   198  ILE198      0.2591
     92  O         13.3920   17.4570  -16.4200 O.2   198  ILE198     -0.2718
     93  CB        15.0160   15.7060  -14.1610 C.3   198  ILE198      0.0266
     94  CG1       15.2160   15.8130  -12.6790 C.3   198  ILE198      0.0019
     95  CG2       15.9700   16.5640  -14.9010 C.3   198  ILE198      0.0020
     96  CD1       16.5430   15.0420  -12.4180 C.3   198  ILE198      0.0001
     97  N         13.6060   15.2990  -16.8550 N.am  199  GLU199     -0.1979
     98  CA        13.4760   15.4840  -18.2910 C.3   199  GLU199      0.1602
     99  C         12.1070   16.0180  -18.6660 C.2   199  GLU199      0.2287
    100  O         12.0200   16.8850  -19.5350 O.2   199  GLU199     -0.2864
    101  CB        13.8500   14.2060  -19.0150 C.3   199  GLU199      0.0415
    102  CG        15.3760   14.1060  -18.9550 C.3   199  GLU199      0.1163
    103  CD        15.9240   12.8450  -19.4730 C.2   199  GLU199      0.3649
    104  OE1       15.3200   11.7640  -19.1710 O.co2 199  GLU199     -0.2457
    105  OE2       16.8920   12.9820  -20.2370 O.co2 199  GLU199     -0.2457
    106  N         10.2760   18.0180  -16.8050 N.3   201  LEU201     -0.1231
    107  CA        10.3710   19.4170  -16.4510 C.3   201  LEU201      0.1693
    108  C         11.1340   20.2180  -17.4730 C.2   201  LEU201      0.2591
    109  O         10.6730   21.2670  -17.9300 O.2   201  LEU201     -0.2718
    110  CB        11.0360   19.5720  -15.0620 C.3   201  LEU201      0.0284
    111  CG        10.1290   19.0920  -13.9230 C.3   201  LEU201      0.0019
    112  CD1       10.8160   19.4430  -12.6050 C.3   201  LEU201      0.0001
    113  CD2        8.7630   19.7030  -13.9040 C.3   201  LEU201      0.0001
    114  N         12.2820   19.7180  -17.8880 N.am  202  ARG202     -0.1980
    115  CA        13.0010   20.4150  -18.9600 C.3   202  ARG202      0.1597
    116  C         12.1910   20.5520  -20.2800 C.2   202  ARG202      0.2287
    117  O         12.3270   21.5670  -20.9720 O.2   202  ARG202     -0.2864
    118  CB        14.3330   19.7350  -19.2410 C.3   202  ARG202      0.0334
    119  CG        15.3250   19.8040  -18.1030 C.3   202  ARG202      0.0492
    120  CD        15.9550   21.1530  -17.9200 C.3   202  ARG202      0.2205
    121  NE        17.1280   21.1940  -18.7310 N.pl3 202  ARG202     -0.0865
    122  CZ        18.3840   21.3720  -18.3400 C.cat 202  ARG202      0.5346
    123  NH1       19.2590   21.3130  -19.2980 N.pl3 202  ARG202      0.1354
    124  NH2       18.7860   21.6370  -17.0660 N.pl3 202  ARG202      0.1354
    125  N         13.1290   23.7320  -14.6150 N.3   207  ALA207     -0.1245
    126  CA        14.3580   23.0830  -14.0830 C.3   207  ALA207      0.1562
    127  C         15.5700   23.4610  -14.9060 C.2   207  ALA207      0.2260
    128  O         16.5710   22.7490  -14.9060 O.2   207  ALA207     -0.2867
    129  CB        14.1870   21.5570  -14.0700 C.3   207  ALA207      0.0290
    130  N         18.9250   23.3430  -13.1540 N.3   210  GLY210     -0.1210
    131  CA        19.3040   22.1590  -12.4430 C.3   210  GLY210      0.1956
    132  C         20.4690   21.4570  -13.0780 C.2   210  GLY210      0.2613
    133  O         20.6390   21.4770  -14.3260 O.2   210  GLY210     -0.2717
    134  N         21.2980   20.8620  -12.2340 N.am  211  SER211     -0.1938
    135  CA        22.4600   20.0420  -12.6850 C.3   211  SER211      0.2055
    136  C         22.9640   19.1910  -11.5720 C.2   211  SER211      0.2642
    137  O         22.5330   19.3550  -10.4370 O.2   211  SER211     -0.2714
    138  CB        23.5980   20.9230  -13.1910 C.3   211  SER211      0.2130
    139  OG        24.2660   21.4850  -12.0510 O.3   211  SER211     -0.2179
    140  N         23.9190   18.2860  -11.8470 N.am  212  VAL212     -0.1977
    141  CA        24.5590   17.5660  -10.7690 C.3   212  VAL212      0.1596
    142  C         25.3390   18.4540   -9.7770 C.2   212  VAL212      0.2287
    143  O         25.6130   18.0330   -8.7180 O.2   212  VAL212     -0.2864
    144  CB        25.4720   16.4380  -11.2470 C.3   212  VAL212      0.0276
    145  CG1       24.6210   15.3220  -11.7940 C.3   212  VAL212      0.0022
    146  CG2       26.5300   16.9380  -12.2590 C.3   212  VAL212      0.0022
    147  N         21.9190   19.3010   -7.4480 N.3   215  ALA215     -0.1245
    148  CA        20.8560   18.3390   -7.1800 C.3   215  ALA215      0.1562
    149  C         21.4590   16.9310   -7.3040 C.2   215  ALA215      0.2260
    150  O         22.3590   16.6930   -8.1010 O.2   215  ALA215     -0.2867
    151  CB        19.7510   18.5320   -8.1800 C.3   215  ALA215      0.0290
    152  N         20.8380   13.5520   -8.8250 N.3   217  VAL217     -0.1245
    153  CA        20.1330   13.0140   -9.9860 C.3   217  VAL217      0.1561
    154  C         20.1700   11.4900   -9.9010 C.2   217  VAL217      0.2260
    155  O         21.2530   10.9350   -9.8470 O.2   217  VAL217     -0.2867
    156  CB        20.8170   13.4890  -11.2830 C.3   217  VAL217      0.0252
    157  CG1       20.0910   12.9290  -12.5180 C.3   217  VAL217      0.0019
    158  CG2       20.8650   15.0120  -11.2930 C.3   217  VAL217      0.0019
    159  N         16.5190   15.8510    3.1370 N.3   238  HIS238     -0.1226
    160  CA        16.1010   16.9770    2.3390 C.3   238  HIS238      0.1752
    161  C         14.6150   17.2900    2.5020 C.2   238  HIS238      0.2595
    162  O         14.2230   18.5030    2.5810 O.2   238  HIS238     -0.2718
    163  CB        16.4450   16.8500    0.8710 C.3   238  HIS238      0.0759
    164  CG        16.1500   18.1190    0.1170 C.ar  238  HIS238      0.0818
    165  ND1       17.0140   19.2040    0.1510 N.ar  238  HIS238     -0.2268
    166  CD2       15.0480   18.5340   -0.5590 C.ar  238  HIS238      0.1154
    167  CE1       16.4770   20.2110   -0.5080 C.ar  238  HIS238      0.1986
    168  NE2       15.2870   19.8430   -0.9370 N.ar  238  HIS238     -0.2212
    169  N         13.7830   16.2250    2.5560 N.am  239  LYS239     -0.1980
    170  CA        12.3670   16.3870    2.7730 C.3   239  LYS239      0.1596
    171  C         12.0480   17.0790    4.0850 C.2   239  LYS239      0.2287
    172  O         11.1050   17.8960    4.1620 O.2   239  LYS239     -0.2864
    173  CB        11.6070   15.0680    2.6530 C.3   239  LYS239      0.0298
    174  CG        11.6760   14.4610    1.2170 C.3   239  LYS239      0.0038
    175  CD        10.8560   15.0650    0.0870 C.3   239  LYS239      0.0206
    176  CE         9.3310   15.0810    0.4500 C.3   239  LYS239      0.1093
    177  NZ         8.5650   15.7620   -0.6180 N.3   239  LYS239     -0.1314
    178  N         12.8800   20.7170    3.5770 N.3   242  ASP242     -0.1239
    179  CA        11.7730   21.3410    2.8580 C.3   242  ASP242      0.1674
    180  C         10.6610   21.6950    3.8150 C.2   242  ASP242      0.2266
    181  O         10.0570   22.7410    3.6980 O.2   242  ASP242     -0.2867
    182  CB        11.1810   20.4630    1.7240 C.3   242  ASP242      0.1410
    183  CG        12.0230   20.4640    0.4540 C.2   242  ASP242      0.3668
    184  OD1       12.8900   21.3730    0.2750 O.co2 242  ASP242     -0.2456
    185  OD2       11.8030   19.5410   -0.3550 O.co2 242  ASP242     -0.2456
    186  N          4.6000   16.8240    0.5230 N.3   264  GLY264     -0.1210
    187  CA         5.4500   17.8020   -0.1120 C.3   264  GLY264      0.1956
    188  C          4.9140   19.1910    0.1080 C.2   264  GLY264      0.2611
    189  O          4.1140   19.4040    1.0160 O.2   264  GLY264     -0.2717
    190  N          5.3020   20.1250   -0.7730 N.am  265  HIS265     -0.1975
    191  CA         4.9550   21.5130   -0.5760 C.3   265  HIS265      0.1656
    192  C          3.4070   21.7390   -0.5080 C.2   265  HIS265      0.2291
    193  O          2.9490   22.5580    0.2670 O.2   265  HIS265     -0.2864
    194  CB         5.5330   22.3660   -1.7140 C.3   265  HIS265      0.0771
    195  CG         6.9690   22.1400   -1.9210 C.ar  265  HIS265      0.0820
    196  ND1        7.8860   22.3030   -0.9140 N.ar  265  HIS265     -0.2267
    197  CD2        7.6380   21.6430   -2.9710 C.ar  265  HIS265      0.1154
    198  CE1        9.0840   21.9650   -1.3570 C.ar  265  HIS265      0.1986
    199  NE2        8.9640   21.5570   -2.6090 N.ar  265  HIS265     -0.2212
@<TRIPOS>BOND
     1   117   116    2
     2   116   115    1
     3   105   103   ar
     4   100    99    2
     5   103   104   ar
     6   103   102    1
     7   123   122    1
     8   118   115    1
     9   118   119    1
    10   101   102    1
    11   101    98    1
    12   115   114    1
    13   121   122    2
    14   121   120    1
    15    99    98    1
    16   122   124    1
    17    98    97    1
    18   119   120    1
    19   109   108    2
    20   114   108   am
    21   108   107    1
    22    97    91   am
    23   106   107    1
    24    87    86    1
    25    87    88    1
    26    86    85    1
    27   107   110    1
    28    92    91    2
    29    91    90    1
    30    84    83    2
    31    83    82    1
    32   110   111    1
    33    85    82    1
    34    12    11    2
    35   128   127    2
    36   127   126    1
    37    95    93    1
    38   125   126    1
    39    90    93    1
    40    90    89    1
    41    82    81    1
    42   133   132    2
    43    93    94    1
    44   126   129    1
    45   111   113    1
    46   111   112    1
    47    11    10    1
    48   138   135    1
    49   138   139    1
    50   130   131    1
    51   132   131    1
    52   132   134   am
    53    10    13    1
    54    10     9    1
    55   135   134    1
    56   135   136    1
    57    94    96    1
    58     4     3    2
    59   157   156    1
    60   146   144    1
    61    13    14    1
    62    15    14   ar
    63    15    17   ar
    64   140   136   am
    65   140   141    1
    66    25    26    1
    67    25    24    1
    68   145   144    1
    69     9     3   am
    70     3     2    1
    71   136   137    2
    72    14    16   ar
    73   158   156    1
    74   156   153    1
    75   144   141    1
    76    17    18   ar
    77   141   142    1
    78    24    23    1
    79     2     1    1
    80     2     5    1
    81    16    18   ar
    82   153   154    1
    83   153   152    1
    84     7     6    1
    85   154   155    2
    86   142   143    2
    87    80    79    2
    88    79    78    1
    89     6     5    1
    90     6     8    1
    91    23    20    1
    92    78    77    1
    93   151   148    1
    94   150   149    2
    95    20    19    1
    96    20    21    1
    97    77    68   am
    98   147   148    1
    99   149   148    1
   100    38    37    1
   101    68    69    2
   102    68    67    1
   103    21    27   am
   104    21    22    2
   105    32    31    1
   106    27    28    1
   107    67    66    1
   108    67    70    1
   109    31    28    1
   110    37    39    1
   111    37    34    1
   112    33    34    1
   113    65    63    1
   114    28    29    1
   115    30    29    2
   116    66    61   am
   117    70    71    1
   118    62    61    2
   119    64    63    1
   120    34    35    1
   121    72    71   ar
   122    72    74   ar
   123    61    60    1
   124    63    60    1
   125    71    73   ar
   126    74    76   ar
   127    60    59    1
   128    35    36    2
   129   197   199   ar
   130   197   195   ar
   131    48    46   ar
   132    73    75   ar
   133   199   198   ar
   134    76    75   ar
   135    57    55   ar
   136    57    58   ar
   137    47    46   ar
   138    46    45    1
   139   195   194    1
   140   195   196   ar
   141    55    54   ar
   142   194   191    1
   143    58    56   ar
   144   198   196   ar
   145   168   166   ar
   146   168   167   ar
   147   190   191    1
   148   190   188   am
   149    54    56   ar
   150    54    53    1
   151    45    44    1
   152   177   176    1
   153   191   192    1
   154   166   164   ar
   155   167   165   ar
   156   192   193    2
   157   185   183   ar
   158    40    41    1
   159   187   188    1
   160   187   186    1
   161   175   176    1
   162   175   174    1
   163   188   189    2
   164   164   165   ar
   165   164   163    1
   166    53    50    1
   167   184   183   ar
   168   183   182    1
   169    44    41    1
   170    49    50    1
   171    49    42   am
   172   163   160    1
   173    41    42    1
   174    50    51    1
   175   174   173    1
   176    42    43    2
   177   182   179    1
   178    51    52    2
   179   160   161    1
   180   160   159    1
   181   161   169   am
   182   161   162    2
   183   169   170    1
   184   173   170    1
   185   170   171    1
   186   179   178    1
   187   179   180    1
   188   181   180    2
   189   171   172    2
