@<TRIPOS>MOLECULE
tmp/5n8eD00.pdb
 172 165 0 0 0
SMALL
GASTEIGER

@<TRIPOS>ATOM
      1  N          6.2930   20.9770   41.1650 N.3     8  ASN8       -0.1240
      2  CA         6.1350   19.9780   40.1130 C.3     8  ASN8        0.1653
      3  C          5.8220   20.7010   38.7930 C.2     8  ASN8        0.2266
      4  O          5.8020   21.9470   38.7420 O.2     8  ASN8       -0.2867
      5  CB         5.1480   18.8810   40.5100 C.3     8  ASN8        0.1155
      6  CG         3.6900   19.2990   40.4590 C.2     8  ASN8        0.2627
      7  OD1        3.3420   20.4230   40.0720 O.2     8  ASN8       -0.2716
      8  ND2        2.8180   18.3780   40.8570 N.am    8  ASN8       -0.0877
      9  N          3.1670   21.1310   37.1030 N.3    10  LEU10      -0.1245
     10  CA         1.9410   21.9230   37.1490 C.3    10  LEU10       0.1561
     11  C          2.0810   23.1950   37.9830 C.2    10  LEU10       0.2260
     12  O          1.1250   23.9720   38.0910 O.2    10  LEU10      -0.2867
     13  CB         0.8100   21.0780   37.7230 C.3    10  LEU10       0.0270
     14  CG         0.5350   19.7430   37.0380 C.3    10  LEU10       0.0019
     15  CD1       -0.6260   19.0710   37.7410 C.3    10  LEU10       0.0001
     16  CD2        0.2400   19.9170   35.5530 C.3    10  LEU10       0.0001
     17  N          2.5570   23.1510   41.2150 N.3    12  SER12      -0.1217
     18  CA         2.1880   22.8940   42.5930 C.3    12  SER12       0.1889
     19  C          3.4220   23.1700   43.4410 C.2    12  SER12       0.2288
     20  O          4.5250   22.8250   43.0450 O.2    12  SER12      -0.2866
     21  CB         1.6840   21.4780   42.7250 C.3    12  SER12       0.2089
     22  OG         0.6240   21.3160   41.7910 O.3    12  SER12      -0.2183
     23  N          2.0530   22.3320   51.1770 N.3    28  TYR28      -0.1227
     24  CA         1.9190   22.0310   49.7660 C.3    28  TYR28       0.1736
     25  C          0.6370   22.6700   49.2690 C.2    28  TYR28       0.2595
     26  O         -0.4050   22.5370   49.9130 O.2    28  TYR28      -0.2718
     27  CB         1.8880   20.5160   49.5910 C.3    28  TYR28       0.0548
     28  CG         2.0840   19.9770   48.1800 C.ar   28  TYR28      -0.0200
     29  CD1        2.8120   20.6680   47.2050 C.ar   28  TYR28      -0.0009
     30  CD2        1.6170   18.7210   47.8500 C.ar   28  TYR28      -0.0009
     31  CE1        3.0100   20.1350   45.9440 C.ar   28  TYR28       0.0417
     32  CE2        1.8160   18.1780   46.5840 C.ar   28  TYR28       0.0417
     33  CZ         2.5160   18.8860   45.6390 C.ar   28  TYR28       0.1957
     34  OH         2.7150   18.3680   44.3880 O.3    28  TYR28      -0.2866
     35  N          0.7220   23.3830   48.1470 N.am   29  GLU29      -0.1965
     36  CA        -0.4170   24.1550   47.6240 C.3    29  GLU29       0.1733
     37  C         -0.4420   24.1930   46.1120 C.2    29  GLU29       0.2617
     38  O          0.5660   23.9360   45.4600 O.2    29  GLU29      -0.2715
     39  CB        -0.3980   25.5800   48.1800 C.3    29  GLU29       0.0429
     40  CG         0.7150   26.4540   47.6230 C.3    29  GLU29       0.1163
     41  CD         0.8740   27.7460   48.3880 C.2    29  GLU29       0.3649
     42  OE1        0.3930   28.7960   47.9120 O.co2  29  GLU29      -0.2457
     43  OE2        1.4700   27.7120   49.4760 O.co2  29  GLU29      -0.2457
     44  N         -1.6000   24.5420   45.5600 N.am   30  SER30      -0.1936
     45  CA        -1.7370   24.6830   44.1160 C.3    30  SER30       0.2055
     46  C         -1.0750   25.9620   43.6220 C.2    30  SER30       0.2642
     47  O         -0.8330   26.9000   44.3850 O.2    30  SER30      -0.2714
     48  CB        -3.2070   24.7120   43.7120 C.3    30  SER30       0.2130
     49  OG        -3.7740   25.9790   43.9770 O.3    30  SER30      -0.2179
     50  N         -0.8460   26.0020   42.3170 N.am   31  ALA31      -0.1977
     51  CA        -0.3350   27.2010   41.6500 C.3    31  ALA31       0.1597
     52  C         -1.2700   28.4190   41.7410 C.2    31  ALA31       0.2287
     53  O         -0.8170   29.5470   41.5650 O.2    31  ALA31      -0.2864
     54  CB        -0.0370   26.9020   40.1890 C.3    31  ALA31       0.0319
     55  N         -6.4670   25.7450   49.0090 N.3    37  SER37      -0.1217
     56  CA        -5.6360   24.7080   48.3910 C.3    37  SER37       0.1889
     57  C         -4.3300   24.3890   49.1330 C.2    37  SER37       0.2288
     58  O         -3.5080   23.6510   48.6150 O.2    37  SER37      -0.2866
     59  CB        -5.2860   25.1060   46.9600 C.3    37  SER37       0.2089
     60  OG        -4.1880   26.0140   46.9380 O.3    37  SER37      -0.2183
     61  N         -2.0850   22.7840   52.2320 N.3    39  TYR39      -0.1241
     62  CA        -2.1450   21.6830   53.2000 C.3    39  TYR39       0.1605
     63  C         -0.8170   21.5040   53.9100 C.2    39  TYR39       0.2264
     64  O          0.2530   21.7720   53.3560 O.2    39  TYR39      -0.2867
     65  CB        -2.5310   20.3590   52.5100 C.3    39  TYR39       0.0534
     66  CG        -3.8960   20.3960   51.8820 C.ar   39  TYR39      -0.0201
     67  CD1       -4.9960   19.8780   52.5410 C.ar   39  TYR39      -0.0009
     68  CD2       -4.1010   20.9750   50.6230 C.ar   39  TYR39      -0.0009
     69  CE1       -6.2610   19.9270   51.9810 C.ar   39  TYR39       0.0417
     70  CE2       -5.3590   21.0260   50.0550 C.ar   39  TYR39       0.0417
     71  CZ        -6.4400   20.5030   50.7320 C.ar   39  TYR39       0.1957
     72  OH        -7.6970   20.5560   50.1830 O.3    39  TYR39      -0.2866
     73  N         -5.4130   15.1250   53.3710 N.3    64  TRP64      -0.1241
     74  CA        -6.1420   16.1030   52.5470 C.3    64  TRP64       0.1605
     75  C         -7.3040   16.7670   53.2870 C.2    64  TRP64       0.2264
     76  O         -8.4230   16.8710   52.7740 O.2    64  TRP64      -0.2867
     77  CB        -6.5490   15.4760   51.2100 C.3    64  TRP64       0.0550
     78  CG        -5.3320   15.0520   50.4290 C.ar   64  TRP64       0.0003
     79  CD1       -4.9200   13.7790   50.1630 C.ar   64  TRP64       0.0946
     80  CD2       -4.3330   15.9210   49.8700 C.ar   64  TRP64       0.0152
     81  NE1       -3.7310   13.8000   49.4710 N.ar   64  TRP64      -0.2442
     82  CE2       -3.3560   15.1020   49.2720 C.ar   64  TRP64       0.0810
     83  CE3       -4.1940   17.3100   49.7840 C.ar   64  TRP64       0.0012
     84  CZ2       -2.2450   15.6270   48.6350 C.ar   64  TRP64       0.0191
     85  CZ3       -3.0890   17.8300   49.1490 C.ar   64  TRP64       0.0001
     86  CH2       -2.1310   16.9950   48.5880 C.ar   64  TRP64       0.0015
     87  N        -10.9920   15.7850   51.9560 N.3    71  ALA71      -0.1245
     88  CA       -11.2210   14.7140   50.9920 C.3    71  ALA71       0.1562
     89  C        -11.2440   13.3270   51.6380 C.2    71  ALA71       0.2260
     90  O        -11.5010   12.3360   50.9500 O.2    71  ALA71      -0.2867
     91  CB       -10.1630   14.7550   49.9050 C.3    71  ALA71       0.0290
     92  N         -8.6910   11.4580   52.8640 N.3    73  SER73      -0.1217
     93  CA        -7.6490   10.7340   52.1610 C.3    73  SER73       0.1889
     94  C         -6.3060   11.3130   52.5630 C.2    73  SER73       0.2288
     95  O         -6.2350   12.4060   53.1280 O.2    73  SER73      -0.2866
     96  CB        -7.8550   10.8140   50.6440 C.3    73  SER73       0.2089
     97  OG        -7.7750   12.1590   50.2210 O.3    73  SER73      -0.2183
     98  N         -1.9240   11.2140   51.1670 N.3    75  THR75      -0.1218
     99  CA        -0.8830   10.7680   50.2440 C.3    75  THR75       0.1862
    100  C          0.4550   10.7190   50.9460 C.2    75  THR75       0.2287
    101  O          0.7880   11.6420   51.7010 O.2    75  THR75      -0.2866
    102  CB        -0.8110   11.7100   49.0350 C.3    75  THR75       0.1770
    103  OG1       -2.0960   11.7420   48.4210 O.3    75  THR75      -0.2211
    104  CG2        0.2450   11.2630   48.0300 C.3    75  THR75       0.0375
    105  N          4.5830   10.3330   49.8870 N.3    77  TRP77      -0.1241
    106  CA         5.6080   10.3440   48.8530 C.3    77  TRP77       0.1605
    107  C          6.8750    9.7410   49.4290 C.2    77  TRP77       0.2264
    108  O          7.3180   10.1320   50.5070 O.2    77  TRP77      -0.2867
    109  CB         5.9180   11.7680   48.4370 C.3    77  TRP77       0.0550
    110  CG         4.8720   12.4810   47.6310 C.ar   77  TRP77       0.0003
    111  CD1        4.8940   12.7190   46.2870 C.ar   77  TRP77       0.0946
    112  CD2        3.7160   13.1460   48.1340 C.ar   77  TRP77       0.0152
    113  NE1        3.8090   13.4530   45.9160 N.ar   77  TRP77      -0.2442
    114  CE2        3.0700   13.7470   47.0330 C.ar   77  TRP77       0.0810
    115  CE3        3.1610   13.3050   49.4120 C.ar   77  TRP77       0.0012
    116  CZ2        1.8990   14.4960   47.1740 C.ar   77  TRP77       0.0191
    117  CZ3        2.0010   14.0710   49.5530 C.ar   77  TRP77       0.0001
    118  CH2        1.3940   14.6520   48.4390 C.ar   77  TRP77       0.0015
    119  N          4.3740    7.8230   44.8970 N.3    93  TRP93      -0.1241
    120  CA         3.3700    8.1530   45.9030 C.3    93  TRP93       0.1605
    121  C          2.2550    7.1290   45.9730 C.2    93  TRP93       0.2264
    122  O          1.9690    6.4320   44.9930 O.2    93  TRP93      -0.2867
    123  CB         2.8200    9.5740   45.7120 C.3    93  TRP93       0.0550
    124  CG         2.2390    9.9100   44.3760 C.ar   93  TRP93       0.0003
    125  CD1        2.8150   10.6970   43.4110 C.ar   93  TRP93       0.0946
    126  CD2        0.9370    9.5570   43.8750 C.ar   93  TRP93       0.0152
    127  NE1        1.9670   10.8300   42.3380 N.ar   93  TRP93      -0.2442
    128  CE2        0.8110   10.1360   42.5930 C.ar   93  TRP93       0.0810
    129  CE3       -0.1400    8.8090   44.3830 C.ar   93  TRP93       0.0012
    130  CZ2       -0.3330    9.9680   41.8120 C.ar   93  TRP93       0.0191
    131  CZ3       -1.2760    8.6460   43.5940 C.ar   93  TRP93       0.0001
    132  CH2       -1.3610    9.2240   42.3240 C.ar   93  TRP93       0.0015
    133  N         -1.7550    7.1640   47.4550 N.3    95  LEU95      -0.1245
    134  CA        -2.8850    7.9660   47.9000 C.3    95  LEU95       0.1561
    135  C         -3.9580    7.0120   48.3990 C.2    95  LEU95       0.2260
    136  O         -4.5490    6.2820   47.5950 O.2    95  LEU95      -0.2867
    137  CB        -3.3880    8.8230   46.7390 C.3    95  LEU95       0.0270
    138  CG        -4.7900    9.4250   46.8330 C.3    95  LEU95       0.0019
    139  CD1       -5.0330   10.2230   48.1030 C.3    95  LEU95       0.0001
    140  CD2       -5.0780   10.2690   45.6000 C.3    95  LEU95       0.0001
    141  N         -7.5830    6.5360   50.3050 N.3    97  SER97      -0.1217
    142  CA        -8.8580    7.0790   50.7590 C.3    97  SER97       0.1889
    143  C         -9.4230    6.2420   51.8890 C.2    97  SER97       0.2288
    144  O         -9.2990    5.0110   51.8720 O.2    97  SER97      -0.2866
    145  CB        -9.8600    7.0530   49.6100 C.3    97  SER97       0.2089
    146  OG        -9.4820    7.9580   48.5970 O.3    97  SER97      -0.2183
    147  N         -4.3930    4.5490   45.3320 N.3   109  LEU109     -0.1245
    148  CA        -3.8260    4.8860   44.0340 C.3   109  LEU109      0.1561
    149  C         -2.3180    5.0240   44.1490 C.2   109  LEU109      0.2260
    150  O         -1.8000    5.3900   45.2050 O.2   109  LEU109     -0.2867
    151  CB        -4.4330    6.2050   43.5470 C.3   109  LEU109      0.0270
    152  CG        -5.9200    6.1350   43.1940 C.3   109  LEU109      0.0019
    153  CD1       -6.5470    7.5230   43.1920 C.3   109  LEU109      0.0001
    154  CD2       -6.1420    5.4590   41.8510 C.3   109  LEU109      0.0001
    155  N          3.6860    8.7500   40.4760 N.3   112  HIS112     -0.1226
    156  CA         5.0290    9.2790   40.6270 C.3   112  HIS112      0.1752
    157  C          5.0250   10.7630   40.3330 C.2   112  HIS112      0.2596
    158  O          4.1000   11.2950   39.7060 O.2   112  HIS112     -0.2718
    159  CB         6.0280    8.5210   39.7370 C.3   112  HIS112      0.0759
    160  CG         5.6040    8.3990   38.3100 C.ar  112  HIS112      0.0818
    161  ND1        5.9910    9.2910   37.3350 N.ar  112  HIS112     -0.2268
    162  CD2        4.8260    7.4800   37.6940 C.ar  112  HIS112      0.1154
    163  CE1        5.4670    8.9240   36.1790 C.ar  112  HIS112      0.1986
    164  NE2        4.7580    7.8260   36.3670 N.ar  112  HIS112     -0.2212
    165  N          6.0270   11.4510   40.8500 N.am  113  ASP113     -0.1974
    166  CA         6.1820   12.8670   40.5440 C.3   113  ASP113      0.1709
    167  C          7.6150   13.2640   40.7710 C.2   113  ASP113      0.2293
    168  O          8.3420   12.6230   41.5380 O.2   113  ASP113     -0.2864
    169  CB         5.2260   13.7360   41.3830 C.3   113  ASP113      0.1436
    170  CG         4.8010   15.0340   40.6820 C.2   113  ASP113      0.3671
    171  OD1        5.3070   15.3740   39.5800 O.co2 113  ASP113     -0.2456
    172  OD2        3.9320   15.7260   41.2640 O.co2 113  ASP113     -0.2456
@<TRIPOS>BOND
     1    16    14    1
     2   163   164   ar
     3   163   161   ar
     4   164   162   ar
     5    14    13    1
     6    14    15    1
     7     9    10    1
     8    10    13    1
     9    10    11    1
    10   161   160   ar
    11   162   160   ar
    12    11    12    2
    13   160   159    1
    14     4     3    2
    15     3     2    1
    16   171   170   ar
    17   158   157    2
    18   159   156    1
    19     7     6    2
    20     2     5    1
    21     2     1    1
    22    54    51    1
    23   157   156    1
    24   157   165   am
    25     6     5    1
    26     6     8   am
    27   155   156    1
    28   166   167    1
    29   166   165    1
    30   166   169    1
    31   170   172   ar
    32   170   169    1
    33   167   168    2
    34    17    18    1
    35    53    52    2
    36    51    52    1
    37    51    50    1
    38    22    21    1
    39   130   132   ar
    40   130   128   ar
    41   154   152    1
    42    50    46   am
    43   132   131   ar
    44   127   128   ar
    45   127   125   ar
    46   128   126   ar
    47    18    21    1
    48    18    19    1
    49    20    19    2
    50   153   152    1
    51   152   151    1
    52   125   124   ar
    53   151   148    1
    54   131   129   ar
    55    46    45    1
    56    46    47    2
    57    48    49    1
    58    48    45    1
    59   126   124   ar
    60   126   129   ar
    61   148   149    1
    62   148   147    1
    63    45    44    1
    64   149   150    2
    65   124   123    1
    66    34    33    1
    67   119   120    1
    68   122   121    2
    69    38    37    2
    70    44    37   am
    71   140   138    1
    72    33    31   ar
    73    33    32   ar
    74   123   120    1
    75   120   121    1
    76   113   111   ar
    77   113   114   ar
    78    31    29   ar
    79    37    36    1
    80   111   110   ar
    81    32    30   ar
    82   137   138    1
    83   137   134    1
    84   138   139    1
    85    60    59    1
    86    59    56    1
    87   114   116   ar
    88   114   112   ar
    89   116   118   ar
    90    29    28   ar
    91   133   134    1
    92   136   135    2
    93    40    39    1
    94    40    41    1
    95    36    35    1
    96    36    39    1
    97   110   112   ar
    98   110   109    1
    99    30    28   ar
   100   134   135    1
   101    42    41   ar
   102   104   102    1
   103   112   115   ar
   104    35    25   am
   105    28    27    1
   106    41    43   ar
   107    56    55    1
   108    56    57    1
   109   103   102    1
   110   109   106    1
   111   118   117   ar
   112    86    84   ar
   113    86    85   ar
   114   146   145    1
   115    58    57    2
   116    84    82   ar
   117   106   107    1
   118   106   105    1
   119   102    99    1
   120    85    83   ar
   121    25    24    1
   122    25    26    2
   123    82    81   ar
   124    82    80   ar
   125   115   117   ar
   126   107   108    2
   127    81    79   ar
   128    27    24    1
   129   145   142    1
   130    24    23    1
   131    83    80   ar
   132    80    78   ar
   133    91    88    1
   134    70    68   ar
   135    70    71   ar
   136    79    78   ar
   137    72    71    1
   138    97    96    1
   139    99   100    1
   140    99    98    1
   141   141   142    1
   142    78    77    1
   143    68    66   ar
   144    96    93    1
   145    71    69   ar
   146   142   143    1
   147   100   101    2
   148    90    89    2
   149    88    89    1
   150    88    87    1
   151    77    74    1
   152   144   143    2
   153    66    65    1
   154    66    67   ar
   155    69    67   ar
   156    93    94    1
   157    93    92    1
   158    61    62    1
   159    65    62    1
   160    74    75    1
   161    74    73    1
   162    94    95    2
   163    76    75    2
   164    62    63    1
   165    64    63    2
