@<TRIPOS>MOLECULE
tmp/5n8eC00.pdb
 172 165 0 0 0
SMALL
GASTEIGER

@<TRIPOS>ATOM
      1  N         11.9070    2.5210   25.2530 N.3     9  ASN9       -0.1240
      2  CA        12.0150    3.4290   26.3920 C.3     9  ASN9        0.1653
      3  C         13.1580    4.4340   26.1300 C.2     9  ASN9        0.2266
      4  O         13.7420    4.4800   25.0470 O.2     9  ASN9       -0.2867
      5  CB        12.0970    2.6730   27.7320 C.3     9  ASN9        0.1155
      6  CG        13.4440    2.0290   27.9940 C.2     9  ASN9        0.2627
      7  OD1       14.3890    2.1480   27.2070 O.2     9  ASN9       -0.2716
      8  ND2       13.5400    1.3430   29.1320 N.am    9  ASN9       -0.0877
      9  N         16.1880    4.5750   27.1750 N.3    11  LEU11      -0.1245
     10  CA        17.4780    3.9270   26.9290 C.3    11  LEU11       0.1561
     11  C         17.5330    3.1960   25.6040 C.2    11  LEU11       0.2260
     12  O         18.5800    2.6740   25.2360 O.2    11  LEU11      -0.2867
     13  CB        17.7880    2.9110   28.0250 C.3    11  LEU11       0.0270
     14  CG        17.8110    3.4500   29.4450 C.3    11  LEU11       0.0019
     15  CD1       18.0640    2.2970   30.4030 C.3    11  LEU11       0.0001
     16  CD2       18.8640    4.5390   29.6020 C.3    11  LEU11       0.0001
     17  N         15.7270    0.4890   25.1050 N.3    13  SER13      -0.1217
     18  CA        15.2550   -0.8730   25.3010 C.3    13  SER13       0.1889
     19  C         14.0130   -1.0250   24.4520 C.2    13  SER13       0.2288
     20  O         13.2180   -0.0940   24.3540 O.2    13  SER13      -0.2866
     21  CB        14.9370   -1.1220   26.7530 C.3    13  SER13       0.2089
     22  OG        16.0950   -0.8380   27.5280 O.3    13  SER13      -0.2183
     23  N         10.9540   -8.6440   24.3730 N.3    29  TYR29      -0.1227
     24  CA        11.5790   -7.4590   24.9460 C.3    29  TYR29       0.1736
     25  C         13.0750   -7.6840   24.9890 C.2    29  TYR29       0.2595
     26  O         13.5170   -8.7680   25.3930 O.2    29  TYR29      -0.2718
     27  CB        11.0410   -7.2080   26.3530 C.3    29  TYR29       0.0548
     28  CG        11.3140   -5.8270   26.9460 C.ar   29  TYR29      -0.0200
     29  CD1       11.6220   -4.6940   26.1490 C.ar   29  TYR29      -0.0009
     30  CD2       11.2300   -5.6270   28.3040 C.ar   29  TYR29      -0.0009
     31  CE1       11.8340   -3.4460   26.7190 C.ar   29  TYR29       0.0417
     32  CE2       11.4350   -4.3830   28.8610 C.ar   29  TYR29       0.0417
     33  CZ        11.7300   -3.3040   28.0800 C.ar   29  TYR29       0.1957
     34  OH        11.9330   -2.0820   28.6580 O.3    29  TYR29      -0.2866
     35  N         13.8460   -6.6880   24.5520 N.am   30  GLU30      -0.1965
     36  CA        15.2960   -6.8350   24.4700 C.3    30  GLU30       0.1733
     37  C         15.9890   -5.5030   24.6520 C.2    30  GLU30       0.2617
     38  O         15.3520   -4.4600   24.6830 O.2    30  GLU30      -0.2715
     39  CB        15.7020   -7.4720   23.1420 C.3    30  GLU30       0.0429
     40  CG        15.4870   -6.5890   21.9320 C.3    30  GLU30       0.1163
     41  CD        15.5060   -7.3860   20.6570 C.2    30  GLU30       0.3649
     42  OE1       16.5010   -8.0970   20.4200 O.co2  30  GLU30      -0.2457
     43  OE2       14.5230   -7.3100   19.8940 O.co2  30  GLU30      -0.2457
     44  N         17.3050   -5.5460   24.8010 N.am   31  SER31      -0.1936
     45  CA        18.0700   -4.3260   25.0130 C.3    31  SER31       0.2055
     46  C         18.2320   -3.5460   23.7100 C.2    31  SER31       0.2642
     47  O         17.9380   -4.0390   22.6140 O.2    31  SER31      -0.2714
     48  CB        19.4500   -4.6460   25.5800 C.3    31  SER31       0.2130
     49  OG        20.2780   -5.1560   24.5600 O.3    31  SER31      -0.2179
     50  N         18.7550   -2.3300   23.8410 N.am   32  ALA32      -0.1977
     51  CA        19.0650   -1.4940   22.6740 C.3    32  ALA32       0.1597
     52  C         20.0540   -2.1720   21.7220 C.2    32  ALA32       0.2287
     53  O         19.9980   -1.9610   20.5050 O.2    32  ALA32      -0.2864
     54  CB        19.6100   -0.1430   23.1080 C.3    32  ALA32       0.0319
     55  N         19.9680  -10.9850   25.4580 N.3    38  SER38      -0.1217
     56  CA        19.1210   -9.9440   26.0510 C.3    38  SER38       0.1889
     57  C         17.6370  -10.0730   25.7410 C.2    38  SER38       0.2288
     58  O         16.8770   -9.2360   26.2120 O.2    38  SER38      -0.2866
     59  CB        19.5720   -8.5510   25.5550 C.3    38  SER38       0.2089
     60  OG        19.0510   -8.2320   24.2550 O.3    38  SER38      -0.2183
     61  N         13.8030  -11.5950   25.6780 N.3    40  TYR40      -0.1241
     62  CA        12.8850  -12.3570   26.5170 C.3    40  TYR40       0.1605
     63  C         11.4750  -12.3220   25.9480 C.2    40  TYR40       0.2264
     64  O         11.0740  -11.3330   25.3260 O.2    40  TYR40      -0.2867
     65  CB        12.8750  -11.7790   27.9440 C.3    40  TYR40       0.0534
     66  CG        14.2070  -11.8640   28.6360 C.ar   40  TYR40      -0.0201
     67  CD1       14.4910  -12.9090   29.5070 C.ar   40  TYR40      -0.0009
     68  CD2       15.1990  -10.9040   28.4120 C.ar   40  TYR40      -0.0009
     69  CE1       15.7170  -13.0000   30.1430 C.ar   40  TYR40       0.0417
     70  CE2       16.4290  -10.9860   29.0480 C.ar   40  TYR40       0.0417
     71  CZ        16.6970  -12.0430   29.9050 C.ar   40  TYR40       0.1957
     72  OH        17.9190  -12.1390   30.5490 O.3    40  TYR40      -0.2866
     73  N         12.0920  -13.2860   33.6290 N.3    65  TRP65      -0.1241
     74  CA        13.4760  -13.0150   33.2300 C.3    65  TRP65       0.1605
     75  C         14.3250  -14.2910   33.0880 C.2    65  TRP65       0.2264
     76  O         15.4330  -14.3960   33.6250 O.2    65  TRP65      -0.2867
     77  CB        14.1090  -11.9770   34.1820 C.3    65  TRP65       0.0550
     78  CG        13.3800  -10.6760   34.1050 C.ar   65  TRP65       0.0003
     79  CD1       12.5680  -10.1290   35.0460 C.ar   65  TRP65       0.0946
     80  CD2       13.3380   -9.7990   32.9790 C.ar   65  TRP65       0.0152
     81  NE1       12.0440   -8.9510   34.5920 N.ar   65  TRP65      -0.2442
     82  CE2       12.4980   -8.7250   33.3240 C.ar   65  TRP65       0.0810
     83  CE3       13.9470   -9.8020   31.7180 C.ar   65  TRP65       0.0012
     84  CZ2       12.2380   -7.6710   32.4570 C.ar   65  TRP65       0.0191
     85  CZ3       13.6860   -8.7530   30.8540 C.ar   65  TRP65       0.0001
     86  CH2       12.8290   -7.7090   31.2190 C.ar   65  TRP65       0.0015
     87  N         17.2300  -14.8530   35.9320 N.3    72  ALA72      -0.1245
     88  CA        17.3020  -13.9970   37.1180 C.3    72  ALA72       0.1562
     89  C         16.3230  -14.4100   38.2100 C.2    72  ALA72       0.2260
     90  O         16.3470  -13.8220   39.2970 O.2    72  ALA72      -0.2867
     91  CB        17.0540  -12.5520   36.7210 C.3    72  ALA72       0.0290
     92  N         12.9730  -14.0700   38.4040 N.3    74  SER74      -0.1217
     93  CA        12.1870  -12.8730   38.6640 C.3    74  SER74       0.1889
     94  C         11.2670  -12.6240   37.4840 C.2    74  SER74       0.2288
     95  O         11.4490  -13.2080   36.4010 O.2    74  SER74      -0.2866
     96  CB        13.1020  -11.6700   38.9000 C.3    74  SER74       0.2089
     97  OG        13.8920  -11.3990   37.7570 O.3    74  SER74      -0.2183
     98  N          8.6730   -9.2490   35.7450 N.3    76  THR76      -0.1218
     99  CA         8.1450   -7.9000   35.7930 C.3    76  THR76       0.1862
    100  C          6.8050   -7.8520   35.0930 C.2    76  THR76       0.2287
    101  O          6.6410   -8.4490   34.0220 O.2    76  THR76      -0.2866
    102  CB         9.1060   -6.9000   35.1380 C.3    76  THR76       0.1770
    103  OG1       10.3560   -6.9920   35.8080 O.3    76  THR76      -0.2211
    104  CG2        8.5790   -5.4650   35.2050 C.3    76  THR76       0.0375
    105  N          4.0610   -4.8550   33.6570 N.3    78  TRP78      -0.1241
    106  CA         3.8030   -3.4650   33.3290 C.3    78  TRP78       0.1605
    107  C          2.3040   -3.3080   33.1730 C.2    78  TRP78       0.2264
    108  O          1.6830   -4.0660   32.4130 O.2    78  TRP78      -0.2867
    109  CB         4.4790   -3.0790   32.0250 C.3    78  TRP78       0.0550
    110  CG         5.9580   -2.9890   32.0450 C.ar   78  TRP78       0.0003
    111  CD1        6.6920   -1.8440   32.0630 C.ar   78  TRP78       0.0946
    112  CD2        6.8940   -4.0640   31.9240 C.ar   78  TRP78       0.0152
    113  NE1        8.0300   -2.1300   32.0020 N.ar   78  TRP78      -0.2442
    114  CE2        8.1810   -3.4870   31.8960 C.ar   78  TRP78       0.0810
    115  CE3        6.7750   -5.4620   31.8250 C.ar   78  TRP78       0.0012
    116  CZ2        9.3400   -4.2550   31.7620 C.ar   78  TRP78       0.0191
    117  CZ3        7.9330   -6.2210   31.6690 C.ar   78  TRP78       0.0001
    118  CH2        9.1920   -5.6140   31.6460 C.ar   78  TRP78       0.0015
    119  N          5.3230   -0.3930   36.8020 N.3    94  TRP94      -0.1241
    120  CA         5.7580   -1.7700   36.7830 C.3    94  TRP94       0.1605
    121  C          6.0560   -2.2880   38.1840 C.2    94  TRP94       0.2264
    122  O          6.3740   -1.5260   39.1120 O.2    94  TRP94      -0.2867
    123  CB         6.9540   -2.0030   35.8330 C.3    94  TRP94       0.0550
    124  CG         8.1850   -1.1490   36.0450 C.ar   94  TRP94       0.0003
    125  CD1        8.5740   -0.0890   35.2810 C.ar   94  TRP94       0.0946
    126  CD2        9.2020   -1.3160   37.0430 C.ar   94  TRP94       0.0152
    127  NE1        9.7660    0.4100   35.7310 N.ar   94  TRP94      -0.2442
    128  CE2       10.1710   -0.3140   36.8190 C.ar   94  TRP94       0.0810
    129  CE3        9.3990   -2.2120   38.0950 C.ar   94  TRP94       0.0012
    130  CZ2       11.3160   -0.1860   37.6250 C.ar   94  TRP94       0.0191
    131  CZ3       10.5280   -2.0760   38.8880 C.ar   94  TRP94       0.0001
    132  CH2       11.4630   -1.0640   38.6620 C.ar   94  TRP94       0.0015
    133  N          8.3860   -5.5190   39.7510 N.3    96  LEU96      -0.1245
    134  CA         9.3930   -6.5470   39.5120 C.3    96  LEU96       0.1561
    135  C          9.4720   -7.3970   40.7820 C.2    96  LEU96       0.2260
    136  O          9.9370   -6.9250   41.8260 O.2    96  LEU96      -0.2867
    137  CB        10.7410   -5.8800   39.2140 C.3    96  LEU96       0.0270
    138  CG        12.0180   -6.7140   39.3350 C.3    96  LEU96       0.0019
    139  CD1       11.9610   -8.0000   38.5370 C.3    96  LEU96       0.0001
    140  CD2       13.2050   -5.8660   38.9200 C.3    96  LEU96       0.0001
    141  N         11.0520  -10.7260   42.5940 N.3    98  SER98      -0.1217
    142  CA        12.0440  -11.7960   42.6380 C.3    98  SER98       0.1889
    143  C         11.4990  -12.9910   43.3960 C.2    98  SER98       0.2288
    144  O         10.8180  -12.8310   44.4080 O.2    98  SER98      -0.2866
    145  CB        13.2920  -11.3070   43.3670 C.3    98  SER98       0.2089
    146  OG        13.9380  -10.2750   42.6480 O.3    98  SER98      -0.2183
    147  N         10.0780   -4.7160   43.6610 N.3   110  LEU110     -0.1245
    148  CA        10.4100   -3.3540   43.2960 C.3   110  LEU110      0.1561
    149  C          9.2760   -2.7510   42.4800 C.2   110  LEU110      0.2260
    150  O          8.5880   -3.4470   41.7230 O.2   110  LEU110     -0.2867
    151  CB        11.7140   -3.3180   42.4870 C.3   110  LEU110      0.0270
    152  CG        12.9640   -3.6920   43.2860 C.3   110  LEU110      0.0019
    153  CD1       14.1000   -4.1050   42.3640 C.3   110  LEU110      0.0001
    154  CD2       13.3830   -2.5440   44.1870 C.3   110  LEU110      0.0001
    155  N          8.2920    3.0270   37.1060 N.3   113  HIS113     -0.1226
    156  CA         7.4920    3.4890   35.9880 C.3   113  HIS113      0.1752
    157  C          8.3590    3.5940   34.7560 C.2   113  HIS113      0.2596
    158  O          9.5840    3.6650   34.8490 O.2   113  HIS113     -0.2718
    159  CB         6.8210    4.8330   36.3010 C.3   113  HIS113      0.0759
    160  CG         7.7400    5.8530   36.8790 C.ar  113  HIS113      0.0818
    161  ND1        8.4240    6.7710   36.1140 N.ar  113  HIS113     -0.2268
    162  CD2        8.0800    6.1010   38.1610 C.ar  113  HIS113      0.1154
    163  CE1        9.1540    7.5440   36.9020 C.ar  113  HIS113      0.1986
    164  NE2        8.9560    7.1570   38.1520 N.ar  113  HIS113     -0.2212
    165  N          7.7250    3.5430   33.5970 N.am  114  ASP114     -0.1974
    166  CA         8.4600    3.7500   32.3510 C.3   114  ASP114      0.1709
    167  C          7.4880    4.1800   31.2760 C.2   114  ASP114      0.2293
    168  O          6.2980    3.8610   31.3200 O.2   114  ASP114     -0.2864
    169  CB         9.2190    2.4750   31.9340 C.3   114  ASP114      0.1436
    170  CG        10.5220    2.7410   31.1600 C.2   114  ASP114      0.3671
    171  OD1       10.8610    3.9070   30.8630 O.co2 114  ASP114     -0.2456
    172  OD2       11.2300    1.7470   30.8680 O.co2 114  ASP114     -0.2456
@<TRIPOS>BOND
     1    43    41   ar
     2    42    41   ar
     3    53    52    2
     4    41    40    1
     5    52    51    1
     6    40    39    1
     7    47    46    2
     8    51    54    1
     9    51    50    1
    10    39    36    1
    11    46    50   am
    12    46    45    1
    13    60    59    1
    14    20    19    2
    15    23    24    1
    16    19    18    1
    17    36    35    1
    18    36    37    1
    19    35    25   am
    20    49    48    1
    21    37    38    2
    22    37    44   am
    23    44    45    1
    24    24    25    1
    25    24    27    1
    26    25    26    2
    27    45    48    1
    28     4     3    2
    29    17    18    1
    30    12    11    2
    31     1     2    1
    32    18    21    1
    33    64    63    2
    34    55    56    1
    35    59    56    1
    36    11    10    1
    37    61    62    1
    38    57    56    1
    39    57    58    2
    40    63    62    1
    41     3     2    1
    42    29    31   ar
    43    29    28   ar
    44    27    28    1
    45     2     5    1
    46    62    65    1
    47    31    33   ar
    48    21    22    1
    49    10     9    1
    50    10    13    1
    51    28    30   ar
    52     7     6    2
    53     5     6    1
    54    65    66    1
    55     6     8   am
    56    13    14    1
    57    33    34    1
    58    33    32   ar
    59    30    32   ar
    60    68    66   ar
    61    68    70   ar
    62    66    67   ar
    63    70    71   ar
    64    14    16    1
    65    14    15    1
    66    67    69   ar
    67    71    69   ar
    68    71    72    1
    69    85    86   ar
    70    85    83   ar
    71   171   170   ar
    72   172   170   ar
    73   170   169    1
    74    86    84   ar
    75   167   168    2
    76   167   166    1
    77   118   117   ar
    78   118   116   ar
    79   117   115   ar
    80    83    80   ar
    81   116   114   ar
    82   115   112   ar
    83   114   112   ar
    84   114   113   ar
    85   112   110   ar
    86   169   166    1
    87   113   111   ar
    88   109   110    1
    89   109   106    1
    90   110   111   ar
    91   166   165    1
    92   108   107    2
    93    84    82   ar
    94    80    82   ar
    95    80    78   ar
    96    75    74    1
    97    75    76    2
    98   107   106    1
    99    74    73    1
   100    74    77    1
   101    82    81   ar
   102   106   105    1
   103   165   157   am
   104   101   100    2
   105    78    77    1
   106    78    79   ar
   107    81    79   ar
   108   157   158    2
   109   157   156    1
   110   100    99    1
   111   102   104    1
   112   102    99    1
   113   102   103    1
   114   125   127   ar
   115   125   124   ar
   116   127   128   ar
   117    98    99    1
   118   123   124    1
   119   123   120    1
   120    87    88    1
   121   156   159    1
   122   156   155    1
   123   124   126   ar
   124   161   160   ar
   125   161   163   ar
   126   159   160    1
   127    95    94    2
   128    91    88    1
   129   120   119    1
   130   120   121    1
   131   128   126   ar
   132   128   130   ar
   133   160   162   ar
   134   163   164   ar
   135   126   129   ar
   136    88    89    1
   137    94    93    1
   138   130   132   ar
   139    97    96    1
   140   129   131   ar
   141   164   162   ar
   142   121   122    2
   143    89    90    2
   144    92    93    1
   145   139   138    1
   146   132   131   ar
   147    93    96    1
   148   140   138    1
   149   137   138    1
   150   137   134    1
   151   134   133    1
   152   134   135    1
   153   135   136    2
   154   150   149    2
   155   153   152    1
   156   149   148    1
   157   151   152    1
   158   151   148    1
   159   141   142    1
   160   142   145    1
   161   142   143    1
   162   146   145    1
   163   152   154    1
   164   148   147    1
   165   143   144    2
