@<TRIPOS>MOLECULE
tmp/5n8tA00.pdb
 102 100 0 0 0
SMALL
GASTEIGER

@<TRIPOS>ATOM
      1  N         -3.6320   19.3100    4.3210 N.3     9  ASN9       -0.1240
      2  CA        -4.3350   18.0620    4.0100 C.3     9  ASN9        0.1653
      3  C         -5.7580   18.1080    4.5400 C.2     9  ASN9        0.2266
      4  O         -6.1910   19.0900    5.1450 O.2     9  ASN9       -0.2867
      5  CB        -3.5580   16.8130    4.4590 C.3     9  ASN9        0.1155
      6  CG        -3.6490   16.5290    5.9520 C.2     9  ASN9        0.2627
      7  OD1       -4.2300   17.2890    6.7190 O.2     9  ASN9       -0.2716
      8  ND2       -3.0030   15.4330    6.3710 N.am    9  ASN9       -0.0877
      9  N         -3.5160   19.3220    8.5880 N.3    13  SER13      -0.1217
     10  CA        -2.0530   19.3450    8.7950 C.3    13  SER13       0.1889
     11  C         -1.4160   20.2760    7.7580 C.2    13  SER13       0.2288
     12  O         -1.8020   20.2540    6.6010 O.2    13  SER13      -0.2866
     13  CB        -1.4430   17.9420    8.6620 C.3    13  SER13       0.2089
     14  OG        -1.9590   17.0400    9.6410 O.3    13  SER13      -0.2183
     15  N          1.8120   21.8620    5.5550 N.3    15  PHE15      -0.1241
     16  CA         3.1340   21.6100    4.9770 C.3    15  PHE15       0.1605
     17  C          3.5780   22.8010    4.1440 C.2    15  PHE15       0.2264
     18  O          2.8280   23.3090    3.3190 O.2    15  PHE15      -0.2867
     19  CB         3.1430   20.3190    4.1460 C.3    15  PHE15       0.0534
     20  CG         2.9020   19.0660    4.9650 C.ar   15  PHE15      -0.0203
     21  CD1        3.9480   18.1880    5.2650 C.ar   15  PHE15      -0.0042
     22  CD2        1.6330   18.7560    5.4420 C.ar   15  PHE15      -0.0042
     23  CE1        3.7240   17.0450    6.0120 C.ar   15  PHE15      -0.0003
     24  CE2        1.4020   17.5930    6.1770 C.ar   15  PHE15      -0.0003
     25  CZ         2.4430   16.7380    6.4620 C.ar   15  PHE15      -0.0000
     26  N          6.9820   20.2740    7.8220 N.3    29  TYR29      -0.1241
     27  CA         5.7230   20.1430    8.5690 C.3    29  TYR29       0.1605
     28  C          5.7290   21.1880    9.6780 C.2    29  TYR29       0.2264
     29  O          6.7270   21.3220   10.3990 O.2    29  TYR29      -0.2867
     30  CB         5.5360   18.7640    9.2110 C.3    29  TYR29       0.0534
     31  CG         4.3410   18.7110   10.1450 C.ar   29  TYR29      -0.0201
     32  CD1        3.0430   18.5600    9.6490 C.ar   29  TYR29      -0.0009
     33  CD2        4.4920   18.8460   11.5270 C.ar   29  TYR29      -0.0009
     34  CE1        1.9390   18.5630   10.5040 C.ar   29  TYR29       0.0417
     35  CE2        3.3930   18.8270   12.3770 C.ar   29  TYR29       0.0417
     36  CZ         2.1170   18.6770   11.8500 C.ar   29  TYR29       0.1957
     37  OH         1.0070   18.6430   12.6630 O.3    29  TYR29      -0.2866
     38  N         10.4690   11.8450   11.5850 N.3    65  TRP65      -0.1241
     39  CA         9.7960   12.5190   12.7010 C.3    65  TRP65       0.1605
     40  C         10.7230   12.7090   13.8900 C.2    65  TRP65       0.2264
     41  O         10.4300   12.2910   15.0110 O.2    65  TRP65      -0.2867
     42  CB         8.5150   11.7630   13.0630 C.3    65  TRP65       0.0550
     43  CG         7.5470   11.8190   11.9470 C.ar   65  TRP65       0.0003
     44  CD1        7.1890   10.8050   11.0870 C.ar   65  TRP65       0.0946
     45  CD2        6.8440   12.9720   11.5200 C.ar   65  TRP65       0.0152
     46  NE1        6.3000   11.2690   10.1560 N.ar   65  TRP65      -0.2442
     47  CE2        6.0590   12.5960   10.4050 C.ar   65  TRP65       0.0810
     48  CE3        6.7910   14.3040   11.9790 C.ar   65  TRP65       0.0012
     49  CZ2        5.2350   13.5050    9.7340 C.ar   65  TRP65       0.0191
     50  CZ3        5.9640   15.1960   11.3240 C.ar   65  TRP65       0.0001
     51  CH2        5.2020   14.8000   10.2110 C.ar   65  TRP65       0.0015
     52  N          7.5680    9.2060    7.4080 N.3    76  THR76      -0.1218
     53  CA         6.4970    9.0750    6.4490 C.3    76  THR76       0.1862
     54  C          6.9830    9.4810    5.0780 C.2    76  THR76       0.2287
     55  O          7.6620   10.4780    4.9660 O.2    76  THR76      -0.2866
     56  CB         5.3420   10.0200    6.8360 C.3    76  THR76       0.1770
     57  OG1        4.9070    9.6960    8.1640 O.3    76  THR76      -0.2211
     58  CG2        4.1940    9.8790    5.8970 C.3    76  THR76       0.0375
     59  N          5.2300   10.3860    1.3030 N.3    78  TRP78      -0.1241
     60  CA         4.0540   10.6380    0.4900 C.3    78  TRP78       0.1605
     61  C          4.4570   10.5320   -0.9740 C.2    78  TRP78       0.2264
     62  O          5.4290   11.1660   -1.3900 O.2    78  TRP78      -0.2867
     63  CB         3.5390   12.0660    0.7130 C.3    78  TRP78       0.0550
     64  CG         2.8880   12.3540    2.0390 C.ar   78  TRP78       0.0003
     65  CD1        1.5440   12.4550    2.3000 C.ar   78  TRP78       0.0946
     66  CD2        3.5560   12.6820    3.2580 C.ar   78  TRP78       0.0152
     67  NE1        1.3470   12.7640    3.6250 N.ar   78  TRP78      -0.2442
     68  CE2        2.5630   12.9090    4.2340 C.ar   78  TRP78       0.0810
     69  CE3        4.9050   12.7480    3.6360 C.ar   78  TRP78       0.0012
     70  CZ2        2.8750   13.2810    5.5510 C.ar   78  TRP78       0.0191
     71  CZ3        5.2140   13.1130    4.9610 C.ar   78  TRP78       0.0001
     72  CH2        4.2070   13.3570    5.8900 C.ar   78  TRP78       0.0015
     73  N          0.3840    7.6080    1.3420 N.3    94  TRP94      -0.1241
     74  CA         1.5080    7.6590    2.2560 C.3    94  TRP94       0.1605
     75  C          1.7550    6.3270    2.9300 C.2    94  TRP94       0.2264
     76  O          0.8530    5.4920    3.0700 O.2    94  TRP94      -0.2867
     77  CB         1.3860    8.7630    3.3300 C.3    94  TRP94       0.0550
     78  CG         0.1170    8.7590    4.1610 C.ar   94  TRP94       0.0003
     79  CD1       -0.9580    9.6010    4.0050 C.ar   94  TRP94       0.0946
     80  CD2       -0.1910    7.9380    5.2940 C.ar   94  TRP94       0.0152
     81  NE1       -1.9010    9.3470    4.9630 N.ar   94  TRP94      -0.2442
     82  CE2       -1.4690    8.3220    5.7550 C.ar   94  TRP94       0.0810
     83  CE3        0.4840    6.9010    5.9680 C.ar   94  TRP94       0.0012
     84  CZ2       -2.0840    7.7170    6.8530 C.ar   94  TRP94       0.0191
     85  CZ3       -0.1340    6.2950    7.0530 C.ar   94  TRP94       0.0001
     86  CH2       -1.4020    6.7090    7.4880 C.ar   94  TRP94       0.0015
     87  N          3.7920    5.2170    6.5410 N.3    96  LEU96      -0.1245
     88  CA         4.4460    5.5830    7.7930 C.3    96  LEU96       0.1561
     89  C          5.1570    4.3560    8.3410 C.2    96  LEU96       0.2260
     90  O          4.5120    3.4130    8.8270 O.2    96  LEU96      -0.2867
     91  CB         3.4370    6.0920    8.8210 C.3    96  LEU96       0.0270
     92  CG         3.8830    6.2730   10.2780 C.3    96  LEU96       0.0019
     93  CD1        5.0970    7.1880   10.4290 C.3    96  LEU96       0.0001
     94  CD2        2.7090    6.8170   11.0830 C.3    96  LEU96       0.0001
     95  N         -3.5100   11.1060    1.6440 N.3   114  ASP114     -0.1239
     96  CA        -3.7090   12.5150    2.0000 C.3   114  ASP114      0.1674
     97  C         -3.9850   13.2700    0.7270 C.2   114  ASP114      0.2266
     98  O         -3.3090   13.0630   -0.2660 O.2   114  ASP114     -0.2867
     99  CB        -2.4700   13.1370    2.6330 C.3   114  ASP114      0.1410
    100  CG        -2.3510   12.8650    4.1160 C.2   114  ASP114      0.3668
    101  OD1       -3.3030   12.3720    4.7350 O.co2 114  ASP114     -0.2456
    102  OD2       -1.3000   13.2020    4.6800 O.co2 114  ASP114     -0.2456
@<TRIPOS>BOND
     1    62    61    2
     2    61    60    1
     3    98    97    2
     4    60    63    1
     5    60    59    1
     6    63    64    1
     7    97    96    1
     8    73    74    1
     9    95    96    1
    10    96    99    1
    11    64    65   ar
    12    64    66   ar
    13    74    75    1
    14    74    77    1
    15    65    67   ar
    16    99   100    1
    17    75    76    2
    18    66    69   ar
    19    66    68   ar
    20    18    17    2
    21    77    78    1
    22    67    68   ar
    23    69    71   ar
    24    79    78   ar
    25    79    81   ar
    26     2     1    1
    27     2     5    1
    28     2     3    1
    29   100   102   ar
    30   100   101   ar
    31    17    16    1
    32    19    20    1
    33    19    16    1
    34    78    80   ar
    35    68    70   ar
    36     5     6    1
    37     3     4    2
    38    71    72   ar
    39    81    82   ar
    40    20    21   ar
    41    20    22   ar
    42    55    54    2
    43    16    15    1
    44    54    53    1
    45    21    23   ar
    46    80    82   ar
    47    80    83   ar
    48    22    24   ar
    49    70    72   ar
    50    82    84   ar
    51    58    56    1
    52     6     8   am
    53     6     7    2
    54    83    85   ar
    55    23    25   ar
    56    24    25   ar
    57    53    56    1
    58    53    52    1
    59    87    88    1
    60    12    11    2
    61    56    57    1
    62    84    86   ar
    63    85    86   ar
    64    11    10    1
    65    88    89    1
    66    88    91    1
    67    26    27    1
    68    89    90    2
    69    27    30    1
    70    27    28    1
    71     9    10    1
    72    13    10    1
    73    13    14    1
    74    91    92    1
    75    30    31    1
    76    32    31   ar
    77    32    34   ar
    78    28    29    2
    79    49    51   ar
    80    49    47   ar
    81    31    33   ar
    82    46    47   ar
    83    46    44   ar
    84    51    50   ar
    85    92    93    1
    86    92    94    1
    87    47    45   ar
    88    34    36   ar
    89    44    43   ar
    90    50    48   ar
    91    45    43   ar
    92    45    48   ar
    93    33    35   ar
    94    38    39    1
    95    36    35   ar
    96    36    37    1
    97    43    42    1
    98    39    42    1
    99    39    40    1
   100    40    41    2
