@<TRIPOS>MOLECULE
tmp/5n8vB00.pdb
 128 120 0 0 0
SMALL
GASTEIGER

@<TRIPOS>ATOM
      1  N         20.9060   15.5300   -4.9210 N.3     7  ARG7       -0.1245
      2  CA        19.8640   16.5360   -4.6820 C.3     7  ARG7        0.1563
      3  C         20.4410   17.9500   -4.6220 C.2     7  ARG7        0.2260
      4  O         19.9040   18.8670   -5.2480 O.2     7  ARG7       -0.2867
      5  CB        19.0840   16.2370   -3.3980 C.3     7  ARG7        0.0307
      6  CG        18.0840   15.0990   -3.5370 C.3     7  ARG7        0.0489
      7  CD        17.1340   15.0470   -2.3520 C.3     7  ARG7        0.2205
      8  NE        17.8230   14.6470   -1.1270 N.pl3   7  ARG7       -0.0865
      9  CZ        18.0850   13.3910   -0.7540 C.cat   7  ARG7        0.5346
     10  NH1       17.7180   12.3500   -1.5030 N.pl3   7  ARG7        0.1354
     11  NH2       18.7270   13.1700    0.3890 N.pl3   7  ARG7        0.1354
     12  N         21.7330   18.9470   -8.1590 N.3    10  ASN10      -0.1225
     13  CA        20.5820   19.3120   -8.9930 C.3    10  ASN10       0.1785
     14  C         20.0400   20.6940   -8.6300 C.2    10  ASN10       0.2597
     15  O         19.6920   21.4760   -9.5180 O.2    10  ASN10      -0.2718
     16  CB        19.4610   18.2710   -8.8710 C.3    10  ASN10       0.1169
     17  CG        19.7590   16.9870   -9.6270 C.2    10  ASN10       0.2627
     18  OD1       20.5550   16.9650  -10.5670 O.2    10  ASN10      -0.2716
     19  ND2       19.1030   15.9060   -9.2230 N.am   10  ASN10      -0.0877
     20  N         19.9800   20.9880   -7.3310 N.am   11  ALA11      -0.1979
     21  CA        19.5230   22.2960   -6.8570 C.3    11  ALA11       0.1597
     22  C         20.4750   23.4120   -7.2780 C.2    11  ALA11       0.2287
     23  O         20.0290   24.4860   -7.6780 O.2    11  ALA11      -0.2864
     24  CB        19.3510   22.2890   -5.3470 C.3    11  ALA11       0.0319
     25  N         22.4680   23.4110   -9.9370 N.3    13  GLU13      -0.1231
     26  CA        22.3080   23.5830  -11.3840 C.3    13  GLU13       0.1699
     27  C         21.0270   24.3650  -11.7190 C.2    13  GLU13       0.2592
     28  O         21.0260   25.2100  -12.6160 O.2    13  GLU13      -0.2718
     29  CB        22.3250   22.2180  -12.0820 C.3    13  GLU13       0.0402
     30  CG        22.7630   22.2560  -13.5400 C.3    13  GLU13       0.1161
     31  CD        21.6140   22.4230  -14.5130 C.2    13  GLU13       0.3649
     32  OE1       20.6130   21.6820  -14.4000 O.co2  13  GLU13      -0.2457
     33  OE2       21.7210   23.2870  -15.4100 O.co2  13  GLU13      -0.2457
     34  N         19.9550   24.0820  -10.9770 N.am   14  PHE14      -0.1976
     35  CA        18.6930   24.8310  -11.0610 C.3    14  PHE14       0.1639
     36  C         18.8580   26.3180  -10.7270 C.2    14  PHE14       0.2290
     37  O         18.4160   27.1820  -11.4890 O.2    14  PHE14      -0.2864
     38  CB        17.6480   24.1860  -10.1320 C.3    14  PHE14       0.0560
     39  CG        16.4660   25.0640   -9.8270 C.ar   14  PHE14      -0.0200
     40  CD1       15.4660   25.2470  -10.7680 C.ar   14  PHE14      -0.0042
     41  CD2       16.3460   25.6990   -8.5930 C.ar   14  PHE14      -0.0042
     42  CE1       14.3740   26.0490  -10.4930 C.ar   14  PHE14      -0.0003
     43  CE2       15.2540   26.5050   -8.3120 C.ar   14  PHE14      -0.0003
     44  CZ        14.2660   26.6810   -9.2670 C.ar   14  PHE14      -0.0000
     45  N         20.3790   28.9260  -13.3190 N.3    17  ASP17      -0.1239
     46  CA        19.6100   29.3490  -14.4920 C.3    17  ASP17       0.1674
     47  C         19.2590   30.8370  -14.3860 C.2    17  ASP17       0.2266
     48  O         18.8340   31.3020  -13.3310 O.2    17  ASP17      -0.2867
     49  CB        18.3540   28.4820  -14.6300 C.3    17  ASP17       0.1410
     50  CG        17.4990   28.8590  -15.8270 C.2    17  ASP17       0.3668
     51  OD1       16.7810   29.8780  -15.7590 O.co2  17  ASP17      -0.2456
     52  OD2       17.5290   28.1180  -16.8310 O.co2  17  ASP17      -0.2456
     53  N         16.8950   32.7610  -15.5320 N.3    19  ARG19      -0.1231
     54  CA        15.5060   33.0870  -15.1990 C.3    19  ARG19       0.1694
     55  C         15.1920   32.7170  -13.7530 C.2    19  ARG19       0.2591
     56  O         14.4470   33.4280  -13.0740 O.2    19  ARG19      -0.2718
     57  CB        14.5460   32.3630  -16.1340 C.3    19  ARG19       0.0321
     58  CG        14.7660   32.6740  -17.6080 C.3    19  ARG19       0.0489
     59  CD        14.2360   31.5550  -18.4790 C.3    19  ARG19       0.2205
     60  NE        14.9320   30.2880  -18.2470 N.pl3  19  ARG19      -0.0865
     61  CZ        14.5200   29.0980  -18.6900 C.cat  19  ARG19       0.5346
     62  NH1       13.3990   28.9800  -19.4020 N.pl3  19  ARG19       0.1354
     63  NH2       15.2310   28.0060  -18.4170 N.pl3  19  ARG19       0.1354
     64  N         15.7630   31.6020  -13.2930 N.am   20  VAL20      -0.1980
     65  CA        15.6550   31.1870  -11.8920 C.3    20  VAL20       0.1595
     66  C         16.3470   32.2120  -10.9880 C.2    20  VAL20       0.2287
     67  O         15.8340   32.5320   -9.9180 O.2    20  VAL20      -0.2864
     68  CB        16.2270   29.7640  -11.6680 C.3    20  VAL20       0.0276
     69  CG1       16.2110   29.3760  -10.1920 C.3    20  VAL20       0.0022
     70  CG2       15.4340   28.7380  -12.4720 C.3    20  VAL20       0.0022
     71  N         14.0100   34.8920  -10.0570 N.3    23  THR23      -0.1218
     72  CA        12.8680   34.4460   -9.2580 C.3    23  THR23       0.1862
     73  C         13.1680   34.6750   -7.7700 C.2    23  THR23       0.2287
     74  O         14.3160   34.5040   -7.3500 O.2    23  THR23      -0.2866
     75  CB        12.5770   32.9540   -9.5210 C.3    23  THR23       0.1770
     76  OG1       12.3990   32.7530  -10.9270 O.3    23  THR23      -0.2211
     77  CG2       11.3270   32.4730   -8.7850 C.3    23  THR23       0.0375
     78  N          9.9980   31.4720   -3.4130 N.3    27  SER27      -0.1202
     79  CA         9.4790   30.5540   -4.4370 C.3    27  SER27       0.2020
     80  C         10.4490   29.4150   -4.7490 C.2    27  SER27       0.2618
     81  O         10.0320   28.2680   -4.9110 O.2    27  SER27      -0.2717
     82  CB         9.1590   31.3080   -5.7280 C.3    27  SER27       0.2103
     83  OG         8.2750   32.3850   -5.4790 O.3    27  SER27      -0.2182
     84  N         11.7380   29.7410   -4.8370 N.am   28  LYS28      -0.1979
     85  CA        12.7740   28.7390   -5.1070 C.3    28  LYS28       0.1596
     86  C         12.9520   27.7590   -3.9470 C.2    28  LYS28       0.2287
     87  O         13.1810   26.5720   -4.1720 O.2    28  LYS28      -0.2864
     88  CB        14.1020   29.4200   -5.4460 C.3    28  LYS28       0.0298
     89  CG        14.0280   30.2150   -6.7380 C.3    28  LYS28       0.0038
     90  CD        15.3680   30.8000   -7.1430 C.3    28  LYS28       0.0206
     91  CE        15.8190   31.9300   -6.2300 C.3    28  LYS28       0.1093
     92  NZ        16.6820   32.9010   -6.9590 N.3    28  LYS28      -0.1314
     93  N          9.9850   25.3670   -4.0860 N.3    31  PHE31      -0.1227
     94  CA        10.2320   24.4530   -5.1980 C.3    31  PHE31       0.1736
     95  C         11.2220   23.3530   -4.8180 C.2    31  PHE31       0.2595
     96  O         10.9620   22.1780   -5.0590 O.2    31  PHE31      -0.2718
     97  CB        10.7410   25.2150   -6.4240 C.3    31  PHE31       0.0547
     98  CG        11.2110   24.3240   -7.5360 C.ar   31  PHE31      -0.0202
     99  CD1       10.2980   23.6900   -8.3680 C.ar   31  PHE31      -0.0042
    100  CD2       12.5690   24.1040   -7.7440 C.ar   31  PHE31      -0.0042
    101  CE1       10.7280   22.8620   -9.3940 C.ar   31  PHE31      -0.0003
    102  CE2       13.0040   23.2730   -8.7650 C.ar   31  PHE31      -0.0003
    103  CZ        12.0840   22.6560   -9.5940 C.ar   31  PHE31      -0.0000
    104  N         12.3520   23.7350   -4.2270 N.am   32  LEU32      -0.1980
    105  CA        13.3710   22.7530   -3.8420 C.3    32  LEU32       0.1596
    106  C         12.8740   21.7640   -2.7860 C.2    32  LEU32       0.2287
    107  O         13.1980   20.5750   -2.8560 O.2    32  LEU32      -0.2864
    108  CB        14.6530   23.4410   -3.3690 C.3    32  LEU32       0.0297
    109  CG        15.4340   24.1720   -4.4670 C.3    32  LEU32       0.0022
    110  CD1       16.5710   24.9680   -3.8400 C.3    32  LEU32       0.0001
    111  CD2       15.9700   23.2150   -5.5150 C.3    32  LEU32       0.0001
    112  N         10.9280   19.1470   -4.5030 N.3    35  LYS35      -0.1245
    113  CA        11.8040   18.1450   -5.1280 C.3    35  LYS35       0.1561
    114  C         12.4460   17.1660   -4.1410 C.2    35  LYS35       0.2260
    115  O         13.1620   16.2560   -4.5610 O.2    35  LYS35      -0.2867
    116  CB        12.9060   18.8290   -5.9480 C.3    35  LYS35       0.0271
    117  CG        12.4150   19.7690   -7.0390 C.3    35  LYS35       0.0035
    118  CD        11.5430   19.0880   -8.0830 C.3    35  LYS35       0.0206
    119  CE        12.3460   18.1810   -8.9900 C.3    35  LYS35       0.1093
    120  NZ        11.4960   17.6750  -10.1020 N.3    35  LYS35      -0.1314
    121  N         14.2800   18.1180   -1.1450 N.3    37  LEU37      -0.1245
    122  CA        15.4130   18.6220   -0.3680 C.3    37  LEU37       0.1561
    123  C         14.9700   19.0510    1.0230 C.2    37  LEU37       0.2260
    124  O         13.9220   19.6800    1.1860 O.2    37  LEU37      -0.2867
    125  CB        16.1160   19.7970   -1.0610 C.3    37  LEU37       0.0270
    126  CG        17.1600   19.4490   -2.1250 C.3    37  LEU37       0.0019
    127  CD1       16.5080   18.9800   -3.4170 C.3    37  LEU37       0.0001
    128  CD2       18.0600   20.6470   -2.3910 C.3    37  LEU37       0.0001
@<TRIPOS>BOND
     1    62    61    1
     2    61    63    1
     3    61    60    2
     4    59    60    1
     5    59    58    1
     6    58    57    1
     7    52    50   ar
     8    57    54    1
     9    50    51   ar
    10    50    49    1
    11    53    54    1
    12    33    31   ar
    13    54    55    1
    14    49    46    1
    15    31    32   ar
    16    31    30    1
    17    46    47    1
    18    46    45    1
    19    47    48    2
    20    55    64   am
    21    55    56    2
    22    30    29    1
    23    64    65    1
    24    28    27    2
    25    70    68    1
    26    29    26    1
    27    65    68    1
    28    65    66    1
    29    27    26    1
    30    27    34   am
    31    68    69    1
    32    37    36    2
    33    26    25    1
    34    35    34    1
    35    35    36    1
    36    35    38    1
    37    66    67    2
    38    76    75    1
    39    40    42   ar
    40    40    39   ar
    41    18    17    2
    42    42    44   ar
    43    38    39    1
    44   120   119    1
    45    71    72    1
    46    39    41   ar
    47    17    19   am
    48    17    16    1
    49   103   101   ar
    50   103   102   ar
    51    75    72    1
    52    75    77    1
    53    15    14    2
    54   101    99   ar
    55    44    43   ar
    56    72    73    1
    57    13    16    1
    58    13    14    1
    59    13    12    1
    60   119   118    1
    61   102   100   ar
    62    14    20   am
    63    41    43   ar
    64    99    98   ar
    65   118   117    1
    66    73    74    2
    67   100    98   ar
    68    23    22    2
    69    98    97    1
    70    20    21    1
    71    22    21    1
    72    90    89    1
    73    90    91    1
    74   117   116    1
    75    92    91    1
    76    21    24    1
    77    89    88    1
    78    97    94    1
    79   116   113    1
    80    82    83    1
    81    82    79    1
    82   111   109    1
    83    88    85    1
    84     4     3    2
    85    94    95    1
    86    94    93    1
    87   113   112    1
    88   113   114    1
    89    85    84    1
    90    85    86    1
    91    96    95    2
    92     1     2    1
    93    81    80    2
    94    84    80   am
    95    95   104   am
    96    80    79    1
    97     2     3    1
    98     2     5    1
    99   115   114    2
   100   109   110    1
   101   109   108    1
   102    79    78    1
   103   104   105    1
   104    87    86    2
   105   105   108    1
   106   105   106    1
   107     6     5    1
   108     6     7    1
   109   127   126    1
   110   107   106    2
   111   128   126    1
   112     7     8    1
   113   126   125    1
   114    10     9    1
   115   121   122    1
   116     8     9    2
   117   125   122    1
   118     9    11    1
   119   122   123    1
   120   123   124    2
