@<TRIPOS>MOLECULE
tmp/5n91A00.pdb
 123 119 0 0 0
SMALL
GASTEIGER

@<TRIPOS>ATOM
      1  N          1.0470   27.6910   -9.2250 N.3    16  MET16      -0.1245
      2  CA         1.1490   26.3960   -8.5810 C.3    16  MET16       0.1570
      3  C          2.0150   26.5260   -7.3370 C.2    16  MET16       0.2261
      4  O          2.8280   27.4450   -7.2120 O.2    16  MET16      -0.2867
      5  CB         1.8270   25.3670   -9.4990 C.3    16  MET16       0.0387
      6  CG         1.3490   25.3620  -10.9370 C.3    16  MET16       0.0595
      7  SD        -0.3960   24.9850  -11.0770 S.3    16  MET16      -0.1393
      8  CE        -0.4430   23.2880  -10.5110 C.3    16  MET16       0.0692
      9  N          4.2860   23.5950   -4.8020 N.3    18  TYR18      -0.1241
     10  CA         4.7710   22.2230   -4.7850 C.3    18  TYR18       0.1605
     11  C          4.4160   21.5750   -3.4550 C.2    18  TYR18       0.2264
     12  O          4.7700   22.0890   -2.3910 O.2    18  TYR18      -0.2867
     13  CB         6.2740   22.1540   -5.0460 C.3    18  TYR18       0.0534
     14  CG         6.7380   20.7650   -5.3870 C.ar   18  TYR18      -0.0201
     15  CD1        6.4280   20.1940   -6.6060 C.ar   18  TYR18      -0.0009
     16  CD2        7.4800   20.0160   -4.4830 C.ar   18  TYR18      -0.0009
     17  CE1        6.8380   18.9230   -6.9210 C.ar   18  TYR18       0.0417
     18  CE2        7.8990   18.7360   -4.7910 C.ar   18  TYR18       0.0417
     19  CZ         7.5750   18.1970   -6.0140 C.ar   18  TYR18       0.1957
     20  OH         7.9850   16.9270   -6.3420 O.3    18  TYR18      -0.2866
     21  N          2.8120   19.0990   -7.9280 N.3    25  TRP25      -0.1241
     22  CA         2.3360   20.4750   -7.9580 C.3    25  TRP25       0.1605
     23  C          0.8350   20.5080   -7.7210 C.2    25  TRP25       0.2264
     24  O          0.1000   19.6440   -8.2060 O.2    25  TRP25      -0.2867
     25  CB         2.6210   21.0970   -9.3230 C.3    25  TRP25       0.0550
     26  CG         4.0640   21.3280   -9.5950 C.ar   25  TRP25       0.0003
     27  CD1        4.9020   20.5250  -10.3030 C.ar   25  TRP25       0.0946
     28  CD2        4.8430   22.4420   -9.1670 C.ar   25  TRP25       0.0152
     29  NE1        6.1550   21.0700  -10.3470 N.ar   25  TRP25      -0.2442
     30  CE2        6.1450   22.2510   -9.6550 C.ar   25  TRP25       0.0810
     31  CE3        4.5670   23.5860   -8.4180 C.ar   25  TRP25       0.0012
     32  CZ2        7.1650   23.1550   -9.4160 C.ar   25  TRP25       0.0191
     33  CZ3        5.5810   24.4810   -8.1850 C.ar   25  TRP25       0.0001
     34  CH2        6.8630   24.2610   -8.6770 C.ar   25  TRP25       0.0015
     35  N         17.0360   32.9550   -6.3290 N.3    71  LYS71      -0.1245
     36  CA        17.3490   32.2170   -7.5470 C.3    71  LYS71       0.1561
     37  C         16.0430   31.9300   -8.2920 C.2    71  LYS71       0.2260
     38  O         15.2250   31.1150   -7.8500 O.2    71  LYS71      -0.2867
     39  CB        18.1020   30.9350   -7.2010 C.3    71  LYS71       0.0271
     40  CG        18.6450   30.1700   -8.4030 C.3    71  LYS71       0.0035
     41  CD        19.4460   28.9390   -7.9890 C.3    71  LYS71       0.0206
     42  CE        20.6120   29.2910   -7.0710 C.3    71  LYS71       0.1093
     43  NZ        21.5110   28.1330   -6.7910 N.3    71  LYS71      -0.1314
     44  N         14.2550   30.3550  -11.3880 N.3    73  ASN73      -0.1240
     45  CA        14.5500   29.2680  -12.3110 C.3    73  ASN73       0.1653
     46  C         13.5850   29.2950  -13.4900 C.2    73  ASN73       0.2266
     47  O         12.3750   29.1100  -13.3200 O.2    73  ASN73      -0.2867
     48  CB        14.4810   27.9120  -11.6090 C.3    73  ASN73       0.1155
     49  CG        15.0200   26.7880  -12.4750 C.2    73  ASN73       0.2627
     50  OD1       16.1360   26.8680  -12.9860 O.2    73  ASN73      -0.2716
     51  ND2       14.2350   25.7320  -12.6390 N.am   73  ASN73      -0.0877
     52  N         12.7660   27.0890  -15.8720 N.3    75  ALA75      -0.1231
     53  CA        12.8440   25.6780  -16.2290 C.3    75  ALA75       0.1694
     54  C         12.5530   25.4700  -17.7080 C.2    75  ALA75       0.2592
     55  O         13.2680   24.7360  -18.3990 O.2    75  ALA75      -0.2718
     56  CB        11.8500   24.8950  -15.3750 C.3    75  ALA75       0.0304
     57  N         11.4920   26.0980  -18.2080 N.am   76  THR76      -0.1953
     58  CA        11.1580   26.0750  -19.6200 C.3    76  THR76       0.1897
     59  C         10.7360   27.4840  -20.0170 C.2    76  THR76       0.2313
     60  O         10.7200   28.4050  -19.1950 O.2    76  THR76      -0.2863
     61  CB        10.0580   25.0460  -19.9240 C.3    76  THR76       0.1794
     62  OG1        8.7870   25.5520  -19.5000 O.3    76  THR76      -0.2208
     63  CG2       10.3350   23.7230  -19.2160 C.3    76  THR76       0.0378
     64  N          7.2930   27.8430  -18.0850 N.3    79  PHE79      -0.1241
     65  CA         7.1450   27.4700  -16.6790 C.3    79  PHE79       0.1605
     66  C          8.3740   27.9300  -15.9070 C.2    79  PHE79       0.2264
     67  O          9.4770   27.4230  -16.1370 O.2    79  PHE79      -0.2867
     68  CB         6.9350   25.9680  -16.4920 C.3    79  PHE79       0.0534
     69  CG         6.5580   25.5940  -15.0830 C.ar   79  PHE79      -0.0203
     70  CD1        5.2330   25.5580  -14.6890 C.ar   79  PHE79      -0.0042
     71  CD2        7.5340   25.3120  -14.1450 C.ar   79  PHE79      -0.0042
     72  CE1        4.8910   25.2340  -13.3940 C.ar   79  PHE79      -0.0003
     73  CE2        7.1940   24.9880  -12.8470 C.ar   79  PHE79      -0.0003
     74  CZ         5.8710   24.9500  -12.4760 C.ar   79  PHE79      -0.0000
     75  N          9.9400   29.0270  -11.8340 N.3    81  GLN81      -0.1231
     76  CA         9.7510   28.6380  -10.4440 C.3    81  GLN81       0.1698
     77  C         10.8090   29.2820   -9.5670 C.2    81  GLN81       0.2592
     78  O         11.8980   29.6370  -10.0220 O.2    81  GLN81      -0.2718
     79  CB         9.8100   27.1170  -10.2790 C.3    81  GLN81       0.0381
     80  CG        11.0800   26.4950  -10.8290 C.3    81  GLN81       0.0905
     81  CD        10.9790   24.9990  -11.0020 C.2    81  GLN81       0.2608
     82  OE1       11.6050   24.4310  -11.8890 O.2    81  GLN81      -0.2717
     83  NE2       10.2180   24.3500  -10.1380 N.am   81  GLN81      -0.0878
     84  N         10.4640   29.4220   -8.2890 N.am   82  TRP82      -0.1962
     85  CA        11.4020   29.8440   -7.2600 C.3    82  TRP82       0.1771
     86  C         10.9380   29.2570   -5.9360 C.2    82  TRP82       0.2619
     87  O          9.8510   28.6900   -5.8360 O.2    82  TRP82      -0.2715
     88  CB        11.5000   31.3710   -7.1730 C.3    82  TRP82       0.0590
     89  CG        10.2510   32.0500   -6.6840 C.ar   82  TRP82       0.0006
     90  CD1       10.0030   32.5040   -5.4210 C.ar   82  TRP82       0.0946
     91  CD2        9.0890   32.3670   -7.4600 C.ar   82  TRP82       0.0152
     92  NE1        8.7620   33.0770   -5.3610 N.ar   82  TRP82      -0.2442
     93  CE2        8.1780   33.0070   -6.6000 C.ar   82  TRP82       0.0810
     94  CE3        8.7330   32.1700   -8.7960 C.ar   82  TRP82       0.0012
     95  CZ2        6.9290   33.4450   -7.0330 C.ar   82  TRP82       0.0191
     96  CZ3        7.5030   32.6010   -9.2230 C.ar   82  TRP82       0.0001
     97  CH2        6.6110   33.2350   -8.3460 C.ar   82  TRP82       0.0015
     98  N         11.7790   29.3780   -4.9170 N.am   83  ARG83      -0.1977
     99  CA        11.4320   28.8690   -3.6010 C.3    83  ARG83       0.1597
    100  C         11.7400   29.9050   -2.5340 C.2    83  ARG83       0.2287
    101  O         12.5590   30.8080   -2.7250 O.2    83  ARG83      -0.2864
    102  CB        12.1610   27.5640   -3.2680 C.3    83  ARG83       0.0334
    103  CG        13.5130   27.3940   -3.9060 C.3    83  ARG83       0.0492
    104  CD        14.1490   26.0940   -3.4560 C.3    83  ARG83       0.2205
    105  NE        15.2640   25.6880   -4.3030 N.pl3  83  ARG83      -0.0865
    106  CZ        16.4830   26.2080   -4.2380 C.cat  83  ARG83       0.5346
    107  NH1       16.7450   27.1690   -3.3630 N.pl3  83  ARG83       0.1354
    108  NH2       17.4380   25.7660   -5.0500 N.pl3  83  ARG83       0.1354
    109  N          7.6980   26.2080   -2.5080 N.3    88  VAL88      -0.1245
    110  CA         8.1770   26.3310   -3.8790 C.3    88  VAL88       0.1561
    111  C          6.9940   26.7750   -4.7240 C.2    88  VAL88       0.2260
    112  O          5.9320   26.1390   -4.7040 O.2    88  VAL88      -0.2867
    113  CB         8.7660   25.0140   -4.4160 C.3    88  VAL88       0.0252
    114  CG1        9.4070   25.2300   -5.7830 C.3    88  VAL88       0.0019
    115  CG2        9.7550   24.4420   -3.4330 C.3    88  VAL88       0.0019
    116  N          2.9080   28.7000  -14.4910 N.3    92  ASN92      -0.1240
    117  CA         2.7040   28.0910  -15.8030 C.3    92  ASN92       0.1653
    118  C          2.0400   29.1560  -16.6660 C.2    92  ASN92       0.2266
    119  O          0.8240   29.3520  -16.6140 O.2    92  ASN92      -0.2867
    120  CB         1.8540   26.8300  -15.6980 C.3    92  ASN92       0.1155
    121  CG         1.9340   25.9680  -16.9430 C.2    92  ASN92       0.2627
    122  OD1        2.9770   25.8810  -17.5890 O.2    92  ASN92      -0.2716
    123  ND2        0.8300   25.3220  -17.2840 N.am   92  ASN92      -0.0877
@<TRIPOS>BOND
     1    59    58    1
     2    59    60    2
     3    61    58    1
     4    61    62    1
     5    61    63    1
     6    58    57    1
     7    55    54    2
     8    57    54   am
     9    64    65    1
    10    54    53    1
    11   122   121    2
    12   123   121   am
    13   121   120    1
    14    65    68    1
    15    65    66    1
    16   118   119    2
    17   118   117    1
    18    68    69    1
    19    53    52    1
    20    53    56    1
    21    67    66    2
    22   117   120    1
    23   117   116    1
    24    69    70   ar
    25    69    71   ar
    26    70    72   ar
    27    71    73   ar
    28    46    47    2
    29    46    45    1
    30    72    74   ar
    31    50    49    2
    32    73    74   ar
    33    51    49   am
    34    49    48    1
    35    45    48    1
    36    45    44    1
    37    82    81    2
    38    75    76    1
    39     7     6    1
    40     7     8    1
    41    81    80    1
    42    81    83   am
    43     6     5    1
    44    80    79    1
    45    76    79    1
    46    76    77    1
    47    29    27   ar
    48    29    30   ar
    49    27    26   ar
    50    78    77    2
    51    30    32   ar
    52    30    28   ar
    53    26    25    1
    54    26    28   ar
    55    77    84   am
    56     5     2    1
    57    32    34   ar
    58    25    22    1
    59     1     2    1
    60    96    94   ar
    61    96    97   ar
    62    28    31   ar
    63    94    91   ar
    64    34    33   ar
    65     2     3    1
    66    31    33   ar
    67    40    41    1
    68    40    39    1
    69    97    95   ar
    70    37    38    2
    71    37    36    1
    72    84    85    1
    73    24    23    2
    74    41    42    1
    75    22    21    1
    76    22    23    1
    77    36    39    1
    78    36    35    1
    79    91    89   ar
    80    91    93   ar
    81     3     4    2
    82    85    88    1
    83    85    86    1
    84    88    89    1
    85    42    43    1
    86    95    93   ar
    87    17    15   ar
    88    17    19   ar
    89    89    90   ar
    90    15    14   ar
    91    93    92   ar
    92    20    19    1
    93    19    18   ar
    94    86    87    2
    95    86    98   am
    96   114   113    1
    97    90    92   ar
    98    14    13    1
    99    14    16   ar
   100   108   106    1
   101    13    10    1
   102    98    99    1
   103     9    10    1
   104    18    16   ar
   105    10    11    1
   106   111   112    2
   107   111   110    1
   108   113   110    1
   109   113   115    1
   110   105   106    2
   111   105   104    1
   112   106   107    1
   113   103   104    1
   114   103   102    1
   115   110   109    1
   116    99   102    1
   117    99   100    1
   118    11    12    2
   119   101   100    2
