@<TRIPOS>MOLECULE
tmp/5n91A01.pdb
 92 85 0 0 0
SMALL
GASTEIGER

@<TRIPOS>ATOM
      1  N         -2.1660   50.9230   -2.5840 N.3     2  SER2       -0.1217
      2  CA        -2.1580   51.6810   -3.8280 C.3     2  SER2        0.1889
      3  C         -1.3510   52.9610   -3.6630 C.2     2  SER2        0.2288
      4  O         -0.7780   53.4750   -4.6320 O.2     2  SER2       -0.2866
      5  CB        -3.5930   51.9990   -4.2580 C.3     2  SER2        0.2089
      6  OG        -4.2940   52.7070   -3.2470 O.3     2  SER2       -0.2183
      7  N          2.5870   51.1520   -3.4510 N.3     5  GLU5       -0.1245
      8  CA         3.0870   50.1480   -4.3850 C.3     5  GLU5        0.1567
      9  C          2.6350   50.4180   -5.8150 C.2     5  GLU5        0.2260
     10  O          1.4820   50.7870   -6.0580 O.2     5  GLU5       -0.2867
     11  CB         2.5850   48.7580   -4.0140 C.3     5  GLU5        0.0388
     12  CG         3.0700   48.2390   -2.6930 C.3     5  GLU5        0.1160
     13  CD         2.5340   46.8600   -2.4140 C.2     5  GLU5        0.3649
     14  OE1        1.3480   46.7430   -2.0370 O.co2   5  GLU5       -0.2457
     15  OE2        3.2930   45.8910   -2.6050 O.co2   5  GLU5       -0.2457
     16  N          4.7300   43.8450   -7.6230 N.3    40  TYR40      -0.1241
     17  CA         4.4970   45.1620   -7.0560 C.3    40  TYR40       0.1605
     18  C          5.7800   45.6710   -6.4270 C.2    40  TYR40       0.2264
     19  O          6.4460   44.9420   -5.6900 O.2    40  TYR40      -0.2867
     20  CB         3.3990   45.1180   -5.9960 C.3    40  TYR40       0.0534
     21  CG         2.0160   45.0460   -6.5800 C.ar   40  TYR40      -0.0201
     22  CD1        1.4090   46.1810   -7.0860 C.ar   40  TYR40      -0.0009
     23  CD2        1.3160   43.8560   -6.6170 C.ar   40  TYR40      -0.0009
     24  CE1        0.1520   46.1390   -7.6210 C.ar   40  TYR40       0.0417
     25  CE2        0.0480   43.8000   -7.1520 C.ar   40  TYR40       0.0417
     26  CZ        -0.5280   44.9510   -7.6550 C.ar   40  TYR40       0.1957
     27  OH        -1.7930   44.9250   -8.1940 O.3    40  TYR40      -0.2866
     28  N          7.2500   48.3640   -3.8910 N.3    42  HIS42      -0.1241
     29  CA         7.0540   49.3470   -2.8330 C.3    42  HIS42       0.1621
     30  C          8.2110   50.3270   -2.9400 C.2    42  HIS42       0.2264
     31  O          9.3360   50.0370   -2.5270 O.2    42  HIS42      -0.2867
     32  CB         7.0080   48.6620   -1.4740 C.3    42  HIS42       0.0745
     33  CG         6.6260   49.5740   -0.3520 C.ar   42  HIS42       0.0817
     34  ND1        7.4340   50.6030    0.0760 N.ar   42  HIS42      -0.2268
     35  CD2        5.5210   49.6140    0.4280 C.ar   42  HIS42       0.1154
     36  CE1        6.8490   51.2340    1.0770 C.ar   42  HIS42       0.1986
     37  NE2        5.6870   50.6540    1.3100 N.ar   42  HIS42      -0.2212
     38  N          7.0550   42.3630   -4.2280 N.3    49  ARG49      -0.1245
     39  CA         6.3140   41.1450   -3.9380 C.3    49  ARG49       0.1563
     40  C          5.5340   40.7160   -5.1680 C.2    49  ARG49       0.2260
     41  O          5.2030   41.5360   -6.0270 O.2    49  ARG49      -0.2867
     42  CB         5.3670   41.2970   -2.7500 C.3    49  ARG49       0.0307
     43  CG         4.3350   42.3840   -2.9030 C.3    49  ARG49       0.0489
     44  CD         3.2580   42.2210   -1.8600 C.3    49  ARG49       0.2205
     45  NE         2.3930   43.3870   -1.7890 N.pl3  49  ARG49      -0.0865
     46  CZ         1.2270   43.4220   -1.1580 C.cat  49  ARG49       0.5346
     47  NH1        0.7690   42.3410   -0.5500 N.pl3  49  ARG49       0.1354
     48  NH2        0.5170   44.5400   -1.1440 N.pl3  49  ARG49       0.1354
     49  N          2.0370   39.1490   -6.4360 N.3    51  VAL51      -0.1245
     50  CA         0.6370   39.0550   -6.0360 C.3    51  VAL51       0.1561
     51  C         -0.1640   38.5820   -7.2420 C.2    51  VAL51       0.2260
     52  O         -0.0690   39.1750   -8.3220 O.2    51  VAL51      -0.2867
     53  CB         0.0990   40.4040   -5.5170 C.3    51  VAL51       0.0252
     54  CG1       -1.3640   40.2800   -5.0860 C.3    51  VAL51       0.0019
     55  CG2        0.9430   40.9230   -4.3620 C.3    51  VAL51       0.0019
     56  N         -4.0910   37.0360   -8.6710 N.3    53  ARG53      -0.1245
     57  CA        -5.5230   36.8930   -8.4360 C.3    53  ARG53       0.1563
     58  C         -6.1670   36.1270   -9.5840 C.2    53  ARG53       0.2260
     59  O         -5.9020   36.4170  -10.7540 O.2    53  ARG53      -0.2867
     60  CB        -6.1880   38.2680   -8.3010 C.3    53  ARG53       0.0307
     61  CG        -5.5400   39.1710   -7.2670 C.3    53  ARG53       0.0489
     62  CD        -6.3490   40.4430   -7.0700 C.3    53  ARG53       0.2205
     63  NE        -7.5820   40.1940   -6.3260 N.pl3  53  ARG53      -0.0865
     64  CZ        -7.8910   40.7200   -5.1410 C.cat  53  ARG53       0.5346
     65  NH1       -7.0760   41.5670   -4.5300 N.pl3  53  ARG53       0.1354
     66  NH2       -9.0420   40.4040   -4.5640 N.pl3  53  ARG53       0.1354
     67  N         -7.1250   35.8940   -4.2260 N.3    60  VAL60      -0.1245
     68  CA        -5.6740   36.0220   -4.1310 C.3    60  VAL60       0.1561
     69  C         -5.0790   34.6400   -3.8970 C.2    60  VAL60       0.2260
     70  O         -5.3480   33.9920   -2.8790 O.2    60  VAL60      -0.2867
     71  CB        -5.2720   37.0020   -3.0210 C.3    60  VAL60       0.0252
     72  CG1       -3.7500   36.9990   -2.8230 C.3    60  VAL60       0.0019
     73  CG2       -5.7530   38.3850   -3.3560 C.3    60  VAL60       0.0019
     74  N          0.9630   35.7160   -2.7880 N.3    63  ASN63      -0.1225
     75  CA         1.3040   36.9990   -2.1900 C.3    63  ASN63       0.1785
     76  C          2.6030   36.7640   -1.4250 C.2    63  ASN63       0.2597
     77  O          2.5810   36.4870   -0.2240 O.2    63  ASN63      -0.2718
     78  CB         0.1780   37.4670   -1.2830 C.3    63  ASN63       0.1169
     79  CG         0.4990   38.7520   -0.5680 C.2    63  ASN63       0.2627
     80  OD1        1.3970   39.4920   -0.9620 O.2    63  ASN63      -0.2716
     81  ND2       -0.2340   39.0250    0.4990 N.am   63  ASN63      -0.0877
     82  N          3.7310   36.8260   -2.1190 N.am   64  CYS64      -0.1956
     83  CA         4.9980   36.4170   -1.5380 C.3    64  CYS64       0.1843
     84  C          6.0740   37.4430   -1.8370 C.2    64  CYS64       0.2625
     85  O          6.1930   37.9410   -2.9600 O.2    64  CYS64      -0.2714
     86  CB         5.4250   35.0430   -2.0550 C.3    64  CYS64       0.0997
     87  SG         5.6720   34.9730   -3.8210 S.3    64  CYS64      -0.0797
     88  N          6.8580   37.7470   -0.8150 N.am   65  ALA65      -0.1977
     89  CA         7.9720   38.6700   -0.9550 C.3    65  ALA65       0.1597
     90  C          9.0190   38.0840   -1.8920 C.2    65  ALA65       0.2287
     91  O          9.2120   36.8690   -1.9660 O.2    65  ALA65      -0.2864
     92  CB         8.6180   38.9320    0.4040 C.3    65  ALA65       0.0319
@<TRIPOS>BOND
     1    59    58    2
     2    58    57    1
     3    56    57    1
     4    57    60    1
     5    52    51    2
     6    60    61    1
     7    27    26    1
     8    26    24   ar
     9    26    25   ar
    10    16    17    1
    11    24    22   ar
    12    61    62    1
    13    51    50    1
    14    25    23   ar
    15    22    21   ar
    16    62    63    1
    17    17    18    1
    18    17    20    1
    19    23    21   ar
    20    21    20    1
    21    49    50    1
    22    18    19    2
    23    63    64    2
    24    10     9    2
    25    50    53    1
    26    41    40    2
    27     9     8    1
    28    53    54    1
    29    53    55    1
    30    40    39    1
    31    64    66    1
    32    64    65    1
    33     4     3    2
    34     8    11    1
    35     8     7    1
    36     5     2    1
    37     5     6    1
    38    38    39    1
    39    67    68    1
    40    68    69    1
    41    68    71    1
    42    11    12    1
    43    39    42    1
    44    69    70    2
    45    28    29    1
    46     2     3    1
    47     2     1    1
    48    87    86    1
    49    73    71    1
    50    71    72    1
    51    85    84    2
    52    30    29    1
    53    30    31    2
    54    43    42    1
    55    43    44    1
    56    29    32    1
    57    74    75    1
    58    12    13    1
    59    15    13   ar
    60    13    14   ar
    61    75    76    1
    62    75    78    1
    63    82    83    1
    64    82    76   am
    65    86    83    1
    66    91    90    2
    67    90    89    1
    68    44    45    1
    69    84    83    1
    70    84    88   am
    71    45    46    2
    72    32    33    1
    73    76    77    2
    74    78    79    1
    75    46    48    1
    76    46    47    1
    77    80    79    2
    78    89    88    1
    79    89    92    1
    80    79    81   am
    81    33    34   ar
    82    33    35   ar
    83    34    36   ar
    84    35    37   ar
    85    36    37   ar
