@<TRIPOS>MOLECULE
tmp/5n93A00.pdb
 169 157 0 0 0
SMALL
GASTEIGER

@<TRIPOS>ATOM
      1  N         -6.4860   34.2100   55.3550 N.3    14  LYS14      -0.1245
      2  CA        -6.6090   35.6100   54.9770 C.3    14  LYS14       0.1561
      3  C         -6.5450   35.7570   53.4870 C.2    14  LYS14       0.2260
      4  O         -6.2430   34.8140   52.7860 O.2    14  LYS14      -0.2867
      5  CB        -5.4980   36.4370   55.5770 C.3    14  LYS14       0.0271
      6  CG        -4.1130   35.9060   55.3020 C.3    14  LYS14       0.0035
      7  CD        -3.1320   36.8800   55.8900 C.3    14  LYS14       0.0206
      8  CE        -2.9510   38.0770   54.9850 C.3    14  LYS14       0.1093
      9  NZ        -1.6600   37.9270   54.2690 N.3    14  LYS14      -0.1314
     10  N         -5.1060   37.5530   50.0010 N.3    16  ILE16      -0.1231
     11  CA        -3.8020   37.9470   49.5340 C.3    16  ILE16       0.1692
     12  C         -3.8110   38.5710   48.1590 C.2    16  ILE16       0.2592
     13  O         -2.7920   39.1100   47.7290 O.2    16  ILE16      -0.2718
     14  CB        -2.8280   36.7620   49.5710 C.3    16  ILE16       0.0266
     15  CG1       -3.4930   35.4960   49.0280 C.3    16  ILE16       0.0019
     16  CG2       -2.3830   36.5330   51.0030 C.3    16  ILE16       0.0020
     17  CD1       -2.5450   34.3310   48.8100 C.3    16  ILE16       0.0001
     18  N         -4.9380   38.5290   47.4650 N.am   17  GLY17      -0.1957
     19  CA        -5.0130   39.2260   46.2050 C.3    17  GLY17       0.1869
     20  C         -6.4240   39.5050   45.7790 C.2    17  GLY17       0.2309
     21  O         -7.3830   38.9500   46.3310 O.2    17  GLY17      -0.2863
     22  N         -7.9790   36.0850   45.9050 N.3    24  VAL24      -0.1245
     23  CA        -7.1500   34.9670   46.2990 C.3    24  VAL24       0.1561
     24  C         -7.0300   35.0020   47.8010 C.2    24  VAL24       0.2260
     25  O         -6.7600   36.0600   48.3710 O.2    24  VAL24      -0.2867
     26  CB        -5.7420   35.0030   45.6890 C.3    24  VAL24       0.0252
     27  CG1       -5.0210   33.6770   45.9470 C.3    24  VAL24       0.0019
     28  CG2       -5.7960   35.3100   44.1890 C.3    24  VAL24       0.0019
     29  N         -5.3550   32.7320   51.2340 N.3    26  GLN26      -0.1245
     30  CA        -4.4750   31.7760   51.8630 C.3    26  GLN26       0.1566
     31  C         -5.3950   30.9840   52.7810 C.2    26  GLN26       0.2260
     32  O         -6.1420   31.5620   53.5540 O.2    26  GLN26      -0.2867
     33  CB        -3.4820   32.6210   52.6240 C.3    26  GLN26       0.0367
     34  CG        -2.3920   31.9490   53.3790 C.3    26  GLN26       0.0905
     35  CD        -1.4130   33.0110   53.8240 C.2    26  GLN26       0.2608
     36  OE1       -1.7480   33.8740   54.6320 O.2    26  GLN26      -0.2717
     37  NE2       -0.2230   33.0000   53.2440 N.am   26  GLN26      -0.0878
     38  N         -3.4120   28.1870   48.3910 N.3    36  ALA36      -0.1245
     39  CA        -3.9830   29.4500   47.9530 C.3    36  ALA36       0.1562
     40  C         -5.1880   29.0390   47.1490 C.2    36  ALA36       0.2260
     41  O         -5.1250   28.1260   46.3190 O.2    36  ALA36      -0.2867
     42  CB        -2.9860   30.2010   47.1140 C.3    36  ALA36       0.0290
     43  N         -8.0350   30.5600   44.6700 N.3    38  LYS38      -0.1245
     44  CA        -8.5770   31.6620   43.9050 C.3    38  LYS38       0.1561
     45  C        -10.0640   31.4460   43.6890 C.2    38  LYS38       0.2260
     46  O        -10.5210   30.3570   43.4060 O.2    38  LYS38      -0.2867
     47  CB        -7.8500   31.8000   42.5790 C.3    38  LYS38       0.0271
     48  CG        -8.4620   32.8610   41.6780 C.3    38  LYS38       0.0035
     49  CD        -7.4310   33.2800   40.6650 C.3    38  LYS38       0.0206
     50  CE        -8.0490   34.0230   39.5060 C.3    38  LYS38       0.1093
     51  NZ        -7.0080   34.1480   38.4500 N.3    38  LYS38      -0.1314
     52  N          3.2920   27.2830   38.6500 N.3    71  ILE71      -0.1245
     53  CA         2.4100   26.9930   39.7770 C.3    71  ILE71       0.1561
     54  C          1.6630   25.6450   39.7040 C.2    71  ILE71       0.2260
     55  O          1.1890   25.2100   38.6600 O.2    71  ILE71      -0.2867
     56  CB         1.4570   28.1950   39.9860 C.3    71  ILE71       0.0252
     57  CG1        0.9990   28.2970   41.4240 C.3    71  ILE71       0.0019
     58  CG2        0.2600   28.1780   39.0900 C.3    71  ILE71       0.0019
     59  CD1        1.9650   29.0920   42.2490 C.3    71  ILE71       0.0001
     60  N         -4.6060   25.9890   44.6150 N.3    87  MET87      -0.1230
     61  CA        -3.2340   26.0370   44.1560 C.3    87  MET87       0.1702
     62  C         -2.2600   25.9090   45.2990 C.2    87  MET87       0.2592
     63  O         -2.6250   25.9350   46.4750 O.2    87  MET87      -0.2718
     64  CB        -2.9870   27.3710   43.4070 C.3    87  MET87       0.0401
     65  CG        -3.9020   27.5470   42.1660 C.3    87  MET87       0.0596
     66  SD        -3.8480   29.2090   41.4710 S.3    87  MET87      -0.1393
     67  CE        -4.9000   29.9930   42.6860 C.3    87  MET87       0.0692
     68  N         -1.0110   25.7810   44.9290 N.am   88  GLU88      -0.1966
     69  CA         0.0910   25.9300   45.8430 C.3    88  GLU88       0.1733
     70  C          0.2300   27.3840   46.3030 C.2    88  GLU88       0.2616
     71  O          0.0220   28.3400   45.5330 O.2    88  GLU88      -0.2715
     72  CB         1.3370   25.3410   45.2060 C.3    88  GLU88       0.0429
     73  CG         2.6250   26.1000   45.2610 C.3    88  GLU88       0.1163
     74  CD         3.6620   25.4310   44.3690 C.2    88  GLU88       0.3649
     75  OE1        3.5170   25.4560   43.1230 O.co2  88  GLU88      -0.2457
     76  OE2        4.6050   24.8210   44.9190 O.co2  88  GLU88      -0.2457
     77  N          0.5750   27.5540   47.5760 N.am   89  CYS89      -0.1954
     78  CA         0.5690   28.8820   48.1950 C.3    89  CYS89       0.1843
     79  C          1.8860   29.6480   48.0930 C.2    89  CYS89       0.2626
     80  O          1.9140   30.8710   47.8470 O.2    89  CYS89      -0.2714
     81  CB         0.1950   28.7540   49.6660 C.3    89  CYS89       0.0997
     82  SG        -0.1860   30.3550   50.3640 S.3    89  CYS89      -0.0797
     83  N          2.9720   28.9380   48.2540 N.am   90  GLY90      -0.1940
     84  CA         4.2800   29.5300   48.2960 C.3    90  GLY90       0.2014
     85  C          4.4320   30.4840   49.4520 C.2    90  GLY90       0.2639
     86  O          3.6460   30.4770   50.3650 O.2    90  GLY90      -0.2714
     87  N          5.4530   31.3200   49.3700 N.am   91  ASN91      -0.1958
     88  CA         5.8930   32.1140   50.4770 C.3    91  ASN91       0.1819
     89  C          5.4560   33.5220   50.2110 C.2    91  ASN91       0.2621
     90  O          4.7280   34.0630   50.9960 O.2    91  ASN91      -0.2715
     91  CB         7.4170   31.9900   50.6600 C.3    91  ASN91       0.1195
     92  CG         7.8950   30.5390   50.6480 C.2    91  ASN91       0.2630
     93  OD1        9.0480   30.2530   50.3230 O.2    91  ASN91      -0.2716
     94  ND2        7.0030   29.6130   50.9800 N.am   91  ASN91      -0.0877
     95  N          5.8610   34.1030   49.0870 N.am   92  ILE92      -0.1963
     96  CA         5.2680   35.3610   48.6290 C.3    92  ILE92       0.1727
     97  C          5.5310   35.6710   47.1750 C.2    92  ILE92       0.2616
     98  O          6.4410   35.1220   46.5820 O.2    92  ILE92      -0.2715
     99  CB         5.8270   36.5860   49.3720 C.3    92  ILE92       0.0290
    100  CG1        7.3470   36.5750   49.3670 C.3    92  ILE92       0.0022
    101  CG2        5.2620   36.6960   50.7680 C.3    92  ILE92       0.0023
    102  CD1        7.8710   37.9680   49.6170 C.3    92  ILE92       0.0001
    103  N          4.7910   36.6300   46.6380 N.am   93  ASP93      -0.1971
    104  CA         5.0300   37.0490   45.2590 C.3    93  ASP93       0.1709
    105  C          6.3150   37.8100   45.1850 C.2    93  ASP93       0.2293
    106  O          6.8270   38.2660   46.1830 O.2    93  ASP93      -0.2864
    107  CB         3.8840   37.8700   44.6630 C.3    93  ASP93       0.1436
    108  CG         3.8380   39.3040   45.1670 C.2    93  ASP93       0.3671
    109  OD1        3.3390   39.4860   46.2810 O.co2  93  ASP93      -0.2456
    110  OD2        4.2280   40.2410   44.4210 O.co2  93  ASP93      -0.2456
    111  N          6.3030   41.9070   46.0200 N.3    96  SER96      -0.1217
    112  CA         6.4140   42.1460   47.4410 C.3    96  SER96       0.1889
    113  C          7.8120   41.8960   47.9520 C.2    96  SER96       0.2288
    114  O          8.3330   42.6650   48.7460 O.2    96  SER96      -0.2866
    115  CB         5.4730   41.2160   48.1910 C.3    96  SER96       0.2089
    116  OG         4.1600   41.3660   47.7130 O.3    96  SER96      -0.2183
    117  N          4.7180   40.5640   39.9600 N.3   136  ALA136     -0.1245
    118  CA         3.5020   40.0070   40.5260 C.3   136  ALA136      0.1562
    119  C          3.0960   38.6990   39.8980 C.2   136  ALA136      0.2260
    120  O          2.2520   38.0130   40.4700 O.2   136  ALA136     -0.2867
    121  CB         2.3370   40.9770   40.3260 C.3   136  ALA136      0.0290
    122  N          5.8670   33.7940   41.7640 N.3   139  LEU139     -0.1245
    123  CA         5.7220   33.4150   43.1590 C.3   139  LEU139      0.1561
    124  C          7.0190   32.8180   43.6240 C.2   139  LEU139      0.2260
    125  O          7.6540   32.0640   42.8770 O.2   139  LEU139     -0.2867
    126  CB         4.5990   32.3920   43.3160 C.3   139  LEU139      0.0270
    127  CG         4.2990   31.9480   44.7450 C.3   139  LEU139      0.0019
    128  CD1        3.8010   33.1530   45.5130 C.3   139  LEU139      0.0001
    129  CD2        3.2640   30.8340   44.7630 C.3   139  LEU139      0.0001
    130  N          2.7790   32.1400   37.9380 N.3   148  ILE148     -0.1245
    131  CA         1.4720   32.0060   38.5230 C.3   148  ILE148      0.1561
    132  C          0.3860   32.0140   37.4680 C.2   148  ILE148      0.2260
    133  O         -0.6280   31.3720   37.6310 O.2   148  ILE148     -0.2867
    134  CB         1.1460   33.1850   39.4770 C.3   148  ILE148      0.0252
    135  CG1        2.0850   33.1900   40.6990 C.3   148  ILE148      0.0019
    136  CG2       -0.2900   33.1120   39.9210 C.3   148  ILE148      0.0019
    137  CD1        2.1760   34.5200   41.4310 C.3   148  ILE148      0.0001
    138  N         -4.4430   39.9370   38.3420 N.3   156  MET156     -0.1230
    139  CA        -4.6610   40.0470   39.7720 C.3   156  MET156      0.1702
    140  C         -3.6050   40.9850   40.3640 C.2   156  MET156      0.2592
    141  O         -2.4840   41.0510   39.8550 O.2   156  MET156     -0.2718
    142  CB        -4.4600   38.6690   40.4010 C.3   156  MET156      0.0401
    143  CG        -5.4660   38.3060   41.4660 C.3   156  MET156      0.0596
    144  SD        -6.9100   37.5760   40.6980 S.3   156  MET156     -0.1393
    145  CE        -8.0330   37.6630   42.0820 C.3   156  MET156      0.0692
    146  N         -3.9490   41.6770   41.4490 N.am  157  GLN157     -0.1966
    147  CA        -2.9730   42.4580   42.2350 C.3   157  GLN157      0.1718
    148  C         -2.7670   41.7120   43.5540 C.2   157  GLN157      0.2458
    149  O         -3.7500   41.2600   44.1570 O.2   157  GLN157     -0.2730
    150  CB        -3.4820   43.8850   42.5370 C.3   157  GLN157      0.0407
    151  CG        -4.4200   44.5120   41.5040 C.3   157  GLN157      0.0908
    152  CD        -3.7460   44.7830   40.1680 C.2   157  GLN157      0.2608
    153  OE1       -2.5590   45.1210   40.1080 O.2   157  GLN157     -0.2717
    154  NE2       -4.5110   44.6580   39.0860 N.am  157  GLN157     -0.0878
    155  N         -1.5040   41.5650   44.0130 N.am  158  PRO158     -0.2716
    156  CA        -1.3590   41.0850   45.4100 C.3   158  PRO158      0.1536
    157  C         -1.7640   42.1860   46.4070 C.2   158  PRO158      0.2598
    158  O         -1.7220   43.3550   46.0490 O.2   158  PRO158     -0.2715
    159  CB         0.1270   40.7160   45.5300 C.3   158  PRO158      0.0310
    160  CG         0.8120   41.3000   44.3250 C.3   158  PRO158      0.0237
    161  CD        -0.2160   41.6880   43.3040 C.3   158  PRO158      0.0939
    162  N         -2.1820   41.8040   47.6160 N.am  159  ASP159     -0.1972
    163  CA        -2.5530   42.7570   48.6870 C.3   159  ASP159      0.1709
    164  C         -2.8180   42.0090   50.0110 C.2   159  ASP159      0.2293
    165  O         -2.1440   42.2190   51.0210 O.2   159  ASP159     -0.2864
    166  CB        -3.8010   43.5470   48.2980 C.3   159  ASP159      0.1436
    167  CG        -5.0320   42.6690   48.2100 C.2   159  ASP159      0.3671
    168  OD1       -5.2670   41.8810   49.1570 O.co2 159  ASP159     -0.2456
    169  OD2       -5.7600   42.7540   47.2000 O.co2 159  ASP159     -0.2456
@<TRIPOS>BOND
     1   132   133    2
     2   132   131    1
     3   130   131    1
     4   138   139    1
     5    51    50    1
     6   131   134    1
     7    52    53    1
     8    55    54    2
     9   154   152   am
    10    58    56    1
    11   134   136    1
    12   134   135    1
    13    50    49    1
    14    54    53    1
    15   139   140    1
    16   139   142    1
    17    53    56    1
    18   141   140    2
    19   119   120    2
    20   119   118    1
    21   117   118    1
    22    56    57    1
    23   153   152    2
    24   152   151    1
    25   121   118    1
    26   140   146   am
    27   142   143    1
    28    49    48    1
    29   144   143    1
    30   144   145    1
    31   135   137    1
    32    57    59    1
    33   146   147    1
    34    66    65    1
    35    66    67    1
    36   151   150    1
    37    48    47    1
    38   122   123    1
    39    65    64    1
    40   147   150    1
    41   147   148    1
    42    47    44    1
    43   125   124    2
    44    75    74   ar
    45   123   126    1
    46   123   124    1
    47   161   155    1
    48   161   160    1
    49   126   127    1
    50    46    45    2
    51    64    61    1
    52   148   155   am
    53   148   149    2
    54    45    44    1
    55    44    43    1
    56   155   156    1
    57    61    60    1
    58    61    62    1
    59    28    26    1
    60   160   159    1
    61    74    76   ar
    62    74    73    1
    63   110   108   ar
    64   107   108    1
    65   107   104    1
    66   127   129    1
    67   127   128    1
    68    68    62   am
    69    68    69    1
    70   108   109   ar
    71   105   104    1
    72   105   106    2
    73    72    73    1
    74    72    69    1
    75   104   103    1
    76    62    63    2
    77   156   159    1
    78   156   157    1
    79    71    70    2
    80    26    27    1
    81    26    23    1
    82    20    19    1
    83    20    21    2
    84    69    70    1
    85    22    23    1
    86   111   112    1
    87   158   157    2
    88    19    18    1
    89    23    24    1
    90    70    77   am
    91    41    40    2
    92   157   162   am
    93    98    97    2
    94   103    97   am
    95    42    39    1
    96    40    39    1
    97    97    96    1
    98   169   167   ar
    99   112   113    1
   100   112   115    1
   101    18    12   am
   102    77    78    1
   103   162   163    1
   104   116   115    1
   105    13    12    2
   106    24    25    2
   107    80    79    2
   108   113   114    2
   109    39    38    1
   110    79    78    1
   111    79    83   am
   112    12    11    1
   113    78    81    1
   114   167   166    1
   115   167   168   ar
   116    83    84    1
   117    84    85    1
   118   166   163    1
   119    96    95    1
   120    96    99    1
   121   163   164    1
   122    17    15    1
   123    15    14    1
   124    95    89   am
   125   100    99    1
   126   100   102    1
   127    87    85   am
   128    87    88    1
   129    99   101    1
   130    85    86    2
   131    11    14    1
   132    11    10    1
   133    14    16    1
   134    81    82    1
   135   164   165    2
   136    89    88    1
   137    89    90    2
   138    93    92    2
   139    88    91    1
   140    92    91    1
   141    92    94   am
   142    29    30    1
   143    30    33    1
   144    30    31    1
   145    33    34    1
   146    31    32    2
   147     4     3    2
   148    37    35   am
   149    34    35    1
   150     3     2    1
   151    35    36    2
   152     9     8    1
   153     2     1    1
   154     2     5    1
   155     8     7    1
   156     6     5    1
   157     6     7    1
