@<TRIPOS>MOLECULE
tmp/5n99S00.pdb
 184 176 0 0 0
SMALL
GASTEIGER

@<TRIPOS>ATOM
      1  N         27.4610    3.8080   27.4320 N.3    11  LEU11      -0.1245
      2  CA        27.4390    2.7970   28.4960 C.3    11  LEU11       0.1561
      3  C         27.9640    3.3370   29.8660 C.2    11  LEU11       0.2260
      4  O         28.2890    2.5540   30.7670 O.2    11  LEU11      -0.2867
      5  CB        28.2340    1.5460   28.0430 C.3    11  LEU11       0.0270
      6  CG        27.6260    0.7220   26.8690 C.3    11  LEU11       0.0019
      7  CD1       28.6410   -0.2810   26.2940 C.3    11  LEU11       0.0001
      8  CD2       26.3220    0.0280   27.2740 C.3    11  LEU11       0.0001
      9  N         30.7870    5.1800   30.5460 N.3    13  SER13      -0.1217
     10  CA        32.2400    5.3710   30.7350 C.3    13  SER13       0.1889
     11  C         32.6960    6.6640   30.1020 C.2    13  SER13       0.2288
     12  O         32.0130    7.2540   29.2550 O.2    13  SER13      -0.2866
     13  CB        33.0480    4.2170   30.1590 C.3    13  SER13       0.2089
     14  OG        32.5080    2.9920   30.6150 O.3    13  SER13      -0.2183
     15  N         41.1660    6.5050   31.8980 N.3    29  TYR29      -0.1241
     16  CA        39.8670    5.9420   31.5770 C.3    29  TYR29       0.1605
     17  C         39.0970    5.7750   32.8580 C.2    29  TYR29       0.2264
     18  O         39.6420    5.2370   33.8300 O.2    29  TYR29      -0.2867
     19  CB        40.0580    4.5880   30.8660 C.3    29  TYR29       0.0534
     20  CG        38.7790    3.9460   30.3840 C.ar   29  TYR29      -0.0201
     21  CD1       38.3890    4.0450   29.0560 C.ar   29  TYR29      -0.0009
     22  CD2       38.0020    3.1660   31.2430 C.ar   29  TYR29      -0.0009
     23  CE1       37.2290    3.4120   28.5970 C.ar   29  TYR29       0.0417
     24  CE2       36.8420    2.5340   30.7990 C.ar   29  TYR29       0.0417
     25  CZ        36.4660    2.6530   29.4750 C.ar   29  TYR29       0.1957
     26  OH        35.3700    1.9460   29.0360 O.3    29  TYR29      -0.2866
     27  N         35.7480    3.9680   34.2110 N.3    31  SER31      -0.1202
     28  CA        34.7500    2.9820   33.8230 C.3    31  SER31       0.2020
     29  C         33.3430    3.3970   34.1720 C.2    31  SER31       0.2618
     30  O         32.4080    3.0490   33.4340 O.2    31  SER31      -0.2717
     31  CB        35.0850    1.6110   34.4030 C.3    31  SER31       0.2103
     32  OG        36.4030    1.2600   34.0020 O.3    31  SER31      -0.2182
     33  N         33.1760    4.1210   35.3110 N.am   32  ALA32      -0.1979
     34  CA        31.8480    4.6490   35.6560 C.3    32  ALA32       0.1597
     35  C         32.0450    6.1280   35.9410 C.2    32  ALA32       0.2287
     36  O         32.7550    6.4690   36.8960 O.2    32  ALA32      -0.2864
     37  CB        31.2770    3.9440   36.8640 C.3    32  ALA32       0.0319
     38  N         33.0040    7.9480   39.4420 N.3    35  ASN35      -0.1240
     39  CA        33.5130    6.9920   40.4240 C.3    35  ASN35       0.1653
     40  C         35.0460    6.9680   40.3570 C.2    35  ASN35       0.2266
     41  O         35.6440    6.3270   39.4810 O.2    35  ASN35      -0.2867
     42  CB        32.9190    5.5830   40.2140 C.3    35  ASN35       0.1155
     43  CG        33.2780    4.6010   41.3170 C.2    35  ASN35       0.2627
     44  OD1       34.2610    4.7560   42.0590 O.2    35  ASN35      -0.2716
     45  ND2       32.5020    3.5390   41.4400 N.am   35  ASN35      -0.0877
     46  N         37.1870    3.8490   39.8400 N.3    38  SER38      -0.1217
     47  CA        37.1070    3.2130   38.5160 C.3    38  SER38       0.1889
     48  C         38.0450    3.8800   37.4980 C.2    38  SER38       0.2288
     49  O         37.8720    3.7010   36.2890 O.2    38  SER38      -0.2866
     50  CB        35.6560    3.1620   38.0210 C.3    38  SER38       0.2089
     51  OG        35.1710    4.4240   37.5910 O.3    38  SER38      -0.2183
     52  N         41.6670    4.3750   35.5890 N.3    40  TYR40      -0.1241
     53  CA        42.8270    3.5870   35.1860 C.3    40  TYR40       0.1605
     54  C         43.6490    4.3660   34.1630 C.2    40  TYR40       0.2264
     55  O         43.0960    5.1400   33.3640 O.2    40  TYR40      -0.2867
     56  CB        42.3810    2.2620   34.5350 C.3    40  TYR40       0.0534
     57  CG        41.4870    1.4150   35.4210 C.ar   40  TYR40      -0.0201
     58  CD1       42.0090    0.3610   36.1780 C.ar   40  TYR40      -0.0009
     59  CD2       40.1130    1.6490   35.4890 C.ar   40  TYR40      -0.0009
     60  CE1       41.1900   -0.4090   37.0050 C.ar   40  TYR40       0.0417
     61  CE2       39.2890    0.8940   36.3200 C.ar   40  TYR40       0.0417
     62  CZ        39.8320   -0.1370   37.0760 C.ar   40  TYR40       0.1957
     63  OH        39.0210   -0.8700   37.9200 O.3    40  TYR40      -0.2866
     64  N         43.3980   -3.3790   33.6070 N.3    65  TRP65      -0.1241
     65  CA        42.3950   -3.1440   34.6400 C.3    65  TRP65       0.1605
     66  C         42.9000   -3.3300   36.0620 C.2    65  TRP65       0.2264
     67  O         42.2550   -3.9850   36.8930 O.2    65  TRP65      -0.2867
     68  CB        41.1260   -3.9700   34.3590 C.3    65  TRP65       0.0550
     69  CG        40.5590   -3.6470   33.0000 C.ar   65  TRP65       0.0003
     70  CD1       40.5500   -4.4550   31.9040 C.ar   65  TRP65       0.0946
     71  CD2       39.9800   -2.3990   32.5870 C.ar   65  TRP65       0.0152
     72  NE1       39.9750   -3.8020   30.8360 N.ar   65  TRP65      -0.2442
     73  CE2       39.6320   -2.5320   31.2230 C.ar   65  TRP65       0.0810
     74  CE3       39.7070   -1.1860   33.2440 C.ar   65  TRP65       0.0012
     75  CZ2       39.0270   -1.4980   30.5000 C.ar   65  TRP65       0.0191
     76  CZ3       39.0880   -0.1640   32.5350 C.ar   65  TRP65       0.0001
     77  CH2       38.7690   -0.3190   31.1710 C.ar   65  TRP65       0.0015
     78  N         42.8480    0.3690   43.8110 N.3    69  TYR69      -0.1227
     79  CA        41.6090   -0.0940   44.4410 C.3    69  TYR69       0.1736
     80  C         41.1420   -1.4370   43.9810 C.2    69  TYR69       0.2595
     81  O         40.5090   -2.1490   44.7670 O.2    69  TYR69      -0.2718
     82  CB        40.4860    0.9430   44.2220 C.3    69  TYR69       0.0548
     83  CG        40.9270    2.3340   44.6130 C.ar   69  TYR69      -0.0200
     84  CD1       41.3200    3.2560   43.6470 C.ar   69  TYR69      -0.0009
     85  CD2       41.0750    2.6890   45.9570 C.ar   69  TYR69      -0.0009
     86  CE1       41.7980    4.5150   43.9990 C.ar   69  TYR69       0.0417
     87  CE2       41.5700    3.9410   46.3210 C.ar   69  TYR69       0.0417
     88  CZ        41.9220    4.8530   45.3370 C.ar   69  TYR69       0.1957
     89  OH        42.4110    6.0920   45.6730 O.3    69  TYR69      -0.2866
     90  N         41.3940   -1.7570   42.6790 N.am   70  ARG70      -0.1966
     91  CA        40.8200   -2.9100   41.9880 C.3    70  ARG70       0.1729
     92  C         41.7860   -3.5370   41.0060 C.2    70  ARG70       0.2616
     93  O         42.5460   -2.8270   40.3510 O.2    70  ARG70      -0.2715
     94  CB        39.5860   -2.4140   41.1780 C.3    70  ARG70       0.0348
     95  CG        38.4850   -1.8210   42.0530 C.3    70  ARG70       0.0492
     96  CD        37.4540   -1.0370   41.2640 C.3    70  ARG70       0.2205
     97  NE        36.4060   -0.5400   42.1590 N.pl3  70  ARG70      -0.0865
     98  CZ        35.2410   -0.0350   41.7640 C.cat  70  ARG70       0.5346
     99  NH1       34.9540    0.0650   40.4720 N.pl3  70  ARG70       0.1354
    100  NH2       34.3550    0.3810   42.6610 N.pl3  70  ARG70       0.1354
    101  N         41.7530   -4.8830   40.8960 N.am   71  ASN71      -0.1958
    102  CA        42.5480   -5.5600   39.8750 C.3    71  ASN71       0.1819
    103  C         41.7210   -6.6990   39.2760 C.2    71  ASN71       0.2621
    104  O         41.4300   -7.6740   39.9730 O.2    71  ASN71      -0.2715
    105  CB        43.9110   -6.0470   40.3760 C.3    71  ASN71       0.1195
    106  CG        44.8200   -6.4990   39.2440 C.2    71  ASN71       0.2630
    107  OD1       44.3990   -6.6080   38.0820 O.2    71  ASN71      -0.2716
    108  ND2       46.1030   -6.7480   39.5480 N.am   71  ASN71      -0.0877
    109  N         41.3040   -6.5270   38.0050 N.am   72  ALA72      -0.1977
    110  CA        40.5080   -7.5420   37.3060 C.3    72  ALA72       0.1597
    111  C         41.3870   -8.5030   36.4780 C.2    72  ALA72       0.2287
    112  O         40.8470   -9.3320   35.7080 O.2    72  ALA72      -0.2864
    113  CB        39.4600   -6.8710   36.4300 C.3    72  ALA72       0.0319
    114  N         43.1980   -8.2880   33.7740 N.3    74  SER74      -0.1217
    115  CA        42.7680   -8.2670   32.3810 C.3    74  SER74       0.1889
    116  C         43.1720   -6.9310   31.7720 C.2    74  SER74       0.2288
    117  O         43.5580   -5.9870   32.4860 O.2    74  SER74      -0.2866
    118  CB        41.2590   -8.4530   32.2630 C.3    74  SER74       0.2089
    119  OG        40.5410   -7.6240   33.1540 O.3    74  SER74      -0.2183
    120  N         42.1370   -4.2750   28.1810 N.3    76  THR76      -0.1218
    121  CA        41.4080   -4.0720   26.9280 C.3    76  THR76       0.1862
    122  C         42.2310   -3.2010   25.9930 C.2    76  THR76       0.2287
    123  O         42.8500   -2.2170   26.4400 O.2    76  THR76      -0.2866
    124  CB        40.0510   -3.3750   27.1830 C.3    76  THR76       0.1770
    125  OG1       39.2830   -4.1900   28.0590 O.3    76  THR76      -0.2211
    126  CG2       39.2470   -3.1120   25.8920 C.3    76  THR76       0.0375
    127  N         41.5930   -0.9440   22.5190 N.3    78  TRP78      -0.1241
    128  CA        40.6180   -0.4070   21.5600 C.3    78  TRP78       0.1605
    129  C         41.4160   -0.0290   20.3000 C.2    78  TRP78       0.2264
    130  O         42.4400    0.6820   20.3990 O.2    78  TRP78      -0.2867
    131  CB        39.9690    0.8720   22.1120 C.3    78  TRP78       0.0550
    132  CG        38.9450    0.6690   23.1800 C.ar   78  TRP78       0.0003
    133  CD1       37.5870    0.6950   23.0250 C.ar   78  TRP78       0.0946
    134  CD2       39.1910    0.4850   24.5790 C.ar   78  TRP78       0.0152
    135  NE1       36.9760    0.5780   24.2550 N.ar   78  TRP78      -0.2442
    136  CE2       37.9390    0.4880   25.2280 C.ar   78  TRP78       0.0810
    137  CE3       40.3520    0.3550   25.3560 C.ar   78  TRP78       0.0012
    138  CZ2       37.8160    0.3140   26.6200 C.ar   78  TRP78       0.0191
    139  CZ3       40.2340    0.2880   26.7470 C.ar   78  TRP78       0.0001
    140  CH2       38.9790    0.2560   27.3610 C.ar   78  TRP78       0.0015
    141  N         37.2360   -3.6000   20.0300 N.3    94  TRP94      -0.1241
    142  CA        38.1400   -3.8370   21.1490 C.3    94  TRP94       0.1605
    143  C         38.2790   -5.2990   21.4850 C.2    94  TRP94       0.2264
    144  O         37.4150   -6.0890   21.0990 O.2    94  TRP94      -0.2867
    145  CB        37.7220   -3.0360   22.4090 C.3    94  TRP94       0.0550
    146  CG        36.2960   -3.2250   22.8580 C.ar   94  TRP94       0.0003
    147  CD1       35.2640   -2.3560   22.6700 C.ar   94  TRP94       0.0946
    148  CD2       35.7600   -4.3230   23.6310 C.ar   94  TRP94       0.0152
    149  NE1       34.0880   -2.8950   23.1750 N.ar   94  TRP94      -0.2442
    150  CE2       34.3760   -4.0820   23.8010 C.ar   94  TRP94       0.0810
    151  CE3       36.3050   -5.5090   24.1450 C.ar   94  TRP94       0.0012
    152  CZ2       33.5280   -4.9820   24.4840 C.ar   94  TRP94       0.0191
    153  CZ3       35.4690   -6.3980   24.8160 C.ar   94  TRP94       0.0001
    154  CH2       34.0980   -6.1360   24.9690 C.ar   94  TRP94       0.0015
    155  N         39.3560   -7.7240   24.8750 N.3    96  LEU96      -0.1245
    156  CA        39.5840   -7.6970   26.3180 C.3    96  LEU96       0.1561
    157  C         40.1320   -9.0890   26.7070 C.2    96  LEU96       0.2260
    158  O         39.3940  -10.0810   26.6470 O.2    96  LEU96      -0.2867
    159  CB        38.2430   -7.3860   27.0060 C.3    96  LEU96       0.0270
    160  CG        38.0590   -7.7140   28.5210 C.3    96  LEU96       0.0019
    161  CD1       39.2130   -7.2120   29.3320 C.3    96  LEU96       0.0001
    162  CD2       36.8010   -7.0270   29.0450 C.3    96  LEU96       0.0001
    163  N         41.8440  -11.6550   29.4940 N.3    98  SER98      -0.1217
    164  CA        42.0390  -11.9090   30.9220 C.3    98  SER98       0.1889
    165  C         43.2080  -12.8600   31.0930 C.2    98  SER98       0.2288
    166  O         43.4620  -13.7070   30.2150 O.2    98  SER98      -0.2866
    167  CB        40.7930  -12.5460   31.5260 C.3    98  SER98       0.2089
    168  OG        39.6820  -11.6670   31.4210 O.3    98  SER98      -0.2183
    169  N         37.4750  -11.4720   25.0030 N.3   110  LEU110     -0.1245
    170  CA        36.1890  -10.9380   24.5660 C.3   110  LEU110      0.1561
    171  C         36.4640   -9.9350   23.4350 C.2   110  LEU110      0.2260
    172  O         37.5280   -9.2890   23.3860 O.2   110  LEU110     -0.2867
    173  CB        35.4900  -10.2050   25.7230 C.3   110  LEU110      0.0270
    174  CG        34.9520  -11.1110   26.8220 C.3   110  LEU110      0.0019
    175  CD1       34.7400  -10.3180   28.0970 C.3   110  LEU110      0.0001
    176  CD2       33.6470  -11.8530   26.3780 C.3   110  LEU110      0.0001
    177  N         32.8130   -0.1020   20.3580 N.3   114  ASP114     -0.1239
    178  CA        32.3820    1.0640   21.1220 C.3   114  ASP114      0.1674
    179  C         32.5460    2.3210   20.2850 C.2   114  ASP114      0.2266
    180  O         33.5350    2.4320   19.5730 O.2   114  ASP114     -0.2867
    181  CB        33.2740    1.2470   22.3840 C.3   114  ASP114      0.1410
    182  CG        32.9780    0.4070   23.6170 C.2   114  ASP114      0.3668
    183  OD1       31.7850    0.0870   23.8470 O.co2 114  ASP114     -0.2456
    184  OD2       33.9280    0.1860   24.4340 O.co2 114  ASP114     -0.2456
@<TRIPOS>BOND
     1   180   179    2
     2   141   142    1
     3   179   178    1
     4   129   130    2
     5   129   128    1
     6   177   178    1
     7   144   143    2
     8   178   181    1
     9   142   143    1
    10   142   145    1
    11   128   131    1
    12   128   127    1
    13   131   132    1
    14   181   182    1
    15   145   146    1
    16   147   146   ar
    17   147   149   ar
    18   146   148   ar
    19   133   132   ar
    20   133   135   ar
    21   149   150   ar
    22   132   134   ar
    23   172   171    2
    24   171   170    1
    25   182   183   ar
    26   182   184   ar
    27   148   150   ar
    28   148   151   ar
    29   150   152   ar
    30   151   153   ar
    31   135   136   ar
    32   152   154   ar
    33   170   169    1
    34   170   173    1
    35   134   136   ar
    36   134   137   ar
    37   153   154   ar
    38   155   156    1
    39   136   138   ar
    40   137   139   ar
    41   173   174    1
    42   126   124    1
    43   122   123    2
    44   122   121    1
    45     7     6    1
    46   156   157    1
    47   156   159    1
    48   176   174    1
    49   138   140   ar
    50   158   157    2
    51   139   140   ar
    52   174   175    1
    53     6     8    1
    54     6     5    1
    55   121   124    1
    56   121   120    1
    57   159   160    1
    58   124   125    1
    59     1     2    1
    60     5     2    1
    61     2     3    1
    62   160   162    1
    63   160   161    1
    64    23    21   ar
    65    23    25   ar
    66    26    25    1
    67    21    20   ar
    68    12    11    2
    69    25    24   ar
    70   163   164    1
    71     3     4    2
    72    11    10    1
    73    13    14    1
    74    13    10    1
    75   166   165    2
    76    20    19    1
    77    20    22   ar
    78    75    77   ar
    79    75    73   ar
    80     9    10    1
    81    24    22   ar
    82    72    73   ar
    83    72    70   ar
    84    19    16    1
    85   164   165    1
    86   164   167    1
    87    77    76   ar
    88    73    71   ar
    89   168   167    1
    90    16    15    1
    91    16    17    1
    92   116   115    1
    93   116   117    2
    94    70    69   ar
    95   118   115    1
    96   118   119    1
    97   115   114    1
    98    76    74   ar
    99    71    69   ar
   100    71    74   ar
   101    17    18    2
   102    69    68    1
   103    55    54    2
   104    30    29    2
   105    64    65    1
   106    28    29    1
   107    28    27    1
   108    28    31    1
   109    32    31    1
   110    54    53    1
   111    29    33   am
   112    68    65    1
   113    56    53    1
   114    56    57    1
   115    65    66    1
   116    53    52    1
   117    33    34    1
   118    57    59   ar
   119    57    58   ar
   120    59    61   ar
   121    34    35    1
   122    34    37    1
   123   112   111    2
   124    35    36    2
   125    66    67    2
   126    58    60   ar
   127    49    48    2
   128    61    62   ar
   129   113   110    1
   130   111   110    1
   131    60    62   ar
   132    62    63    1
   133   110   109    1
   134    48    47    1
   135    51    50    1
   136   109   103   am
   137    50    47    1
   138   107   106    2
   139    47    46    1
   140   106   108   am
   141   106   105    1
   142   103   102    1
   143   103   104    2
   144    38    39    1
   145    41    40    2
   146   102   105    1
   147   102   101    1
   148    42    39    1
   149    42    43    1
   150    93    92    2
   151    40    39    1
   152    99    98    1
   153   101    92   am
   154    92    91    1
   155    94    91    1
   156    94    95    1
   157    96    95    1
   158    96    97    1
   159    43    45   am
   160    43    44    2
   161    98    97    2
   162    98   100    1
   163    91    90    1
   164    90    80   am
   165    84    86   ar
   166    84    83   ar
   167    78    79    1
   168    80    79    1
   169    80    81    2
   170    86    88   ar
   171    82    79    1
   172    82    83    1
   173    83    85   ar
   174    88    89    1
   175    88    87   ar
   176    85    87   ar
