@<TRIPOS>MOLECULE
tmp/5n9cA00.pdb
 123 119 0 0 0
SMALL
GASTEIGER

@<TRIPOS>ATOM
      1  N          2.1880   27.5910   -9.0600 N.3    16  MET16      -0.1245
      2  CA         2.1750   26.3270   -8.3300 C.3    16  MET16       0.1570
      3  C          3.2130   26.3790   -7.2190 C.2    16  MET16       0.2261
      4  O          4.1360   27.2040   -7.2330 O.2    16  MET16      -0.2867
      5  CB         2.4990   25.1540   -9.2810 C.3    16  MET16       0.0387
      6  CG         1.8310   25.1300  -10.6300 C.3    16  MET16       0.0595
      7  SD         2.6790   23.9820  -11.7590 S.3    16  MET16      -0.1393
      8  CE         1.6540   24.3570  -13.1720 C.3    16  MET16       0.0692
      9  N          5.5340   23.4190   -4.8370 N.3    18  TYR18      -0.1241
     10  CA         5.9640   22.0300   -4.8280 C.3    18  TYR18       0.1605
     11  C          5.6510   21.3740   -3.4970 C.2    18  TYR18       0.2264
     12  O          6.0170   21.8680   -2.4420 O.2    18  TYR18      -0.2867
     13  CB         7.4440   21.9150   -5.1280 C.3    18  TYR18       0.0534
     14  CG         7.8450   20.5030   -5.4930 C.ar   18  TYR18      -0.0201
     15  CD1        7.4950   19.9430   -6.7020 C.ar   18  TYR18      -0.0009
     16  CD2        8.6430   19.7440   -4.6150 C.ar   18  TYR18      -0.0009
     17  CE1        7.8880   18.6830   -7.0310 C.ar   18  TYR18       0.0417
     18  CE2        9.0460   18.4950   -4.9440 C.ar   18  TYR18       0.0417
     19  CZ         8.6890   17.9650   -6.1510 C.ar   18  TYR18       0.1957
     20  OH         9.1330   16.6870   -6.4640 O.3    18  TYR18      -0.2866
     21  N          3.8840   18.9110   -7.9050 N.3    25  TRP25      -0.1241
     22  CA         3.4040   20.2940   -7.9310 C.3    25  TRP25       0.1605
     23  C          1.9160   20.3470   -7.6350 C.2    25  TRP25       0.2264
     24  O          1.1470   19.4820   -8.0550 O.2    25  TRP25      -0.2867
     25  CB         3.6840   20.9480   -9.2830 C.3    25  TRP25       0.0550
     26  CG         5.1080   21.1530   -9.6000 C.ar   25  TRP25       0.0003
     27  CD1        5.8910   20.3510  -10.3610 C.ar   25  TRP25       0.0946
     28  CD2        5.9500   22.2390   -9.1650 C.ar   25  TRP25       0.0152
     29  NE1        7.1510   20.8520  -10.4220 N.ar   25  TRP25      -0.2442
     30  CE2        7.2110   22.0270   -9.7170 C.ar   25  TRP25       0.0810
     31  CE3        5.7450   23.3630   -8.3720 C.ar   25  TRP25       0.0012
     32  CZ2        8.2880   22.8900   -9.4860 C.ar   25  TRP25       0.0191
     33  CZ3        6.7880   24.2270   -8.1440 C.ar   25  TRP25       0.0001
     34  CH2        8.0530   23.9880   -8.7010 C.ar   25  TRP25       0.0015
     35  N         18.2640   32.7250   -6.3700 N.3    71  LYS71      -0.1245
     36  CA        18.5970   31.9730   -7.5800 C.3    71  LYS71       0.1561
     37  C         17.3090   31.6380   -8.3410 C.2    71  LYS71       0.2260
     38  O         16.5110   30.8030   -7.8930 O.2    71  LYS71      -0.2867
     39  CB        19.3860   30.7210   -7.1990 C.3    71  LYS71       0.0271
     40  CG        19.9450   30.0110   -8.4030 C.3    71  LYS71       0.0035
     41  CD        20.6920   28.6990   -7.9910 C.3    71  LYS71       0.0206
     42  CE        21.9040   28.8710   -7.1170 C.3    71  LYS71       0.1093
     43  NZ        22.7000   27.5980   -7.0570 N.3    71  LYS71      -0.1314
     44  N         15.5190   30.0320  -11.4800 N.3    73  ASN73      -0.1240
     45  CA        15.8370   28.9740  -12.4150 C.3    73  ASN73       0.1653
     46  C         14.8590   28.9660  -13.5790 C.2    73  ASN73       0.2266
     47  O         13.6540   28.7690  -13.3910 O.2    73  ASN73      -0.2867
     48  CB        15.8210   27.6220  -11.7110 C.3    73  ASN73       0.1155
     49  CG        16.3550   26.5210  -12.6080 C.2    73  ASN73       0.2627
     50  OD1       17.4650   26.6480  -13.1240 O.2    73  ASN73      -0.2716
     51  ND2       15.5600   25.5040  -12.8720 N.am   73  ASN73      -0.0877
     52  N         13.8390   26.7590  -15.9840 N.3    75  ALA75      -0.1231
     53  CA        13.9440   25.3390  -16.3100 C.3    75  ALA75       0.1694
     54  C         13.6490   25.0920  -17.7830 C.2    75  ALA75       0.2592
     55  O         14.3210   24.2910  -18.4470 O.2    75  ALA75      -0.2718
     56  CB        12.9630   24.5600  -15.4450 C.3    75  ALA75       0.0304
     57  N         12.6180   25.7490  -18.3000 N.am   76  THR76      -0.1953
     58  CA        12.3010   25.7350  -19.7150 C.3    76  THR76       0.1897
     59  C         11.8950   27.1390  -20.1320 C.2    76  THR76       0.2313
     60  O         11.8340   28.0640  -19.3190 O.2    76  THR76      -0.2863
     61  CB        11.1540   24.7770  -20.0420 C.3    76  THR76       0.1794
     62  OG1        9.9210   25.3590  -19.6120 O.3    76  THR76      -0.2208
     63  CG2       11.3350   23.4020  -19.3710 C.3    76  THR76       0.0378
     64  N          8.5270   27.4900  -18.1250 N.3    79  PHE79      -0.1241
     65  CA         8.3750   27.1530  -16.7160 C.3    79  PHE79       0.1605
     66  C          9.6170   27.6150  -15.9700 C.2    79  PHE79       0.2264
     67  O         10.7290   27.1400  -16.2350 O.2    79  PHE79      -0.2867
     68  CB         8.1710   25.6540  -16.5070 C.3    79  PHE79       0.0534
     69  CG         7.8510   25.2970  -15.0870 C.ar   79  PHE79      -0.0203
     70  CD1        6.5730   25.4720  -14.6020 C.ar   79  PHE79      -0.0042
     71  CD2        8.8250   24.7820  -14.2380 C.ar   79  PHE79      -0.0042
     72  CE1        6.2690   25.1310  -13.3030 C.ar   79  PHE79      -0.0003
     73  CE2        8.5050   24.4480  -12.9210 C.ar   79  PHE79      -0.0003
     74  CZ         7.2330   24.6240  -12.4660 C.ar   79  PHE79      -0.0000
     75  N         11.1470   28.8350  -11.9110 N.3    81  GLN81      -0.1231
     76  CA        10.9260   28.4240  -10.5280 C.3    81  GLN81       0.1698
     77  C         11.9740   29.0480   -9.6230 C.2    81  GLN81       0.2592
     78  O         13.0700   29.4360  -10.0760 O.2    81  GLN81      -0.2718
     79  CB        10.9510   26.8980  -10.3980 C.3    81  GLN81       0.0381
     80  CG        12.2270   26.3340  -10.9000 C.3    81  GLN81       0.0905
     81  CD        12.3020   24.8220  -11.1080 C.2    81  GLN81       0.2608
     82  OE1       13.1820   24.3450  -11.8500 O.2    81  GLN81      -0.2717
     83  NE2       11.4870   24.0730  -10.4000 N.am   81  GLN81      -0.0878
     84  N         11.6850   29.0860   -8.3310 N.am   82  TRP82      -0.1962
     85  CA        12.6300   29.5510   -7.3260 C.3    82  TRP82       0.1771
     86  C         12.1970   28.9890   -5.9830 C.2    82  TRP82       0.2619
     87  O         11.1090   28.4200   -5.8370 O.2    82  TRP82      -0.2715
     88  CB        12.7360   31.0790   -7.2600 C.3    82  TRP82       0.0590
     89  CG        11.5030   31.7910   -6.7670 C.ar   82  TRP82       0.0006
     90  CD1       11.2400   32.1770   -5.4980 C.ar   82  TRP82       0.0946
     91  CD2       10.3750   32.1950   -7.5600 C.ar   82  TRP82       0.0152
     92  NE1       10.0230   32.8010   -5.4370 N.ar   82  TRP82      -0.2442
     93  CE2        9.4680   32.8240   -6.6930 C.ar   82  TRP82       0.0810
     94  CE3       10.0580   32.0890   -8.9080 C.ar   82  TRP82       0.0012
     95  CZ2        8.2440   33.3230   -7.1280 C.ar   82  TRP82       0.0191
     96  CZ3        8.8410   32.5750   -9.3390 C.ar   82  TRP82       0.0001
     97  CH2        7.9540   33.1990   -8.4510 C.ar   82  TRP82       0.0015
     98  N         13.0800   29.1480   -5.0000 N.am   83  ARG83      -0.1977
     99  CA        12.9060   28.6380   -3.6440 C.3    83  ARG83       0.1597
    100  C         12.9280   29.7540   -2.6030 C.2    83  ARG83       0.2287
    101  O         13.4860   30.8430   -2.8080 O.2    83  ARG83      -0.2864
    102  CB        14.0460   27.7000   -3.2430 C.3    83  ARG83       0.0334
    103  CG        14.2830   26.5590   -4.1750 C.3    83  ARG83       0.0492
    104  CD        15.3350   25.6360   -3.5930 C.3    83  ARG83       0.2205
    105  NE        16.5350   25.4980   -4.4240 N.pl3  83  ARG83      -0.0865
    106  CZ        17.6950   26.1240   -4.2440 C.cat  83  ARG83       0.5346
    107  NH1       17.8930   26.9720   -3.2410 N.pl3  83  ARG83       0.1354
    108  NH2       18.6820   25.8720   -5.0760 N.pl3  83  ARG83       0.1354
    109  N          8.8570   26.0380   -2.4860 N.3    88  VAL88      -0.1245
    110  CA         9.3650   26.1280   -3.8560 C.3    88  VAL88       0.1561
    111  C          8.2010   26.5330   -4.7290 C.2    88  VAL88       0.2260
    112  O          7.1210   25.9130   -4.6750 O.2    88  VAL88      -0.2867
    113  CB         9.9230   24.7850   -4.3320 C.3    88  VAL88       0.0252
    114  CG1       10.4380   24.8920   -5.7360 C.3    88  VAL88       0.0019
    115  CG2       10.9910   24.2980   -3.4010 C.3    88  VAL88       0.0019
    116  N          4.1040   28.3830  -14.5610 N.3    92  ASN92      -0.1240
    117  CA         3.8790   27.7950  -15.8780 C.3    92  ASN92       0.1653
    118  C          3.2300   28.8710  -16.7380 C.2    92  ASN92       0.2266
    119  O          2.0270   29.1130  -16.6580 O.2    92  ASN92      -0.2867
    120  CB         3.0410   26.5220  -15.7410 C.3    92  ASN92       0.1155
    121  CG         3.2860   25.5310  -16.8620 C.2    92  ASN92       0.2627
    122  OD1        4.2670   25.6440  -17.5770 O.2    92  ASN92      -0.2716
    123  ND2        2.4830   24.4820  -16.9120 N.am   92  ASN92      -0.0877
@<TRIPOS>BOND
     1    59    58    1
     2    59    60    2
     3    61    58    1
     4    61    62    1
     5    61    63    1
     6    58    57    1
     7    55    54    2
     8    57    54   am
     9    64    65    1
    10    54    53    1
    11   122   121    2
    12   123   121   am
    13   121   120    1
    14   118   119    2
    15   118   117    1
    16    65    68    1
    17    65    66    1
    18    68    69    1
    19    53    52    1
    20    53    56    1
    21    67    66    2
    22   117   120    1
    23   117   116    1
    24    69    70   ar
    25    69    71   ar
    26    70    72   ar
    27    71    73   ar
    28    46    47    2
    29    46    45    1
    30    72    74   ar
    31     8     7    1
    32    50    49    2
    33    73    74   ar
    34    51    49   am
    35    49    48    1
    36    45    48    1
    37    45    44    1
    38    75    76    1
    39    82    81    2
    40     7     6    1
    41    81    80    1
    42    81    83   am
    43    80    79    1
    44     6     5    1
    45    76    79    1
    46    76    77    1
    47    29    27   ar
    48    29    30   ar
    49    27    26   ar
    50    78    77    2
    51    30    32   ar
    52    30    28   ar
    53    77    84   am
    54    26    25    1
    55    26    28   ar
    56    32    34   ar
    57    96    94   ar
    58    96    97   ar
    59    25    22    1
    60     5     2    1
    61    28    31   ar
    62     1     2    1
    63    94    91   ar
    64    34    33   ar
    65    97    95   ar
    66    40    41    1
    67    40    39    1
    68    31    33   ar
    69    37    38    2
    70    37    36    1
    71    84    85    1
    72     2     3    1
    73    24    23    2
    74    41    42    1
    75    22    21    1
    76    22    23    1
    77    36    39    1
    78    36    35    1
    79    91    89   ar
    80    91    93   ar
    81    85    88    1
    82    85    86    1
    83    88    89    1
    84     4     3    2
    85    95    93   ar
    86    42    43    1
    87    17    15   ar
    88    17    19   ar
    89    89    90   ar
    90    15    14   ar
    91    93    92   ar
    92    20    19    1
    93    19    18   ar
    94    86    87    2
    95    86    98   am
    96   114   113    1
    97    90    92   ar
    98    14    13    1
    99    14    16   ar
   100    13    10    1
   101   108   106    1
   102    98    99    1
   103    18    16   ar
   104     9    10    1
   105    10    11    1
   106   111   112    2
   107   111   110    1
   108   105   106    2
   109   105   104    1
   110   113   110    1
   111   113   115    1
   112   106   107    1
   113   103   104    1
   114   103   102    1
   115   110   109    1
   116    99   102    1
   117    99   100    1
   118    11    12    2
   119   101   100    2
