@<TRIPOS>MOLECULE
tmp/5n9cA01.pdb
 92 85 0 0 0
SMALL
GASTEIGER

@<TRIPOS>ATOM
      1  N         -0.9760   50.7840   -3.0260 N.3     2  SER2       -0.1217
      2  CA        -0.9670   51.5490   -4.2620 C.3     2  SER2        0.1889
      3  C         -0.0530   52.7570   -4.1770 C.2     2  SER2        0.2288
      4  O          0.4150   53.2370   -5.2120 O.2     2  SER2       -0.2866
      5  CB        -2.3870   51.9870   -4.6110 C.3     2  SER2        0.2089
      6  OG        -2.8280   52.9980   -3.7370 O.3     2  SER2       -0.2183
      7  N          4.0510   50.9950   -3.6180 N.3     5  GLU5       -0.1245
      8  CA         4.5710   49.9830   -4.5330 C.3     5  GLU5        0.1567
      9  C          4.1750   50.2700   -5.9720 C.2     5  GLU5        0.2260
     10  O          3.1140   50.8500   -6.2350 O.2     5  GLU5       -0.2867
     11  CB         4.0670   48.5900   -4.1670 C.3     5  GLU5        0.0388
     12  CG         4.5630   48.0970   -2.8100 C.3     5  GLU5        0.1160
     13  CD         3.9130   46.7810   -2.4340 C.2     5  GLU5        0.3649
     14  OE1        2.7490   46.8010   -1.9930 O.co2   5  GLU5       -0.2457
     15  OE2        4.5500   45.7390   -2.6400 O.co2   5  GLU5       -0.2457
     16  N          6.0830   43.5940   -7.7450 N.3    40  TYR40      -0.1241
     17  CA         5.8660   44.9230   -7.1890 C.3    40  TYR40       0.1605
     18  C          7.1500   45.3960   -6.5360 C.2    40  TYR40       0.2264
     19  O          7.7640   44.6710   -5.7540 O.2    40  TYR40      -0.2867
     20  CB         4.7340   44.9280   -6.1530 C.3    40  TYR40       0.0534
     21  CG         3.3430   44.8250   -6.7580 C.ar   40  TYR40      -0.0201
     22  CD1        2.7540   45.9350   -7.3520 C.ar   40  TYR40      -0.0009
     23  CD2        2.6410   43.6290   -6.7850 C.ar   40  TYR40      -0.0009
     24  CE1        1.4990   45.8690   -7.9150 C.ar   40  TYR40       0.0417
     25  CE2        1.3590   43.5540   -7.3320 C.ar   40  TYR40       0.0417
     26  CZ         0.8130   44.6560   -7.9210 C.ar   40  TYR40       0.1957
     27  OH        -0.4480   44.5940   -8.4700 O.3    40  TYR40      -0.2866
     28  N          8.6390   48.1130   -3.9850 N.3    42  HIS42      -0.1241
     29  CA         8.4530   49.1180   -2.9370 C.3    42  HIS42       0.1621
     30  C          9.5890   50.1080   -3.1470 C.2    42  HIS42       0.2264
     31  O         10.7540   49.7850   -2.9120 O.2    42  HIS42      -0.2867
     32  CB         8.4810   48.4560   -1.5610 C.3    42  HIS42       0.0745
     33  CG         8.1510   49.3780   -0.4310 C.ar   42  HIS42       0.0817
     34  ND1        8.9430   50.4480   -0.0790 N.ar   42  HIS42      -0.2268
     35  CD2        7.0880   49.4080    0.4020 C.ar   42  HIS42       0.1154
     36  CE1        8.3920   51.0860    0.9350 C.ar   42  HIS42       0.1986
     37  NE2        7.2580   50.4860    1.2380 N.ar   42  HIS42      -0.2212
     38  N          8.3590   42.0730   -4.2990 N.3    49  ARG49      -0.1245
     39  CA         7.6100   40.8570   -4.0310 C.3    49  ARG49       0.1563
     40  C          6.8390   40.4480   -5.2730 C.2    49  ARG49       0.2260
     41  O          6.5690   41.2590   -6.1510 O.2    49  ARG49      -0.2867
     42  CB         6.6350   41.0220   -2.8690 C.3    49  ARG49       0.0307
     43  CG         5.5940   42.1010   -3.0640 C.3    49  ARG49       0.0489
     44  CD         4.5290   42.0150   -1.9990 C.3    49  ARG49       0.2205
     45  NE         3.6680   43.1780   -1.9170 N.pl3  49  ARG49      -0.0865
     46  CZ         2.4910   43.1840   -1.3140 C.cat  49  ARG49       0.5346
     47  NH1        1.9720   42.0560   -0.8200 N.pl3  49  ARG49       0.1354
     48  NH2        1.8060   44.3150   -1.2200 N.pl3  49  ARG49       0.1354
     49  N          3.3210   39.0040   -6.5320 N.3    51  VAL51      -0.1245
     50  CA         1.9140   38.8790   -6.1540 C.3    51  VAL51       0.1561
     51  C          1.1300   38.4630   -7.3790 C.2    51  VAL51       0.2260
     52  O          1.2130   39.1170   -8.4180 O.2    51  VAL51      -0.2867
     53  CB         1.3570   40.1980   -5.6040 C.3    51  VAL51       0.0252
     54  CG1       -0.1250   40.0360   -5.2680 C.3    51  VAL51       0.0019
     55  CG2        2.1610   40.7220   -4.4080 C.3    51  VAL51       0.0019
     56  N         -2.8020   36.8660   -8.8060 N.3    53  ARG53      -0.1245
     57  CA        -4.2350   36.7420   -8.5440 C.3    53  ARG53       0.1563
     58  C         -4.8660   35.9570   -9.6750 C.2    53  ARG53       0.2260
     59  O         -4.6490   36.2530  -10.8500 O.2    53  ARG53      -0.2867
     60  CB        -4.9040   38.1070   -8.3900 C.3    53  ARG53       0.0307
     61  CG        -4.3270   38.8800   -7.2590 C.3    53  ARG53       0.0489
     62  CD        -5.0150   40.2280   -7.1190 C.3    53  ARG53       0.2205
     63  NE        -6.2310   40.0470   -6.3650 N.pl3  53  ARG53      -0.0865
     64  CZ        -6.9400   41.0350   -5.8320 C.cat  53  ARG53       0.5346
     65  NH1       -6.5390   42.3140   -5.9540 N.pl3  53  ARG53       0.1354
     66  NH2       -8.0420   40.7440   -5.1780 N.pl3  53  ARG53       0.1354
     67  N         -5.8100   35.7800   -4.3080 N.3    60  VAL60      -0.1245
     68  CA        -4.3480   35.9140   -4.2190 C.3    60  VAL60       0.1561
     69  C         -3.7730   34.5210   -4.0350 C.2    60  VAL60       0.2260
     70  O         -4.0500   33.8400   -3.0470 O.2    60  VAL60      -0.2867
     71  CB        -3.9280   36.8380   -3.0690 C.3    60  VAL60       0.0252
     72  CG1       -2.4280   36.8160   -2.8950 C.3    60  VAL60       0.0019
     73  CG2       -4.4490   38.2330   -3.2660 C.3    60  VAL60       0.0019
     74  N          2.2140   35.5460   -2.7990 N.3    63  ASN63      -0.1225
     75  CA         2.5620   36.8230   -2.1860 C.3    63  ASN63       0.1785
     76  C          3.8910   36.5660   -1.4830 C.2    63  ASN63       0.2597
     77  O          3.9160   36.2660   -0.2900 O.2    63  ASN63      -0.2718
     78  CB         1.4620   37.2490   -1.2070 C.3    63  ASN63       0.1169
     79  CG         1.7960   38.5400   -0.4910 C.2    63  ASN63       0.2627
     80  OD1        2.6460   39.2980   -0.9280 O.2    63  ASN63      -0.2716
     81  ND2        1.1400   38.7740    0.6510 N.am   63  ASN63      -0.0877
     82  N          4.9900   36.6230   -2.2060 N.am   64  CYS64      -0.1956
     83  CA         6.2640   36.2390   -1.6180 C.3    64  CYS64       0.1843
     84  C          7.3510   37.2470   -1.9220 C.2    64  CYS64       0.2625
     85  O          7.4800   37.7720   -3.0250 O.2    64  CYS64      -0.2714
     86  CB         6.6850   34.8740   -2.0560 C.3    64  CYS64       0.0997
     87  SG         7.0030   34.7390   -3.8120 S.3    64  CYS64      -0.0797
     88  N          8.1230   37.5090   -0.9050 N.am   65  ALA65      -0.1977
     89  CA         9.2520   38.4250   -1.0220 C.3    65  ALA65       0.1597
     90  C         10.3170   37.8470   -1.9610 C.2    65  ALA65       0.2287
     91  O         10.4810   36.6340   -2.0720 O.2    65  ALA65      -0.2864
     92  CB         9.8940   38.6390    0.3530 C.3    65  ALA65       0.0319
@<TRIPOS>BOND
     1    59    58    2
     2    58    57    1
     3    56    57    1
     4    57    60    1
     5    27    26    1
     6    52    51    2
     7    60    61    1
     8    26    24   ar
     9    26    25   ar
    10    24    22   ar
    11    16    17    1
    12    51    50    1
    13    22    21   ar
    14    25    23   ar
    15    61    62    1
    16    17    18    1
    17    17    20    1
    18    62    63    1
    19    23    21   ar
    20    21    20    1
    21    18    19    2
    22    49    50    1
    23    63    64    2
    24    10     9    2
    25    50    53    1
    26    41    40    2
    27     9     8    1
    28    65    64    1
    29    64    66    1
    30    53    54    1
    31    53    55    1
    32    40    39    1
    33     4     3    2
    34     5     2    1
    35     5     6    1
    36     8    11    1
    37     8     7    1
    38    67    68    1
    39    38    39    1
    40     2     3    1
    41     2     1    1
    42    68    69    1
    43    68    71    1
    44    11    12    1
    45    69    70    2
    46    39    42    1
    47    28    29    1
    48    87    86    1
    49    73    71    1
    50    30    29    1
    51    30    31    2
    52    71    72    1
    53    43    42    1
    54    43    44    1
    55    85    84    2
    56    29    32    1
    57    12    13    1
    58    74    75    1
    59    15    13   ar
    60    13    14   ar
    61    82    83    1
    62    82    76   am
    63    75    76    1
    64    75    78    1
    65    91    90    2
    66    86    83    1
    67    44    45    1
    68    90    89    1
    69    84    83    1
    70    84    88   am
    71    45    46    2
    72    32    33    1
    73    76    77    2
    74    46    48    1
    75    46    47    1
    76    78    79    1
    77    89    88    1
    78    89    92    1
    79    80    79    2
    80    79    81   am
    81    33    34   ar
    82    33    35   ar
    83    34    36   ar
    84    35    37   ar
    85    36    37   ar
