@<TRIPOS>MOLECULE
tmp/5n9kA00.pdb
 164 156 0 0 0
SMALL
GASTEIGER

@<TRIPOS>ATOM
      1  N        -26.8950   22.6230   43.5200 N.3    42  ARG42      -0.1245
      2  CA       -26.2090   23.0140   42.2990 C.3    42  ARG42       0.1563
      3  C        -25.2690   21.8940   41.8870 C.2    42  ARG42       0.2260
      4  O        -24.7320   21.1730   42.7330 O.2    42  ARG42      -0.2867
      5  CB       -25.4390   24.3310   42.4770 C.3    42  ARG42       0.0307
      6  CG       -24.1920   24.2360   43.3420 C.3    42  ARG42       0.0489
      7  CD       -23.7140   25.6200   43.7630 C.3    42  ARG42       0.2205
      8  NE       -22.3590   25.6010   44.3060 N.pl3  42  ARG42      -0.0865
      9  CZ       -21.2890   26.0530   43.6590 C.cat  42  ARG42       0.5346
     10  NH1      -21.4150   26.5720   42.4440 N.pl3  42  ARG42       0.1354
     11  NH2      -20.0930   25.9940   44.2280 N.pl3  42  ARG42       0.1354
     12  N        -21.8670   20.3830   40.7800 N.3    44  LEU44      -0.1245
     13  CA       -20.4680   20.7350   40.9750 C.3    44  LEU44       0.1561
     14  C        -19.5600   20.2380   39.8620 C.2    44  LEU44       0.2260
     15  O        -18.4870   20.8180   39.6530 O.2    44  LEU44      -0.2867
     16  CB       -19.9700   20.1810   42.3120 C.3    44  LEU44       0.0270
     17  CG       -20.7120   20.6890   43.5440 C.3    44  LEU44       0.0019
     18  CD1      -20.1720   19.9980   44.7770 C.3    44  LEU44       0.0001
     19  CD2      -20.5820   22.1980   43.6710 C.3    44  LEU44       0.0001
     20  N        -20.0730    9.8240   36.5690 N.3    50  SER50      -0.1217
     21  CA       -20.9380   10.3750   37.6040 C.3    50  SER50       0.1889
     22  C        -21.1650   11.8580   37.3540 C.2    50  SER50       0.2288
     23  O        -20.4350   12.5060   36.5960 O.2    50  SER50      -0.2866
     24  CB       -20.3400   10.1670   39.0060 C.3    50  SER50       0.2089
     25  OG       -19.2140   11.0060   39.2110 O.3    50  SER50      -0.2183
     26  N        -21.8970   15.1860   40.0930 N.3    52  VAL52      -0.1245
     27  CA       -21.7250   15.4960   41.5060 C.3    52  VAL52       0.1561
     28  C        -22.4170   16.8160   41.8080 C.2    52  VAL52       0.2260
     29  O        -22.2490   17.7970   41.0740 O.2    52  VAL52      -0.2867
     30  CB       -20.2350   15.5440   41.8840 C.3    52  VAL52       0.0252
     31  CG1      -20.0620   15.9330   43.3390 C.3    52  VAL52       0.0019
     32  CG2      -19.6090   14.1950   41.6140 C.3    52  VAL52       0.0019
     33  N        -22.9660   16.2440   49.8730 N.3    65  VAL65      -0.1245
     34  CA       -22.6040   16.1330   48.4640 C.3    65  VAL65       0.1561
     35  C        -23.1960   14.8400   47.9210 C.2    65  VAL65       0.2260
     36  O        -23.0710   13.7810   48.5450 O.2    65  VAL65      -0.2867
     37  CB       -21.0810   16.1780   48.2560 C.3    65  VAL65       0.0252
     38  CG1      -20.7400   15.8200   46.8240 C.3    65  VAL65       0.0019
     39  CG2      -20.5610   17.5660   48.5860 C.3    65  VAL65       0.0019
     40  N        -23.4320   12.2020   44.7130 N.3    67  LYS67      -0.1245
     41  CA       -22.7540   11.7140   43.5160 C.3    67  LYS67       0.1561
     42  C        -23.6860   10.7310   42.8180 C.2    67  LYS67       0.2260
     43  O        -23.8930    9.6110   43.2970 O.2    67  LYS67      -0.2867
     44  CB       -21.4170   11.0720   43.8880 C.3    67  LYS67       0.0271
     45  CG       -20.6070   10.5320   42.7240 C.3    67  LYS67       0.0035
     46  CD       -19.2850    9.9850   43.2660 C.3    67  LYS67       0.0206
     47  CE       -18.4120    9.3800   42.1910 C.3    67  LYS67       0.1093
     48  NZ       -17.1210    8.8880   42.7930 N.3    67  LYS67      -0.1314
     49  N        -17.3120    0.4280   44.1020 N.3    80  GLU80      -0.1245
     50  CA       -17.0860    1.6840   44.8110 C.3    80  GLU80       0.1567
     51  C        -17.8640    1.7260   46.1190 C.2    80  GLU80       0.2260
     52  O        -17.3530    2.2000   47.1390 O.2    80  GLU80      -0.2867
     53  CB       -17.4700    2.8730   43.9280 C.3    80  GLU80       0.0388
     54  CG       -17.2880    4.2370   44.6070 C.3    80  GLU80       0.1160
     55  CD       -17.4840    5.4200   43.6560 C.2    80  GLU80       0.3649
     56  OE1      -17.7980    5.2010   42.4660 O.co2  80  GLU80      -0.2457
     57  OE2      -17.3230    6.5750   44.1020 O.co2  80  GLU80      -0.2457
     58  N        -13.0900    9.9990   52.8220 N.3    94  ILE94      -0.1245
     59  CA       -14.4110   10.6100   52.7220 C.3    94  ILE94       0.1561
     60  C        -15.4540    9.6450   53.2730 C.2    94  ILE94       0.2260
     61  O        -15.3910    8.4310   53.0400 O.2    94  ILE94      -0.2867
     62  CB       -14.7190   11.0160   51.2690 C.3    94  ILE94       0.0252
     63  CG1      -15.9440   11.9320   51.2120 C.3    94  ILE94       0.0019
     64  CG2      -14.9010    9.7940   50.3740 C.3    94  ILE94       0.0019
     65  CD1      -15.6720   13.3200   51.7340 C.3    94  ILE94       0.0001
     66  N        -22.3680   12.0180   50.5560 N.3   112  PHE112     -0.1227
     67  CA       -21.1180   12.1700   51.2860 C.3   112  PHE112      0.1736
     68  C        -21.1760   13.3790   52.2110 C.2   112  PHE112      0.2595
     69  O        -21.9430   14.3210   51.9960 O.2   112  PHE112     -0.2718
     70  CB       -19.9310   12.3440   50.3360 C.3   112  PHE112      0.0547
     71  CG       -19.6790   11.1730   49.4400 C.ar  112  PHE112     -0.0202
     72  CD1      -18.9440   10.0830   49.8880 C.ar  112  PHE112     -0.0042
     73  CD2      -20.1490   11.1750   48.1320 C.ar  112  PHE112     -0.0042
     74  CE1      -18.6900    9.0100   49.0510 C.ar  112  PHE112     -0.0003
     75  CE2      -19.9060   10.1020   47.2920 C.ar  112  PHE112     -0.0003
     76  CZ       -19.1750    9.0180   47.7450 C.ar  112  PHE112     -0.0000
     77  N        -20.3200   13.3510   53.2330 N.am  113  GLU113     -0.1965
     78  CA       -20.0760   14.5410   54.0360 C.3   113  GLU113      0.1733
     79  C        -19.5590   15.6700   53.1510 C.2   113  GLU113      0.2616
     80  O        -18.8420   15.4450   52.1720 O.2   113  GLU113     -0.2715
     81  CB       -19.0570   14.2370   55.1340 C.3   113  GLU113      0.0429
     82  CG       -17.6940   13.8400   54.5810 C.3   113  GLU113      0.1163
     83  CD       -16.6380   13.6400   55.6570 C.2   113  GLU113      0.3649
     84  OE1      -16.6490   14.3980   56.6480 O.co2 113  GLU113     -0.2457
     85  OE2      -15.8060   12.7200   55.5110 O.co2 113  GLU113     -0.2457
     86  N        -19.9280   16.8970   53.5020 N.am  114  HIS114     -0.1959
     87  CA       -19.5090   18.0670   52.7420 C.3   114  HIS114      0.1787
     88  C        -18.1530   18.5700   53.2260 C.2   114  HIS114      0.2620
     89  O        -17.8650   18.5500   54.4250 O.2   114  HIS114     -0.2715
     90  CB       -20.5520   19.1770   52.8640 C.3   114  HIS114      0.0785
     91  CG       -20.1850   20.4320   52.1380 C.ar  114  HIS114      0.0821
     92  ND1      -20.4780   20.6340   50.8060 N.ar  114  HIS114     -0.2267
     93  CD2      -19.5510   21.5510   52.5580 C.ar  114  HIS114      0.1154
     94  CE1      -20.0390   21.8240   50.4370 C.ar  114  HIS114      0.1986
     95  NE2      -19.4710   22.4010   51.4810 N.ar  114  HIS114     -0.2212
     96  N        -17.3230   19.0220   52.2840 N.am  115  VAL115     -0.1963
     97  CA       -16.0400   19.6530   52.5770 C.3   115  VAL115      0.1727
     98  C        -16.0020   21.0070   51.8780 C.2   115  VAL115      0.2616
     99  O        -16.2970   21.0990   50.6820 O.2   115  VAL115     -0.2715
    100  CB       -14.8520   18.7800   52.1230 C.3   115  VAL115      0.0290
    101  CG1      -13.5220   19.4310   52.5090 C.3   115  VAL115      0.0023
    102  CG2      -14.9520   17.3800   52.7110 C.3   115  VAL115      0.0023
    103  N        -15.6500   22.0570   52.6240 N.am  116  ASN116     -0.1958
    104  CA       -15.4930   23.3900   52.0480 C.3   116  ASN116      0.1819
    105  C        -14.2070   23.4810   51.2370 C.2   116  ASN116      0.2621
    106  O        -13.2420   24.1210   51.6660 O.2   116  ASN116     -0.2715
    107  CB       -15.4850   24.4660   53.1370 C.3   116  ASN116      0.1195
    108  CG       -16.8660   24.7690   53.6720 C.2   116  ASN116      0.2630
    109  OD1      -17.8740   24.4520   53.0400 O.2   116  ASN116     -0.2716
    110  ND2      -16.9200   25.4000   54.8390 N.am  116  ASN116     -0.0877
    111  N        -14.1890   22.8600   50.0640 N.am  117  ASN117     -0.1972
    112  CA       -12.9720   22.7700   49.2730 C.3   117  ASN117      0.1688
    113  C        -12.7000   24.0650   48.5170 C.2   117  ASN117      0.2292
    114  O        -13.6180   24.7640   48.0880 O.2   117  ASN117     -0.2864
    115  CB       -13.0730   21.6100   48.2790 C.3   117  ASN117      0.1181
    116  CG       -11.8180   21.4460   47.4410 C.2   117  ASN117      0.2629
    117  OD1      -10.7840   21.0090   47.9390 O.2   117  ASN117     -0.2716
    118  ND2      -11.9070   21.7860   46.1600 N.am  117  ASN117     -0.0877
    119  N         -8.7500   14.9690   43.4030 N.3   160  ASN160     -0.1240
    120  CA        -9.3870   13.9850   44.2680 C.3   160  ASN160      0.1653
    121  C         -8.9680   14.1270   45.7260 C.2   160  ASN160      0.2266
    122  O         -9.1440   13.1910   46.5150 O.2   160  ASN160     -0.2867
    123  CB        -9.1020   12.5690   43.7630 C.3   160  ASN160      0.1155
    124  CG        -9.8630   12.2540   42.4840 C.2   160  ASN160      0.2627
    125  OD1      -10.8420   12.9270   42.1550 O.2   160  ASN160     -0.2716
    126  ND2       -9.4240   11.2340   41.7650 N.am  160  ASN160     -0.0877
    127  N         -9.8790   16.7450   48.6070 N.3   162  MET162     -0.1245
    128  CA       -10.6620   17.8910   49.0510 C.3   162  MET162      0.1570
    129  C        -10.0390   18.4750   50.3130 C.2   162  MET162      0.2261
    130  O         -9.7890   17.7480   51.2810 O.2   162  MET162     -0.2867
    131  CB       -12.1110   17.4840   49.3220 C.3   162  MET162      0.0387
    132  CG       -12.8840   16.9940   48.0910 C.3   162  MET162      0.0595
    133  SD       -13.2480   18.2910   46.8800 S.3   162  MET162     -0.1393
    134  CE       -11.8970   18.0860   45.7270 C.3   162  MET162      0.0692
    135  N        -11.0530   11.5500   48.0310 N.3   173  ILE173     -0.1231
    136  CA       -12.3630   11.2870   47.4270 C.3   173  ILE173      0.1692
    137  C        -12.2150   10.5180   46.1160 C.2   173  ILE173      0.2592
    138  O        -11.1120   10.0850   45.7580 O.2   173  ILE173     -0.2718
    139  CB       -13.1330   12.5970   47.1770 C.3   173  ILE173      0.0266
    140  CG1      -12.3250   13.5060   46.2460 C.3   173  ILE173      0.0019
    141  CG2      -13.4500   13.3090   48.4860 C.3   173  ILE173      0.0020
    142  CD1      -13.1830   14.5110   45.4890 C.3   173  ILE173      0.0001
    143  N        -13.3330   10.3990   45.3790 N.am  174  ASP174     -0.1960
    144  CA       -13.5000    9.6420   44.1330 C.3   174  ASP174      0.1840
    145  C        -12.8290    8.2760   44.1780 C.2   174  ASP174      0.2622
    146  O        -11.7580    8.0650   43.5960 O.2   174  ASP174     -0.2715
    147  CB       -13.0000   10.4300   42.9180 C.3   174  ASP174      0.1450
    148  CG       -13.6020    9.9180   41.6070 C.2   174  ASP174      0.3671
    149  OD1      -14.2120    8.8200   41.6070 O.co2 174  ASP174     -0.2456
    150  OD2      -13.4820   10.6170   40.5800 O.co2 174  ASP174     -0.2456
    151  N        -13.4800    7.3400   44.8600 N.am  175  TRP175     -0.1974
    152  CA       -13.0470    5.9580   44.9300 C.3   175  TRP175      0.1640
    153  C        -13.6060    5.1210   43.7820 C.2   175  TRP175      0.2290
    154  O        -13.6550    3.8910   43.8870 O.2   175  TRP175     -0.2864
    155  CB       -13.4390    5.3790   46.2940 C.3   175  TRP175      0.0576
    156  CG       -12.7280    6.1230   47.3870 C.ar  175  TRP175      0.0006
    157  CD1      -13.0810    7.3260   47.9330 C.ar  175  TRP175      0.0946
    158  CD2      -11.5020    5.7370   48.0170 C.ar  175  TRP175      0.0152
    159  NE1      -12.1480    7.7030   48.8860 N.ar  175  TRP175     -0.2442
    160  CE2      -11.1760    6.7380   48.9580 C.ar  175  TRP175      0.0810
    161  CE3      -10.6650    4.6250   47.8970 C.ar  175  TRP175      0.0012
    162  CZ2      -10.0360    6.6710   49.7530 C.ar  175  TRP175      0.0191
    163  CZ3       -9.5260    4.5560   48.6970 C.ar  175  TRP175      0.0001
    164  CH2       -9.2280    5.5720   49.6150 C.ar  175  TRP175      0.0015
@<TRIPOS>BOND
     1    20    21    1
     2    23    22    2
     3    22    21    1
     4    21    24    1
     5    24    25    1
     6    15    14    2
     7    14    13    1
     8    26    27    1
     9   150   148   ar
    10    12    13    1
    11    13    16    1
    12    29    28    2
    13    27    28    1
    14    27    30    1
    15   148   149   ar
    16   148   147    1
    17    32    30    1
    18   126   124   am
    19    30    31    1
    20     3     2    1
    21     3     4    2
    22   125   124    2
    23    47    48    1
    24    47    46    1
    25     2     5    1
    26     2     1    1
    27    16    17    1
    28    10     9    1
    29    56    55   ar
    30     5     6    1
    31   124   123    1
    32    45    46    1
    33    45    44    1
    34    42    43    2
    35    42    41    1
    36   147   144    1
    37     6     7    1
    38   119   120    1
    39    41    44    1
    40    41    40    1
    41    17    19    1
    42    17    18    1
    43   146   145    2
    44    55    57   ar
    45    55    54    1
    46     9    11    1
    47     9     8    2
    48     7     8    1
    49   123   120    1
    50   153   154    2
    51   153   152    1
    52    53    54    1
    53    53    50    1
    54    49    50    1
    55   144   145    1
    56   144   143    1
    57   145   151   am
    58   120   121    1
    59    50    51    1
    60   151   152    1
    61   152   155    1
    62   143   137   am
    63   142   140    1
    64   121   122    2
    65   134   133    1
    66   138   137    2
    67   137   136    1
    68    51    52    2
    69   118   116   am
    70   140   139    1
    71   155   156    1
    72    38    37    1
    73   133   132    1
    74   139   136    1
    75   139   141    1
    76    75    76   ar
    77    75    73   ar
    78   156   157   ar
    79   156   158   ar
    80   136   135    1
    81   116   117    2
    82   116   115    1
    83    76    74   ar
    84   161   158   ar
    85   161   163   ar
    86    35    34    1
    87    35    36    2
    88   157   159   ar
    89   158   160   ar
    90   114   113    2
    91   132   131    1
    92    73    71   ar
    93    37    34    1
    94    37    39    1
    95   115   112    1
    96    34    33    1
    97   113   112    1
    98   127   128    1
    99   163   164   ar
   100   159   160   ar
   101   160   162   ar
   102   128   131    1
   103   128   129    1
   104    74    72   ar
   105   112   111    1
   106    71    72   ar
   107    71    70    1
   108   164   162   ar
   109   111   105   am
   110   129   130    2
   111    70    67    1
   112    64    62    1
   113    94    92   ar
   114    94    95   ar
   115    66    67    1
   116    99    98    2
   117    92    91   ar
   118    63    62    1
   119    63    65    1
   120   105   106    2
   121   105   104    1
   122    62    59    1
   123    67    68    1
   124    95    93   ar
   125    98    97    1
   126    98   103   am
   127    69    68    2
   128   104   103    1
   129   104   107    1
   130   100   101    1
   131   100    97    1
   132   100   102    1
   133    91    93   ar
   134    91    90    1
   135    80    79    2
   136    68    77   am
   137    96    97    1
   138    96    88   am
   139    59    58    1
   140    59    60    1
   141    87    90    1
   142    87    88    1
   143    87    86    1
   144   109   108    2
   145    61    60    2
   146   107   108    1
   147    79    86   am
   148    79    78    1
   149    88    89    2
   150    77    78    1
   151   108   110   am
   152    78    81    1
   153    82    81    1
   154    82    83    1
   155    85    83   ar
   156    83    84   ar
