@<TRIPOS>MOLECULE
tmp/5n9lA00.pdb
 185 179 0 0 0
SMALL
GASTEIGER

@<TRIPOS>ATOM
      1  N        -21.6260   20.4700   40.8450 N.3    44  LEU44      -0.1231
      2  CA       -20.2280   20.7900   41.1070 C.3    44  LEU44       0.1693
      3  C        -19.2910   20.3370   39.9990 C.2    44  LEU44       0.2593
      4  O        -18.2610   20.9800   39.7790 O.2    44  LEU44      -0.2718
      5  CB       -19.7790   20.1650   42.4330 C.3    44  LEU44       0.0284
      6  CG       -20.5140   20.6880   43.6660 C.3    44  LEU44       0.0019
      7  CD1      -20.0610   19.9530   44.9160 C.3    44  LEU44       0.0001
      8  CD2      -20.3110   22.1890   43.8190 C.3    44  LEU44       0.0001
      9  N        -19.6150   19.2570   39.3010 N.am   45  GLY45      -0.1942
     10  CA       -18.7670   18.7900   38.2200 C.3    45  GLY45       0.2014
     11  C        -19.3690   17.5690   37.5620 C.2    45  GLY45       0.2639
     12  O        -20.2870   16.9340   38.0900 O.2    45  GLY45      -0.2714
     13  N        -18.8290   17.2510   36.3870 N.am   46  ARG46      -0.1963
     14  CA       -19.2270   16.0840   35.6150 C.3    46  ARG46       0.1729
     15  C        -17.9820   15.3590   35.1320 C.2    46  ARG46       0.2617
     16  O        -17.0140   15.9920   34.7000 O.2    46  ARG46      -0.2715
     17  CB       -20.0960   16.4700   34.4100 C.3    46  ARG46       0.0348
     18  CG       -20.1400   15.4040   33.3240 C.3    46  ARG46       0.0492
     19  CD       -20.8210   15.9020   32.0640 C.3    46  ARG46       0.2205
     20  NE       -22.2420   16.1530   32.2780 N.pl3  46  ARG46      -0.0865
     21  CZ       -23.0720   16.5940   31.3390 C.cat  46  ARG46       0.5346
     22  NH1      -22.6230   16.8360   30.1150 N.pl3  46  ARG46       0.1354
     23  NH2      -24.3510   16.7970   31.6260 N.pl3  46  ARG46       0.1354
     24  N        -18.0110   14.0320   35.2070 N.am   47  GLY47      -0.1940
     25  CA       -16.9140   13.2330   34.7030 C.3    47  GLY47       0.2014
     26  C        -17.3620   12.1040   33.8040 C.2    47  GLY47       0.2639
     27  O        -18.5390   12.0080   33.4460 O.2    47  GLY47      -0.2714
     28  N        -16.4140   11.2400   33.4360 N.am   48  LYS48      -0.1963
     29  CA       -16.7260   10.1040   32.5760 C.3    48  LYS48       0.1728
     30  C        -17.7580    9.1820   33.2120 C.2    48  LYS48       0.2616
     31  O        -18.5570    8.5620   32.5010 O.2    48  LYS48      -0.2715
     32  CB       -15.4370    9.3390   32.2590 C.3    48  LYS48       0.0311
     33  CG       -15.6260    7.9640   31.6350 C.3    48  LYS48       0.0038
     34  CD       -15.6890    8.0170   30.1190 C.3    48  LYS48       0.0206
     35  CE       -15.6620    6.6130   29.5300 C.3    48  LYS48       0.1093
     36  NZ       -15.7440    6.6200   28.0430 N.3    48  LYS48      -0.1314
     37  N        -17.7810    9.1010   34.5430 N.am   49  TYR49      -0.1960
     38  CA       -18.5580    8.0830   35.2320 C.3    49  TYR49       0.1771
     39  C        -19.5890    8.6210   36.2170 C.2    49  TYR49       0.2620
     40  O        -20.3160    7.8160   36.8130 O.2    49  TYR49      -0.2715
     41  CB       -17.6160    7.1190   35.9670 C.3    49  TYR49       0.0574
     42  CG       -16.7110    6.3480   35.0340 C.ar   49  TYR49      -0.0198
     43  CD1      -17.2250    5.3620   34.2030 C.ar   49  TYR49      -0.0009
     44  CD2      -15.3460    6.6090   34.9770 C.ar   49  TYR49      -0.0009
     45  CE1      -16.4100    4.6540   33.3430 C.ar   49  TYR49       0.0417
     46  CE2      -14.5190    5.9030   34.1190 C.ar   49  TYR49       0.0417
     47  CZ       -15.0590    4.9270   33.3040 C.ar   49  TYR49       0.1957
     48  OH       -14.2530    4.2150   32.4450 O.3    49  TYR49      -0.2866
     49  N        -19.6940    9.9350   36.4010 N.am   50  SER50      -0.1950
     50  CA       -20.6350   10.4580   37.3850 C.3    50  SER50       0.1924
     51  C        -20.8190   11.9550   37.1800 C.2    50  SER50       0.2314
     52  O        -20.0380   12.6170   36.4900 O.2    50  SER50      -0.2863
     53  CB       -20.1610   10.1810   38.8120 C.3    50  SER50       0.2116
     54  OG       -18.9850   10.9210   39.1000 O.3    50  SER50      -0.2180
     55  N        -21.6100   15.2340   39.9610 N.3    52  VAL52      -0.1245
     56  CA       -21.5170   15.5130   41.3870 C.3    52  VAL52       0.1561
     57  C        -22.2180   16.8290   41.6860 C.2    52  VAL52       0.2260
     58  O        -22.0550   17.8150   40.9590 O.2    52  VAL52      -0.2867
     59  CB       -20.0470   15.5350   41.8480 C.3    52  VAL52       0.0252
     60  CG1      -19.9350   16.0370   43.2690 C.3    52  VAL52       0.0019
     61  CG2      -19.4680   14.1410   41.7380 C.3    52  VAL52       0.0019
     62  N        -22.8260   16.1280   49.7040 N.3    65  VAL65      -0.1245
     63  CA       -22.4400   16.0240   48.3040 C.3    65  VAL65       0.1561
     64  C        -23.0410   14.7420   47.7480 C.2    65  VAL65       0.2260
     65  O        -22.8790   13.6690   48.3410 O.2    65  VAL65      -0.2867
     66  CB       -20.9100   16.0410   48.1370 C.3    65  VAL65       0.0252
     67  CG1      -20.5300   15.6870   46.7150 C.3    65  VAL65       0.0019
     68  CG2      -20.3600   17.4070   48.5140 C.3    65  VAL65       0.0019
     69  N        -23.2730   12.1640   44.5250 N.3    67  LYS67      -0.1245
     70  CA       -22.5870   11.6920   43.3290 C.3    67  LYS67       0.1561
     71  C        -23.5170   10.7280   42.6020 C.2    67  LYS67       0.2260
     72  O        -23.7370    9.6040   43.0640 O.2    67  LYS67      -0.2867
     73  CB       -21.2640   11.0260   43.7020 C.3    67  LYS67       0.0271
     74  CG       -20.4550   10.4920   42.5360 C.3    67  LYS67       0.0035
     75  CD       -19.1430    9.9190   43.0520 C.3    67  LYS67       0.0206
     76  CE       -18.3350    9.2480   41.9610 C.3    67  LYS67       0.1093
     77  NZ       -17.0600    8.7030   42.5150 N.3    67  LYS67      -0.1314
     78  N        -17.1640    0.2780   43.9300 N.3    80  GLU80      -0.1245
     79  CA       -16.9460    1.5450   44.6230 C.3    80  GLU80       0.1567
     80  C        -17.7290    1.6000   45.9300 C.2    80  GLU80       0.2260
     81  O        -17.2320    2.1190   46.9360 O.2    80  GLU80      -0.2867
     82  CB       -17.3210    2.7180   43.7150 C.3    80  GLU80       0.0388
     83  CG       -17.2020    4.0820   44.3890 C.3    80  GLU80       0.1160
     84  CD       -17.4270    5.2440   43.4350 C.2    80  GLU80       0.3649
     85  OE1      -17.8070    5.0020   42.2700 O.co2  80  GLU80      -0.2457
     86  OE2      -17.2210    6.4040   43.8540 O.co2  80  GLU80      -0.2457
     87  N        -12.9920    9.8860   52.6420 N.3    94  ILE94      -0.1245
     88  CA       -14.3050   10.5120   52.5300 C.3    94  ILE94       0.1561
     89  C        -15.3720    9.5500   53.0420 C.2    94  ILE94       0.2260
     90  O        -15.3400    8.3410   52.7710 O.2    94  ILE94      -0.2867
     91  CB       -14.5760   10.9530   51.0800 C.3    94  ILE94       0.0252
     92  CG1      -15.7870   11.8850   51.0160 C.3    94  ILE94       0.0019
     93  CG2      -14.7600    9.7560   50.1520 C.3    94  ILE94       0.0019
     94  CD1      -15.4910   13.2970   51.4710 C.3    94  ILE94       0.0001
     95  N        -22.2560   11.8880   50.2890 N.3   112  PHE112     -0.1227
     96  CA       -21.0140   12.0050   51.0360 C.3   112  PHE112      0.1736
     97  C        -21.0750   13.1940   51.9830 C.2   112  PHE112      0.2595
     98  O        -21.8550   14.1320   51.7930 O.2   112  PHE112     -0.2718
     99  CB       -19.8030   12.1900   50.1110 C.3   112  PHE112      0.0547
    100  CG       -19.5400   11.0330   49.1950 C.ar  112  PHE112     -0.0202
    101  CD1      -18.7750    9.9550   49.6170 C.ar  112  PHE112     -0.0042
    102  CD2      -20.0270   11.0390   47.8990 C.ar  112  PHE112     -0.0042
    103  CE1      -18.5170    8.8980   48.7670 C.ar  112  PHE112     -0.0003
    104  CE2      -19.7720    9.9890   47.0430 C.ar  112  PHE112     -0.0003
    105  CZ       -19.0180    8.9150   47.4760 C.ar  112  PHE112     -0.0000
    106  N        -20.2230   13.1430   53.0060 N.am  113  GLU113     -0.1965
    107  CA       -19.9650   14.3190   53.8220 C.3   113  GLU113      0.1733
    108  C        -19.4770   15.4620   52.9380 C.2   113  GLU113      0.2616
    109  O        -18.8310   15.2500   51.9060 O.2   113  GLU113     -0.2715
    110  CB       -18.9180   14.0090   54.8940 C.3   113  GLU113      0.0429
    111  CG       -17.5590   13.6580   54.3120 C.3   113  GLU113      0.1163
    112  CD       -16.4680   13.5160   55.3560 C.2   113  GLU113      0.3649
    113  OE1      -16.4310   14.3270   56.3050 O.co2 113  GLU113     -0.2457
    114  OE2      -15.6450   12.5880   55.2220 O.co2 113  GLU113     -0.2457
    115  N        -19.7910   16.6840   53.3490 N.am  114  HIS114     -0.1959
    116  CA       -19.4210   17.8640   52.5840 C.3   114  HIS114      0.1787
    117  C        -18.0680   18.3960   53.0390 C.2   114  HIS114      0.2620
    118  O        -17.8000   18.5020   54.2390 O.2   114  HIS114     -0.2715
    119  CB       -20.4850   18.9530   52.7270 C.3   114  HIS114      0.0785
    120  CG       -20.1670   20.2070   51.9770 C.ar  114  HIS114      0.0821
    121  ND1      -19.4810   21.2580   52.5440 N.ar  114  HIS114     -0.2267
    122  CD2      -20.4400   20.5790   50.7040 C.ar  114  HIS114      0.1154
    123  CE1      -19.3440   22.2240   51.6530 C.ar  114  HIS114      0.1986
    124  NE2      -19.9180   21.8370   50.5290 N.ar  114  HIS114     -0.2212
    125  N        -17.2180   18.7300   52.0700 N.am  115  VAL115     -0.1977
    126  CA       -15.9350   19.3760   52.3190 C.3   115  VAL115      0.1596
    127  C        -15.9470   20.7310   51.6250 C.2   115  VAL115      0.2287
    128  O        -16.2440   20.8170   50.4270 O.2   115  VAL115     -0.2864
    129  CB       -14.7520   18.5210   51.8250 C.3   115  VAL115      0.0276
    130  CG1      -13.4330   19.2510   52.0600 C.3   115  VAL115      0.0022
    131  CG2      -14.7440   17.1670   52.5180 C.3   115  VAL115      0.0022
    132  N        -14.1300   22.7320   49.9420 N.3   117  ASN117     -0.1240
    133  CA       -12.8550   22.5890   49.2540 C.3   117  ASN117      0.1653
    134  C        -12.3930   23.8960   48.6200 C.2   117  ASN117      0.2266
    135  O        -13.1930   24.6620   48.0730 O.2   117  ASN117     -0.2867
    136  CB       -12.9560   21.5060   48.1800 C.3   117  ASN117      0.1155
    137  CG       -11.7330   21.4550   47.2810 C.2   117  ASN117      0.2627
    138  OD1      -10.6620   21.0040   47.6920 O.2   117  ASN117     -0.2716
    139  ND2      -11.8900   21.9120   46.0430 N.am  117  ASN117     -0.0877
    140  N         -8.7220   14.8800   43.2340 N.3   160  ASN160     -0.1240
    141  CA        -9.3020   13.8810   44.1210 C.3   160  ASN160      0.1653
    142  C         -8.8140   14.0240   45.5560 C.2   160  ASN160      0.2266
    143  O         -9.0000   13.1100   46.3670 O.2   160  ASN160     -0.2867
    144  CB        -9.0250   12.4760   43.5900 C.3   160  ASN160      0.1155
    145  CG        -9.8630   12.1500   42.3660 C.2   160  ASN160      0.2627
    146  OD1      -10.8740   12.8030   42.1020 O.2   160  ASN160     -0.2716
    147  ND2       -9.4490   11.1350   41.6140 N.am  160  ASN160     -0.0877
    148  N         -9.6310   16.6200   48.3530 N.3   162  MET162     -0.1245
    149  CA       -10.4090   17.7740   48.7760 C.3   162  MET162      0.1570
    150  C         -9.7980   18.3680   50.0360 C.2   162  MET162      0.2261
    151  O         -9.5800   17.6570   51.0220 O.2   162  MET162     -0.2867
    152  CB       -11.8610   17.3740   49.0280 C.3   162  MET162      0.0387
    153  CG       -12.6190   16.9480   47.7810 C.3   162  MET162      0.0595
    154  SD       -13.0110   18.3230   46.6820 S.3   162  MET162     -0.1393
    155  CE       -11.7130   18.2170   45.4670 C.3   162  MET162      0.0692
    156  N        -10.9910   11.5040   47.8370 N.3   173  ILE173     -0.1231
    157  CA       -12.2990   11.2380   47.2440 C.3   173  ILE173      0.1692
    158  C        -12.1690   10.4310   45.9570 C.2   173  ILE173      0.2592
    159  O        -11.0740    9.9880   45.5910 O.2   173  ILE173     -0.2718
    160  CB       -13.0550   12.5520   46.9700 C.3   173  ILE173      0.0266
    161  CG1      -12.3140   13.3750   45.9160 C.3   173  ILE173      0.0019
    162  CG2      -13.2450   13.3470   48.2540 C.3   173  ILE173      0.0020
    163  CD1      -13.1380   14.4770   45.2940 C.3   173  ILE173      0.0001
    164  N        -13.2990   10.2720   45.2590 N.am  174  ASP174     -0.1960
    165  CA       -13.4730    9.5030   44.0280 C.3   174  ASP174      0.1840
    166  C        -12.7790    8.1500   44.0600 C.2   174  ASP174      0.2622
    167  O        -11.7010    7.9700   43.4800 O.2   174  ASP174     -0.2715
    168  CB       -13.0100   10.2940   42.8050 C.3   174  ASP174      0.1450
    169  CG       -13.6350    9.7730   41.5160 C.2   174  ASP174      0.3671
    170  OD1      -14.3180    8.7250   41.5650 O.co2 174  ASP174     -0.2456
    171  OD2      -13.4530   10.4080   40.4590 O.co2 174  ASP174     -0.2456
    172  N        -13.4180    7.1850   44.7150 N.am  175  TRP175     -0.1974
    173  CA       -12.9500    5.8120   44.7670 C.3   175  TRP175      0.1640
    174  C        -13.5260    4.9620   43.6400 C.2   175  TRP175      0.2290
    175  O        -13.5780    3.7320   43.7620 O.2   175  TRP175     -0.2864
    176  CB       -13.2780    5.2190   46.1400 C.3   175  TRP175      0.0576
    177  CG       -12.5720    5.9750   47.2220 C.ar  175  TRP175      0.0006
    178  CD1      -12.9410    7.1750   47.7670 C.ar  175  TRP175      0.0946
    179  CD2      -11.3440    5.6060   47.8580 C.ar  175  TRP175      0.0152
    180  NE1      -12.0210    7.5660   48.7150 N.ar  175  TRP175     -0.2442
    181  CE2      -11.0350    6.6180   48.7910 C.ar  175  TRP175      0.0810
    182  CE3      -10.4820    4.5120   47.7390 C.ar  175  TRP175      0.0012
    183  CZ2       -9.8960    6.5700   49.5950 C.ar  175  TRP175      0.0191
    184  CZ3       -9.3490    4.4670   48.5380 C.ar  175  TRP175      0.0001
    185  CH2       -9.0700    5.4870   49.4560 C.ar  175  TRP175      0.0015
@<TRIPOS>BOND
     1    36    35    1
     2    35    34    1
     3    22    21    1
     4    34    33    1
     5    21    23    1
     6    21    20    2
     7    33    32    1
     8    19    20    1
     9    19    18    1
    10    32    29    1
    11    48    47    1
    12    31    30    2
    13    29    30    1
    14    29    28    1
    15    30    37   am
    16    47    45   ar
    17    47    46   ar
    18    18    17    1
    19    45    43   ar
    20    28    26   am
    21    27    26    2
    22    26    25    1
    23    46    44   ar
    24    43    42   ar
    25    17    14    1
    26    37    38    1
    27    16    15    2
    28    25    24    1
    29    44    42   ar
    30    42    41    1
    31    15    24   am
    32    15    14    1
    33    38    41    1
    34    38    39    1
    35    14    13    1
    36    39    49   am
    37    39    40    2
    38    13    11   am
    39    49    50    1
    40    52    51    2
    41    51    50    1
    42    50    53    1
    43    11    12    2
    44    11    10    1
    45    10     9    1
    46    53    54    1
    47     9     3   am
    48     4     3    2
    49    55    56    1
    50     3     2    1
    51   171   169   ar
    52     1     2    1
    53    58    57    2
    54     2     5    1
    55    56    57    1
    56    56    59    1
    57   169   170   ar
    58   169   168    1
    59   147   145   am
    60    61    59    1
    61    59    60    1
    62    76    77    1
    63    76    75    1
    64   146   145    2
    65    85    84   ar
    66   145   144    1
    67     5     6    1
    68    74    75    1
    69    74    73    1
    70    71    72    2
    71    71    70    1
    72   168   165    1
    73   140   141    1
    74    70    73    1
    75    70    69    1
    76    84    86   ar
    77    84    83    1
    78   167   166    2
    79   144   141    1
    80   174   175    2
    81   174   173    1
    82     6     8    1
    83     6     7    1
    84    82    83    1
    85    82    79    1
    86    78    79    1
    87   165   166    1
    88   165   164    1
    89   166   172   am
    90   141   142    1
    91    79    80    1
    92   172   173    1
    93   173   176    1
    94   164   158   am
    95   163   161    1
    96   155   154    1
    97   142   143    2
    98   159   158    2
    99   161   160    1
   100    80    81    2
   101   158   157    1
   102   139   137   am
   103   176   177    1
   104   154   153    1
   105    67    66    1
   106   160   157    1
   107   160   162    1
   108   104   105   ar
   109   104   102   ar
   110   177   178   ar
   111   177   179   ar
   112   157   156    1
   113   137   138    2
   114   137   136    1
   115   105   103   ar
   116   182   179   ar
   117   182   184   ar
   118    64    63    1
   119    64    65    2
   120   178   180   ar
   121   153   152    1
   122   179   181   ar
   123   102   100   ar
   124   135   134    2
   125    66    63    1
   126    66    68    1
   127   136   133    1
   128    63    62    1
   129   148   149    1
   130   184   185   ar
   131   134   133    1
   132   180   181   ar
   133   103   101   ar
   134   149   152    1
   135   149   150    1
   136   181   183   ar
   137   100   101   ar
   138   100    99    1
   139   133   132    1
   140   185   183   ar
   141   150   151    2
   142    99    96    1
   143    93    91    1
   144    95    96    1
   145   128   127    2
   146   124   122   ar
   147   124   123   ar
   148   122   120   ar
   149    92    91    1
   150    92    94    1
   151    96    97    1
   152    91    88    1
   153   127   126    1
   154   123   121   ar
   155    98    97    2
   156   129   130    1
   157   129   126    1
   158   129   131    1
   159   109   108    2
   160   120   121   ar
   161   120   119    1
   162    97   106   am
   163   125   126    1
   164   125   117   am
   165    88    87    1
   166    88    89    1
   167   116   119    1
   168   116   117    1
   169   116   115    1
   170    90    89    2
   171   108   115   am
   172   108   107    1
   173   106   107    1
   174   117   118    2
   175   107   110    1
   176   111   110    1
   177   111   112    1
   178   114   112   ar
   179   112   113   ar
