@<TRIPOS>MOLECULE
tmp/5n9oA01.pdb
 114 109 0 0 0
SMALL
GASTEIGER

@<TRIPOS>ATOM
      1  N        -24.1380   -7.5740   11.3340 N.3    18  GLU18      -0.1245
      2  CA       -23.9180   -7.2820   12.7620 C.3    18  GLU18       0.1567
      3  C        -23.6140   -5.8280   12.9340 C.2    18  GLU18       0.2260
      4  O        -22.7300   -5.3380   12.2850 O.2    18  GLU18      -0.2867
      5  CB       -22.6770   -8.0410   13.2210 C.3    18  GLU18       0.0388
      6  CG       -22.8510   -9.5340   13.1860 C.3    18  GLU18       0.1160
      7  CD       -23.8770  -10.1100   14.1650 C.2    18  GLU18       0.3649
      8  OE1      -24.3530   -9.4260   15.0890 O.co2  18  GLU18      -0.2457
      9  OE2      -24.2650  -11.2870   13.9890 O.co2  18  GLU18      -0.2457
     10  N        -22.9470   -2.7730   15.8710 N.3    20  ASP20      -0.1239
     11  CA       -22.6930   -2.3200   17.1920 C.3    20  ASP20       0.1674
     12  C        -22.9310   -0.8350   17.2020 C.2    20  ASP20       0.2266
     13  O        -22.3400   -0.1070   16.3820 O.2    20  ASP20      -0.2867
     14  CB       -21.2620   -2.6820   17.4750 C.3    20  ASP20       0.1410
     15  CG       -21.1140   -4.0760   18.1800 C.2    20  ASP20       0.3668
     16  OD1      -22.1050   -4.7100   18.7890 O.co2  20  ASP20      -0.2456
     17  OD2      -19.9380   -4.5310   18.1900 O.co2  20  ASP20      -0.2456
     18  N        -20.6800    6.3200    6.1600 N.3    94  ARG94      -0.1245
     19  CA       -21.6970    7.3740    5.9410 C.3    94  ARG94       0.1563
     20  C        -21.6660    8.3500    7.0890 C.2    94  ARG94       0.2260
     21  O        -21.2520    8.0110    8.2400 O.2    94  ARG94      -0.2867
     22  CB       -23.1380    6.8160    5.9070 C.3    94  ARG94       0.0307
     23  CG       -23.3800    5.8300    4.7870 C.3    94  ARG94       0.0489
     24  CD       -24.8640    5.9800    4.4430 C.3    94  ARG94       0.2205
     25  NE       -25.3020    5.1280    3.3400 N.pl3  94  ARG94      -0.0865
     26  CZ       -25.8130    3.8890    3.4720 C.cat  94  ARG94       0.5346
     27  NH1      -25.9590    3.3300    4.6860 N.pl3  94  ARG94       0.1354
     28  NH2      -26.2410    3.2870    2.3510 N.pl3  94  ARG94       0.1354
     29  N        -22.9610    8.3700   12.3370 N.3   105  LYS105     -0.1231
     30  CA       -21.7340    8.1690   11.5130 C.3   105  LYS105      0.1693
     31  C        -21.4530    6.7050   11.6160 C.2   105  LYS105      0.2593
     32  O        -21.5140    6.1050   12.7000 O.2   105  LYS105     -0.2718
     33  CB       -20.5710    8.9600   12.1070 C.3   105  LYS105      0.0285
     34  CG       -20.7600   10.4120   11.7240 C.3   105  LYS105      0.0035
     35  CD       -19.6930   11.3480   12.3330 C.3   105  LYS105      0.0206
     36  CE       -20.1920   12.7710   12.0650 C.3   105  LYS105      0.1093
     37  NZ       -19.3310   13.7980   12.6940 N.3   105  LYS105     -0.1314
     38  N        -21.2190    6.1100   10.4460 N.am  106  THR106     -0.1939
     39  CA       -21.1530    4.6550   10.3990 C.3   106  THR106      0.2028
     40  C        -19.9640    4.2440    9.5700 C.2   106  THR106      0.2642
     41  O        -19.5440    4.9340    8.6330 O.2   106  THR106     -0.2714
     42  CB       -22.4720    4.0000    9.8080 C.3   106  THR106      0.1808
     43  OG1      -22.6050    4.3890    8.4320 O.3   106  THR106     -0.2208
     44  CG2      -23.6760    4.5230   10.5570 C.3   106  THR106      0.0379
     45  N        -19.3660    3.1030    9.9650 N.am  107  ARG107     -0.1963
     46  CA       -18.2820    2.5200    9.1370 C.3   107  ARG107      0.1729
     47  C        -18.5640    1.0230    9.1230 C.2   107  ARG107      0.2616
     48  O        -18.8110    0.4040   10.1710 O.2   107  ARG107     -0.2715
     49  CB       -16.8930    2.7270    9.7480 C.3   107  ARG107      0.0348
     50  CG       -15.7970    2.0770    8.8210 C.3   107  ARG107      0.0492
     51  CD       -14.3970    2.3400    9.4360 C.3   107  ARG107      0.2205
     52  NE       -13.3300    1.7410    8.6480 N.pl3 107  ARG107     -0.0865
     53  CZ       -13.0770    0.4400    8.5330 C.cat 107  ARG107      0.5346
     54  NH1      -13.7670   -0.5050    9.1970 N.pl3 107  ARG107      0.1354
     55  NH2      -12.0770    0.0540    7.7330 N.pl3 107  ARG107      0.1354
     56  N        -18.6550    0.4640    7.9250 N.am  108  ALA108     -0.1963
     57  CA       -19.0030   -0.9480    7.8260 C.3   108  ALA108      0.1728
     58  C        -18.0700   -1.6240    6.8400 C.2   108  ALA108      0.2616
     59  O        -17.5610   -0.9670    5.9510 O.2   108  ALA108     -0.2715
     60  CB       -20.4540   -1.1200    7.2600 C.3   108  ALA108      0.0334
     61  N        -17.8680   -2.9280    6.9920 N.am  109  GLU109     -0.1977
     62  CA       -17.1690   -3.7360    6.0060 C.3   109  GLU109      0.1602
     63  C        -18.1680   -4.7380    5.4710 C.2   109  GLU109      0.2287
     64  O        -18.8730   -5.3980    6.2680 O.2   109  GLU109     -0.2864
     65  CB       -16.0440   -4.5280    6.6700 C.3   109  GLU109      0.0415
     66  CG       -14.9420   -3.5290    6.9800 C.3   109  GLU109      0.1163
     67  CD       -13.6510   -4.1840    7.5000 C.2   109  GLU109      0.3649
     68  OE1      -13.4080   -5.3990    7.2570 O.co2 109  GLU109     -0.2457
     69  OE2      -12.8760   -3.4540    8.1520 O.co2 109  GLU109     -0.2457
     70  N        -20.6820   -5.9510    8.5690 N.3   120  ARG120     -0.1231
     71  CA       -20.3110   -5.6740    9.9560 C.3   120  ARG120      0.1694
     72  C        -20.1870   -4.1850   10.1280 C.2   120  ARG120      0.2592
     73  O        -19.3650   -3.5300    9.4200 O.2   120  ARG120     -0.2718
     74  CB       -18.9570   -6.3890   10.3100 C.3   120  ARG120      0.0321
     75  CG       -19.1330   -7.8980   10.2990 C.3   120  ARG120      0.0489
     76  CD       -17.7750   -8.5530   10.7250 C.3   120  ARG120      0.2205
     77  NE       -17.9200  -10.0250   10.6010 N.pl3 120  ARG120     -0.0865
     78  CZ       -18.5960  -10.7930   11.4450 C.cat 120  ARG120      0.5346
     79  NH1      -19.1240  -10.2880   12.5590 N.pl3 120  ARG120      0.1354
     80  NH2      -18.7200  -12.0870   11.1860 N.pl3 120  ARG120      0.1354
     81  N        -20.9760   -3.6050   11.0640 N.am  121  ILE121     -0.1966
     82  CA       -21.0600   -2.1270   11.1120 C.3   121  ILE121      0.1727
     83  C        -20.7740   -1.6240   12.5280 C.2   121  ILE121      0.2616
     84  O        -21.2230   -2.2020   13.4860 O.2   121  ILE121     -0.2715
     85  CB       -22.5060   -1.6730   10.8280 C.3   121  ILE121      0.0290
     86  CG1      -23.1160   -2.2890    9.5300 C.3   121  ILE121      0.0022
     87  CG2      -22.5800   -0.1160   10.8470 C.3   121  ILE121      0.0023
     88  CD1      -24.4820   -2.9020    9.7660 C.3   121  ILE121      0.0001
     89  N        -20.1100   -0.4900   12.6280 N.am  122  GLU122     -0.1963
     90  CA       -20.0990    0.2980   13.8920 C.3   122  GLU122      0.1733
     91  C        -20.8230    1.6560   13.5920 C.2   122  GLU122      0.2616
     92  O        -20.5770    2.2810   12.6020 O.2   122  GLU122     -0.2715
     93  CB       -18.6820    0.5660   14.4130 C.3   122  GLU122      0.0429
     94  CG       -17.9510   -0.7510   14.7040 C.3   122  GLU122      0.1163
     95  CD       -17.1320   -0.7140   15.9960 C.2   122  GLU122      0.3649
     96  OE1      -17.3730   -1.5970   16.8510 O.co2 122  GLU122     -0.2457
     97  OE2      -16.2640    0.1950   16.1750 O.co2 122  GLU122     -0.2457
     98  N        -21.6840    2.0330   14.4950 N.am  123  LEU123     -0.1963
     99  CA       -22.4920    3.2290   14.3650 C.3   123  LEU123      0.1728
    100  C        -22.3600    4.0550   15.6440 C.2   123  LEU123      0.2616
    101  O        -22.5300    3.5490   16.7540 O.2   123  LEU123     -0.2715
    102  CB       -24.0000    2.8670   14.1940 C.3   123  LEU123      0.0311
    103  CG       -24.9880    4.0500   14.0480 C.3   123  LEU123      0.0022
    104  CD1      -26.1600    3.5130   13.2240 C.3   123  LEU123      0.0001
    105  CD2      -25.4910    4.5160   15.3900 C.3   123  LEU123      0.0001
    106  N        -22.1260    5.3460   15.4220 N.am  124  LYS124     -0.1977
    107  CA       -22.1790    6.3060   16.5680 C.3   124  LYS124      0.1596
    108  C        -23.1520    7.4450   16.2240 C.2   124  LYS124      0.2287
    109  O        -23.0520    8.0310   15.1310 O.2   124  LYS124     -0.2864
    110  CB       -20.7960    6.8860   16.7590 C.3   124  LYS124      0.0298
    111  CG       -20.6750    8.0210   17.7920 C.3   124  LYS124      0.0038
    112  CD       -20.6850    7.5450   19.2110 C.3   124  LYS124      0.0206
    113  CE       -20.0380    8.6430   20.0660 C.3   124  LYS124      0.1093
    114  NZ       -20.3800    8.3630   21.4860 N.3   124  LYS124     -0.1314
@<TRIPOS>BOND
     1    28    26    1
     2    25    26    2
     3    25    24    1
     4    26    27    1
     5    24    23    1
     6    23    22    1
     7    63    62    1
     8    63    64    2
     9    22    19    1
    10    19    18    1
    11    19    20    1
    12    59    58    2
    13    62    65    1
    14    62    61    1
    15    65    66    1
    16    58    61   am
    17    58    57    1
    18    66    67    1
    19    20    21    2
    20    68    67   ar
    21    60    57    1
    22    67    69   ar
    23    55    53    1
    24    57    56    1
    25    56    47   am
    26    43    42    1
    27    53    52    2
    28    53    54    1
    29    70    71    1
    30    41    40    2
    31    52    51    1
    32    50    51    1
    33    50    49    1
    34    47    46    1
    35    47    48    2
    36    46    49    1
    37    46    45    1
    38    73    72    2
    39    86    88    1
    40    86    85    1
    41    40    45   am
    42    40    39    1
    43    42    39    1
    44    42    44    1
    45    71    72    1
    46    71    74    1
    47    72    81   am
    48    75    74    1
    49    75    76    1
    50    39    38    1
    51    38    31   am
    52    77    76    1
    53    77    78    2
    54    85    87    1
    55    85    82    1
    56    81    82    1
    57    82    83    1
    58    80    78    1
    59     1     2    1
    60    78    79    1
    61    30    31    1
    62    30    33    1
    63    30    29    1
    64    31    32    2
    65    34    33    1
    66    34    35    1
    67    36    35    1
    68    36    37    1
    69     4     3    2
    70    83    89   am
    71    83    84    2
    72    92    91    2
    73    89    90    1
    74     2     3    1
    75     2     5    1
    76     6     5    1
    77     6     7    1
    78   104   103    1
    79    91    90    1
    80    91    98   am
    81    90    93    1
    82     9     7   ar
    83   103   102    1
    84   103   105    1
    85     7     8   ar
    86   102    99    1
    87    99    98    1
    88    99   100    1
    89    93    94    1
    90    94    95    1
    91   109   108    2
    92   106   100   am
    93   106   107    1
    94   100   101    2
    95    10    11    1
    96    95    97   ar
    97    95    96   ar
    98   108   107    1
    99    13    12    2
   100   107   110    1
   101   110   111    1
   102    11    12    1
   103    11    14    1
   104    14    15    1
   105   111   112    1
   106    15    17   ar
   107    15    16   ar
   108   112   113    1
   109   113   114    1
