@<TRIPOS>MOLECULE
tmp/5n9rA00.pdb
 179 177 0 0 0
SMALL
GASTEIGER

@<TRIPOS>ATOM
      1  N         21.6290   15.0600   -9.5170 N.3    19  TYR19      -0.1241
      2  CA        21.8830   14.3620   -8.2580 C.3    19  TYR19       0.1605
      3  C         21.1270   14.9490   -7.0600 C.2    19  TYR19       0.2264
      4  O         21.2050   14.4040   -5.9610 O.2    19  TYR19      -0.2867
      5  CB        23.3850   14.3990   -7.9710 C.3    19  TYR19       0.0534
      6  CG        24.0410   15.7550   -8.2290 C.ar   19  TYR19      -0.0201
      7  CD1       23.8530   16.8390   -7.3590 C.ar   19  TYR19      -0.0009
      8  CD2       24.8450   15.9530   -9.3530 C.ar   19  TYR19      -0.0009
      9  CE1       24.4580   18.0730   -7.6070 C.ar   19  TYR19       0.0417
     10  CE2       25.4310   17.1790   -9.6110 C.ar   19  TYR19       0.0417
     11  CZ        25.2330   18.2350   -8.7490 C.ar   19  TYR19       0.1957
     12  OH        25.8380   19.4380   -9.0420 O.3    19  TYR19      -0.2866
     13  N         29.1410   21.7150  -10.8090 N.3    89  HIS89      -0.1226
     14  CA        29.4090   21.3280   -9.4430 C.3    89  HIS89       0.1752
     15  C         29.4100   19.8210   -9.2340 C.2    89  HIS89       0.2596
     16  O         28.5580   19.1100   -9.7770 O.2    89  HIS89      -0.2718
     17  CB        28.3510   21.9590   -8.5440 C.3    89  HIS89       0.0759
     18  CG        28.4600   23.4460   -8.4290 C.ar   89  HIS89       0.0818
     19  ND1       27.6380   24.3050   -9.1210 N.ar   89  HIS89      -0.2268
     20  CD2       29.2790   24.2240   -7.6820 C.ar   89  HIS89       0.1154
     21  CE1       27.9520   25.5510   -8.8130 C.ar   89  HIS89       0.1986
     22  NE2       28.9490   25.5270   -7.9470 N.ar   89  HIS89      -0.2212
     23  N         30.3590   19.3520   -8.4250 N.am   90  ASP90      -0.1960
     24  CA        30.2690   18.0250   -7.8200 C.3    90  ASP90       0.1840
     25  C         29.1280   17.8990   -6.7830 C.2    90  ASP90       0.2622
     26  O         28.6530   18.8970   -6.2290 O.2    90  ASP90      -0.2715
     27  CB        31.6130   17.6210   -7.2210 C.3    90  ASP90       0.1450
     28  CG        32.6340   17.2230   -8.2930 C.2    90  ASP90       0.3671
     29  OD1       32.3970   16.2430   -9.0390 O.co2  90  ASP90      -0.2456
     30  OD2       33.6760   17.8870   -8.3890 O.co2  90  ASP90      -0.2456
     31  N         28.6770   16.6660   -6.5440 N.am   91  VAL91      -0.1963
     32  CA        27.5760   16.4170   -5.5990 C.3    91  VAL91       0.1727
     33  C         27.8650   16.9710   -4.2010 C.2    91  VAL91       0.2616
     34  O         27.0030   17.6100   -3.6200 O.2    91  VAL91      -0.2715
     35  CB        27.1220   14.9220   -5.5520 C.3    91  VAL91       0.0290
     36  CG1       28.2020   13.9880   -5.0390 C.3    91  VAL91       0.0023
     37  CG2       25.8720   14.7750   -4.6930 C.3    91  VAL91       0.0023
     38  N         29.0920   16.7770   -3.7120 N.am   92  GLN92      -0.1977
     39  CA        29.5250   17.2920   -2.3980 C.3    92  GLN92       0.1601
     40  C         29.4510   18.8000   -2.2480 C.2    92  GLN92       0.2287
     41  O         29.3020   19.2780   -1.1390 O.2    92  GLN92      -0.2864
     42  CB        30.9580   16.8310   -2.0400 C.3    92  GLN92       0.0394
     43  CG        32.1050   17.2650   -2.9670 C.3    92  GLN92       0.0908
     44  CD        32.4480   16.2530   -4.0490 C.2    92  GLN92       0.2608
     45  OE1       31.5880   15.4890   -4.5350 O.2    92  GLN92      -0.2717
     46  NE2       33.6970   16.2510   -4.4520 N.am   92  GLN92      -0.0878
     47  N         36.6990   12.3330   -0.7390 N.3   146  GLN146     -0.1245
     48  CA        36.7000   11.9320   -2.1390 C.3   146  GLN146      0.1566
     49  C         37.6870   10.8010   -2.3300 C.2   146  GLN146      0.2260
     50  O         38.8860   11.0230   -2.1880 O.2   146  GLN146     -0.2867
     51  CB        37.0700   13.1000   -3.0500 C.3   146  GLN146      0.0367
     52  CG        35.9860   14.1710   -3.1430 C.3   146  GLN146      0.0905
     53  CD        35.7730   14.9260   -1.8530 C.2   146  GLN146      0.2608
     54  OE1       36.7020   15.5500   -1.3300 O.2   146  GLN146     -0.2717
     55  NE2       34.5560   14.8670   -1.3200 N.am  146  GLN146     -0.0878
     56  N         32.3700   10.2940   -1.6030 N.3   200  GLN200     -0.1231
     57  CA        32.1570   10.3650   -3.0320 C.3   200  GLN200      0.1698
     58  C         33.2070    9.5180   -3.7270 C.2   200  GLN200      0.2592
     59  O         34.3760    9.5290   -3.3290 O.2   200  GLN200     -0.2718
     60  CB        32.2630   11.7930   -3.5250 C.3   200  GLN200      0.0381
     61  CG        31.0770   12.6610   -3.1500 C.3   200  GLN200      0.0905
     62  CD        31.1380   13.2620   -1.7570 C.2   200  GLN200      0.2608
     63  OE1       32.2400   13.5350   -1.2420 O.2   200  GLN200     -0.2717
     64  NE2       29.9850   13.4770   -1.1420 N.am  200  GLN200     -0.0878
     65  N         32.7900    8.8210   -4.7820 N.am  201  LEU201     -0.1966
     66  CA        33.6900    8.0070   -5.5940 C.3   201  LEU201      0.1728
     67  C         34.0900    8.7450   -6.8740 C.2   201  LEU201      0.2616
     68  O         33.2210    9.2680   -7.5890 O.2   201  LEU201     -0.2715
     69  CB        33.0210    6.6830   -5.9270 C.3   201  LEU201      0.0311
     70  CG        32.3990    5.9280   -4.7400 C.3   201  LEU201      0.0022
     71  CD1       31.8740    4.5920   -5.2340 C.3   201  LEU201      0.0001
     72  CD2       33.3480    5.7140   -3.5620 C.3   201  LEU201      0.0001
     73  N         35.3970    8.7480   -7.1700 N.am  202  MET202     -0.1963
     74  CA        35.9660    9.6170   -8.1950 C.3   202  MET202      0.1736
     75  C         35.8940    8.9670   -9.5670 C.2   202  MET202      0.2616
     76  O         36.9070    8.6120  -10.1630 O.2   202  MET202     -0.2715
     77  CB        37.4000   10.0420   -7.8410 C.3   202  MET202      0.0427
     78  CG        37.4810   10.9830   -6.6410 C.3   202  MET202      0.0599
     79  SD        39.1530   11.2520   -5.9760 S.3   202  MET202     -0.1393
     80  CE        39.7750   12.4420   -7.1590 C.3   202  MET202      0.0692
     81  N         34.6700    8.8750  -10.0770 N.am  203  ARG203     -0.1963
     82  CA        34.4010    8.2890  -11.3890 C.3   203  ARG203      0.1729
     83  C         34.4640    9.2720  -12.5750 C.2   203  ARG203      0.2616
     84  O         34.6500    8.8340  -13.7070 O.2   203  ARG203     -0.2715
     85  CB        33.0310    7.6080  -11.3670 C.3   203  ARG203      0.0348
     86  CG        33.0150    6.3160  -10.5710 C.3   203  ARG203      0.0492
     87  CD        31.6580    5.6480  -10.6880 C.3   203  ARG203      0.2205
     88  NE        31.6430    4.3830   -9.9700 N.pl3 203  ARG203     -0.0865
     89  CZ        32.2120    3.2510  -10.3810 C.cat 203  ARG203      0.5346
     90  NH1       32.8440    3.1800  -11.5500 N.pl3 203  ARG203      0.1354
     91  NH2       32.1180    2.1510   -9.6190 N.pl3 203  ARG203      0.1354
     92  N         34.3060   10.5700  -12.3330 N.am  204  PHE204     -0.1960
     93  CA        34.2550   11.5670  -13.4120 C.3   204  PHE204      0.1771
     94  C         35.6120   12.2710  -13.5550 C.2   204  PHE204      0.2619
     95  O         35.7920   13.4100  -13.1400 O.2   204  PHE204     -0.2715
     96  CB        33.1140   12.5630  -13.1640 C.3   204  PHE204      0.0574
     97  CG        32.5700   13.2380  -14.4230 C.ar  204  PHE204     -0.0200
     98  CD1       32.3610   12.5290  -15.6180 C.ar  204  PHE204     -0.0042
     99  CD2       32.2050   14.5960  -14.3880 C.ar  204  PHE204     -0.0042
    100  CE1       31.8320   13.1610  -16.7360 C.ar  204  PHE204     -0.0003
    101  CE2       31.6960   15.2250  -15.5130 C.ar  204  PHE204     -0.0003
    102  CZ        31.5000   14.5100  -16.6810 C.ar  204  PHE204     -0.0000
    103  N         36.5550   11.5640  -14.1540 N.am  205  MET205     -0.1977
    104  CA        37.9470   12.0110  -14.2330 C.3   205  MET205      0.1605
    105  C         38.2720   12.6940  -15.5640 C.2   205  MET205      0.2287
    106  O         37.7970   12.2770  -16.6290 O.2   205  MET205     -0.2864
    107  CB        38.9020   10.8240  -14.0240 C.3   205  MET205      0.0413
    108  CG        38.7970   10.1420  -12.6570 C.3   205  MET205      0.0598
    109  SD        39.1540   11.2390  -11.2820 S.3   205  MET205     -0.1393
    110  CE        40.9440   11.3660  -11.3900 C.3   205  MET205      0.0692
    111  N         33.1410    9.5640  -17.5490 N.3   215  LYS215     -0.1245
    112  CA        32.7510    8.7170  -16.4290 C.3   215  LYS215      0.1561
    113  C         33.4420    7.3610  -16.5800 C.2   215  LYS215      0.2260
    114  O         33.3390    6.7250  -17.6340 O.2   215  LYS215     -0.2867
    115  CB        31.2320    8.5410  -16.3600 C.3   215  LYS215      0.0271
    116  CG        30.7840    7.5730  -15.2800 C.3   215  LYS215      0.0035
    117  CD        29.2870    7.3550  -15.2960 C.3   215  LYS215      0.0206
    118  CE        28.9130    6.4990  -14.1140 C.3   215  LYS215      0.1093
    119  NZ        27.4930    6.0600  -14.0860 N.3   215  LYS215     -0.1314
    120  N         24.1340    6.4960  -10.5110 N.3   251  HIS251     -0.1241
    121  CA        23.9400    7.1560  -11.8030 C.3   251  HIS251      0.1621
    122  C         24.0060    6.1490  -12.9300 C.2   251  HIS251      0.2264
    123  O         24.8320    5.2550  -12.8750 O.2   251  HIS251     -0.2867
    124  CB        25.0290    8.2170  -12.0010 C.3   251  HIS251      0.0745
    125  CG        25.0190    8.8530  -13.3550 C.ar  251  HIS251      0.0817
    126  ND1       25.8730    8.4660  -14.3670 N.ar  251  HIS251     -0.2268
    127  CD2       24.2590    9.8520  -13.8580 C.ar  251  HIS251      0.1154
    128  CE1       25.6400    9.2110  -15.4350 C.ar  251  HIS251      0.1986
    129  NE2       24.6570   10.0520  -15.1540 N.ar  251  HIS251     -0.2212
    130  N         26.3480    8.1550  -19.3640 N.3   254  ASP254     -0.1225
    131  CA        27.6850    8.7330  -19.5800 C.3   254  ASP254      0.1805
    132  C         27.7300   10.2580  -19.3590 C.2   254  ASP254      0.2598
    133  O         28.7860   10.8780  -19.5120 O.2   254  ASP254     -0.2718
    134  CB        28.1750    8.3660  -21.0080 C.3   254  ASP254      0.1424
    135  CG        27.2390    8.8700  -22.1290 C.2   254  ASP254      0.3668
    136  OD1       26.5330    9.8770  -21.9070 O.co2 254  ASP254     -0.2456
    137  OD2       27.1940    8.2570  -23.2350 O.co2 254  ASP254     -0.2456
    138  N         26.5860   10.8750  -19.0410 N.am  255  ASN255     -0.1960
    139  CA        26.5260   12.3390  -18.9060 C.3   255  ASN255      0.1819
    140  C         25.4190   12.7750  -17.9340 C.2   255  ASN255      0.2621
    141  O         24.6830   11.9400  -17.4210 O.2   255  ASN255     -0.2715
    142  CB        26.4330   13.0090  -20.2980 C.3   255  ASN255      0.1195
    143  CG        25.1070   12.7540  -21.0150 C.2   255  ASN255      0.2630
    144  OD1       24.0730   12.5400  -20.3740 O.2   255  ASN255     -0.2716
    145  ND2       25.1220   12.8280  -22.3630 N.am  255  ASN255     -0.0877
    146  N         25.3130   14.0830  -17.7060 N.am  256  HIS256     -0.1973
    147  CA        24.3500   14.6800  -16.7750 C.3   256  HIS256      0.1656
    148  C         22.8960   14.5040  -17.2050 C.2   256  HIS256      0.2291
    149  O         21.9810   14.7700  -16.4200 O.2   256  HIS256     -0.2864
    150  CB        24.6380   16.1830  -16.6000 C.3   256  HIS256      0.0771
    151  CG        25.8480   16.4990  -15.7730 C.ar  256  HIS256      0.0820
    152  ND1       27.1140   16.6150  -16.3080 N.ar  256  HIS256     -0.2267
    153  CD2       25.9660   16.8050  -14.4560 C.ar  256  HIS256      0.1154
    154  CE1       27.9660   16.9340  -15.3460 C.ar  256  HIS256      0.1986
    155  NE2       27.2920   17.0580  -14.2100 N.ar  256  HIS256     -0.2212
    156  N         19.5340    9.4040  -12.4690 N.3   260  TYR260     -0.1241
    157  CA        20.0070    9.4510  -11.0850 C.3   260  TYR260      0.1605
    158  C         18.9700    8.8240  -10.1430 C.2   260  TYR260      0.2264
    159  O         17.7900    9.2140  -10.1680 O.2   260  TYR260     -0.2867
    160  CB        20.2290   10.8990  -10.6640 C.3   260  TYR260      0.0534
    161  CG        21.3080   11.6130  -11.4240 C.ar  260  TYR260     -0.0201
    162  CD1       21.0570   12.1730  -12.6810 C.ar  260  TYR260     -0.0009
    163  CD2       22.5800   11.7410  -10.8870 C.ar  260  TYR260     -0.0009
    164  CE1       22.0550   12.8560  -13.3620 C.ar  260  TYR260      0.0417
    165  CE2       23.5750   12.4190  -11.5570 C.ar  260  TYR260      0.0417
    166  CZ        23.3080   12.9770  -12.7890 C.ar  260  TYR260      0.1957
    167  OH        24.3150   13.6290  -13.4490 O.3   260  TYR260     -0.2866
    168  N         28.1730    6.4440   -7.2130 N.3   308  TYR308     -0.1241
    169  CA        29.0940    7.5650   -7.1610 C.3   308  TYR308      0.1605
    170  C         29.2450    8.1900   -5.7650 C.2   308  TYR308      0.2264
    171  O         30.1750    8.9700   -5.5320 O.2   308  TYR308     -0.2867
    172  CB        28.6880    8.6310   -8.1770 C.3   308  TYR308      0.0534
    173  CG        27.3620    9.3140   -7.9250 C.ar  308  TYR308     -0.0201
    174  CD1       27.2690   10.3840   -7.0460 C.ar  308  TYR308     -0.0009
    175  CD2       26.2160    8.9280   -8.5890 C.ar  308  TYR308     -0.0009
    176  CE1       26.0640   11.0210   -6.8000 C.ar  308  TYR308      0.0417
    177  CE2       25.0100    9.5860   -8.3710 C.ar  308  TYR308      0.0417
    178  CZ        24.9440   10.6280   -7.4610 C.ar  308  TYR308      0.1957
    179  OH        23.7540   11.3030   -7.2150 O.3   308  TYR308     -0.2866
@<TRIPOS>BOND
     1   137   135   ar
     2   145   143   am
     3   135   136   ar
     4   135   134    1
     5   143   144    2
     6   143   142    1
     7   134   131    1
     8   142   139    1
     9   131   130    1
    10   131   132    1
    11   133   132    2
    12   132   138   am
    13   138   139    1
    14   139   140    1
    15   140   146   am
    16   140   141    2
    17   146   147    1
    18   114   113    2
    19   111   112    1
    20   148   147    1
    21   148   149    2
    22   147   150    1
    23   100   102   ar
    24   100    98   ar
    25   102   101   ar
    26   106   105    2
    27   150   151    1
    28   113   112    1
    29   112   115    1
    30   115   116    1
    31   152   151   ar
    32   152   154   ar
    33   151   153   ar
    34    98    97   ar
    35   105   104    1
    36   101    99   ar
    37   128   129   ar
    38   128   126   ar
    39   154   155   ar
    40   117   116    1
    41   117   118    1
    42   129   127   ar
    43   153   155   ar
    44    97    99   ar
    45    97    96    1
    46   126   125   ar
    47   104   103    1
    48   104   107    1
    49   103    94   am
    50   118   119    1
    51   107   108    1
    52   127   125   ar
    53    84    83    2
    54    94    93    1
    55    94    95    2
    56   167   166    1
    57    93    96    1
    58    93    92    1
    59   164   166   ar
    60   164   162   ar
    61   125   124    1
    62   122   123    2
    63   122   121    1
    64   166   165   ar
    65   162   161   ar
    66   108   109    1
    67    83    92   am
    68    83    82    1
    69   156   157    1
    70   124   121    1
    71   121   120    1
    72   165   163   ar
    73    90    89    1
    74   161   163   ar
    75   161   160    1
    76   110   109    1
    77    82    85    1
    78    82    81    1
    79    85    86    1
    80   157   160    1
    81   157   158    1
    82    13    14    1
    83    87    86    1
    84    87    88    1
    85    89    88    2
    86    89    91    1
    87   159   158    2
    88    76    75    2
    89    81    75   am
    90    16    15    2
    91    10     8   ar
    92    10    11   ar
    93    75    74    1
    94     1     2    1
    95    14    15    1
    96    14    17    1
    97     8     6   ar
    98    15    23   am
    99    19    21   ar
   100    19    18   ar
   101    12    11    1
   102    29    28   ar
   103    21    22   ar
   104    11     9   ar
   105   175   177   ar
   106   175   173   ar
   107    17    18    1
   108    18    20   ar
   109    23    24    1
   110    30    28   ar
   111   177   178   ar
   112    28    27    1
   113     2     5    1
   114     2     3    1
   115     6     5    1
   116     6     7   ar
   117    74    77    1
   118    74    73    1
   119   172   173    1
   120   172   169    1
   121    22    20   ar
   122   173   174   ar
   123    77    78    1
   124    24    27    1
   125    24    25    1
   126     9     7   ar
   127    68    67    2
   128   178   179    1
   129   178   176   ar
   130   168   169    1
   131    73    67   am
   132   169   170    1
   133    80    79    1
   134     3     4    2
   135   174   176   ar
   136    67    66    1
   137    25    31   am
   138    25    26    2
   139    78    79    1
   140    31    32    1
   141    69    66    1
   142    69    70    1
   143   170   171    2
   144    32    35    1
   145    32    33    1
   146    66    65    1
   147    35    36    1
   148    35    37    1
   149    71    70    1
   150    65    58   am
   151    70    72    1
   152    45    44    2
   153    46    44   am
   154    33    38   am
   155    33    34    2
   156    44    43    1
   157    58    59    2
   158    58    57    1
   159    38    39    1
   160    60    61    1
   161    60    57    1
   162    61    62    1
   163    52    51    1
   164    52    53    1
   165    51    48    1
   166    57    56    1
   167    43    42    1
   168    39    40    1
   169    39    42    1
   170    49    50    2
   171    49    48    1
   172    40    41    2
   173    48    47    1
   174    53    54    2
   175    53    55   am
   176    62    63    2
   177    62    64   am
