@<TRIPOS>MOLECULE
tmp/5n9tA00.pdb
 187 184 0 0 0
SMALL
GASTEIGER

@<TRIPOS>ATOM
      1  N         21.5630   15.1550   -9.6580 N.3    18  TYR18      -0.1241
      2  CA        21.7910   14.4060   -8.4210 C.3    18  TYR18       0.1605
      3  C         21.0080   14.9860   -7.2250 C.2    18  TYR18       0.2264
      4  O         21.0930   14.4410   -6.0980 O.2    18  TYR18      -0.2867
      5  CB        23.3090   14.4070   -8.0850 C.3    18  TYR18       0.0534
      6  CG        23.9620   15.7690   -8.2810 C.ar   18  TYR18      -0.0201
      7  CD1       23.8460   16.7890   -7.3310 C.ar   18  TYR18      -0.0009
      8  CD2       24.7120   16.0280   -9.4270 C.ar   18  TYR18      -0.0009
      9  CE1       24.4320   18.0330   -7.5420 C.ar   18  TYR18       0.0417
     10  CE2       25.2970   17.2590   -9.6370 C.ar   18  TYR18       0.0417
     11  CZ        25.1580   18.2520   -8.7140 C.ar   18  TYR18       0.1957
     12  OH        25.7510   19.4580   -8.9800 O.3    18  TYR18      -0.2866
     13  N         29.0760   21.8850  -10.7150 N.3    88  HIS88      -0.1226
     14  CA        29.3770   21.5350   -9.3400 C.3    88  HIS88       0.1752
     15  C         29.3630   20.0310   -9.1290 C.2    88  HIS88       0.2596
     16  O         28.5330   19.3470   -9.7180 O.2    88  HIS88      -0.2718
     17  CB        28.3580   22.1500   -8.4000 C.3    88  HIS88       0.0759
     18  CG        28.4210   23.6450   -8.3110 C.ar   88  HIS88       0.0818
     19  ND1       27.5400   24.4710   -8.9690 N.ar   88  HIS88      -0.2268
     20  CD2       29.2150   24.4570   -7.5800 C.ar   88  HIS88       0.1154
     21  CE1       27.7960   25.7300   -8.6570 C.ar   88  HIS88       0.1986
     22  NE2       28.8070   25.7500   -7.8110 N.ar   88  HIS88      -0.2212
     23  N         30.2480   19.5250   -8.2610 N.am   89  ASP89      -0.1960
     24  CA        30.1310   18.1520   -7.8070 C.3    89  ASP89       0.1840
     25  C         28.9830   18.0270   -6.7990 C.2    89  ASP89       0.2622
     26  O         28.5530   19.0030   -6.2110 O.2    89  ASP89      -0.2715
     27  CB        31.4410   17.6390   -7.2280 C.3    89  ASP89       0.1450
     28  CG        32.4570   17.3190   -8.3120 C.2    89  ASP89       0.3671
     29  OD1       32.1190   16.4990   -9.1840 O.co2  89  ASP89      -0.2456
     30  OD2       33.5960   17.8420   -8.2730 O.co2  89  ASP89      -0.2456
     31  N         28.5160   16.8020   -6.6010 N.am   90  VAL90      -0.1963
     32  CA        27.4620   16.5350   -5.6120 C.3    90  VAL90       0.1727
     33  C         27.8400   17.0450   -4.2220 C.2    90  VAL90       0.2616
     34  O         26.9960   17.5800   -3.5110 O.2    90  VAL90      -0.2715
     35  CB        27.0830   15.0270   -5.5600 C.3    90  VAL90       0.0290
     36  CG1       28.2660   14.1110   -5.1610 C.3    90  VAL90       0.0023
     37  CG2       25.8640   14.8270   -4.6510 C.3    90  VAL90       0.0023
     38  N         29.1090   16.9280   -3.8500 N.am   91  GLN91      -0.1977
     39  CA        29.5590   17.4070   -2.5080 C.3    91  GLN91       0.1601
     40  C         29.4940   18.9040   -2.3500 C.2    91  GLN91       0.2287
     41  O         29.4120   19.4030   -1.2160 O.2    91  GLN91      -0.2864
     42  CB        30.9470   16.8790   -2.1350 C.3    91  GLN91       0.0394
     43  CG        32.1110   17.2720   -3.0340 C.3    91  GLN91       0.0908
     44  CD        32.4270   16.2830   -4.1730 C.2    91  GLN91       0.2608
     45  OE1       31.5270   15.5790   -4.6960 O.2    91  GLN91      -0.2717
     46  NE2       33.6890   16.2480   -4.5880 N.am   91  GLN91      -0.0878
     47  N         36.9310   12.3220   -1.0080 N.3   145  GLN145     -0.1245
     48  CA        36.9130   11.9100   -2.4080 C.3   145  GLN145      0.1566
     49  C         37.9010   10.7590   -2.5900 C.2   145  GLN145      0.2260
     50  O         39.1150   10.9350   -2.3670 O.2   145  GLN145     -0.2867
     51  CB        37.2160   13.0680   -3.3260 C.3   145  GLN145      0.0367
     52  CG        36.1150   14.1190   -3.3360 C.3   145  GLN145      0.0905
     53  CD        36.0350   14.9160   -2.0480 C.2   145  GLN145      0.2608
     54  OE1       36.9980   15.5500   -1.6660 O.2   145  GLN145     -0.2717
     55  NE2       34.8730   14.8970   -1.3840 N.am  145  GLN145     -0.0878
     56  N         32.6520   10.2970   -1.7810 N.3   199  GLN199     -0.1231
     57  CA        32.4020   10.3590   -3.1970 C.3   199  GLN199      0.1698
     58  C         33.4430    9.5280   -3.9030 C.2   199  GLN199      0.2592
     59  O         34.5950    9.5610   -3.5360 O.2   199  GLN199     -0.2718
     60  CB        32.3990   11.7930   -3.7160 C.3   199  GLN199      0.0381
     61  CG        31.1300   12.5610   -3.3340 C.3   199  GLN199      0.0905
     62  CD        31.2610   13.2560   -1.9940 C.2   199  GLN199      0.2608
     63  OE1       32.3760   13.6120   -1.5560 O.2   199  GLN199     -0.2717
     64  NE2       30.1050   13.4590   -1.3190 N.am  199  GLN199     -0.0878
     65  N         33.0160    8.7900   -4.9210 N.am  200  LEU200     -0.1966
     66  CA        33.9530    7.9990   -5.7000 C.3   200  LEU200      0.1728
     67  C         34.4140    8.8310   -6.8860 C.2   200  LEU200      0.2616
     68  O         33.6030    9.4920   -7.5640 O.2   200  LEU200     -0.2715
     69  CB        33.2970    6.7050   -6.1480 C.3   200  LEU200      0.0311
     70  CG        32.6190    5.8970   -5.0510 C.3   200  LEU200      0.0022
     71  CD1       32.0340    4.6010   -5.6080 C.3   200  LEU200      0.0001
     72  CD2       33.6190    5.6370   -3.9350 C.3   200  LEU200      0.0001
     73  N         35.7090    8.7520   -7.1770 N.am  201  MET201     -0.1963
     74  CA        36.2660    9.5440   -8.2620 C.3   201  MET201      0.1736
     75  C         36.0610    8.9130   -9.6280 C.2   201  MET201      0.2616
     76  O         37.0060    8.4130  -10.2610 O.2   201  MET201     -0.2715
     77  CB        37.7390    9.8460   -7.9730 C.3   201  MET201      0.0427
     78  CG        37.9290   10.8550   -6.8560 C.3   201  MET201      0.0599
     79  SD        39.6270   11.0130   -6.2370 S.3   201  MET201     -0.1393
     80  CE        40.4740   11.5780   -7.6920 C.3   201  MET201      0.0692
     81  N         34.8490    9.0170  -10.1220 N.am  202  ARG202     -0.1963
     82  CA        34.4650    8.5100  -11.4330 C.3   202  ARG202      0.1729
     83  C         34.4720    9.5620  -12.5410 C.2   202  ARG202      0.2616
     84  O         34.2870    9.2230  -13.6930 O.2   202  ARG202     -0.2715
     85  CB        33.0670    7.8840  -11.3700 C.3   202  ARG202      0.0348
     86  CG        33.0110    6.5650  -10.6150 C.3   202  ARG202      0.0492
     87  CD        31.6880    5.8720  -10.8580 C.3   202  ARG202      0.2205
     88  NE        31.6630    4.5820  -10.1990 N.pl3 202  ARG202     -0.0865
     89  CZ        32.2120    3.4620  -10.6810 C.cat 202  ARG202      0.5346
     90  NH1       32.8410    3.4500  -11.8580 N.pl3 202  ARG202      0.1354
     91  NH2       32.1390    2.3500   -9.9830 N.pl3 202  ARG202      0.1354
     92  N         34.7020   10.8290  -12.2220 N.am  203  PHE203     -0.1960
     93  CA        34.6230   11.8530  -13.2410 C.3   203  PHE203      0.1771
     94  C         36.0320   12.4370  -13.4060 C.2   203  PHE203      0.2619
     95  O         36.4030   13.4240  -12.7660 O.2   203  PHE203     -0.2715
     96  CB        33.5520   12.8850  -12.8890 C.3   203  PHE203      0.0574
     97  CG        33.0420   13.7060  -14.0660 C.ar  203  PHE203     -0.0200
     98  CD1       32.8960   13.1690  -15.3410 C.ar  203  PHE203     -0.0042
     99  CD2       32.6320   15.0110  -13.8630 C.ar  203  PHE203     -0.0042
    100  CE1       32.3960   13.9330  -16.3780 C.ar  203  PHE203     -0.0003
    101  CE2       32.1210   15.7770  -14.8890 C.ar  203  PHE203     -0.0003
    102  CZ        32.0090   15.2370  -16.1570 C.ar  203  PHE203     -0.0000
    103  N         36.7970   11.7600  -14.2540 N.am  204  MET204     -0.1977
    104  CA        38.2470   11.9210  -14.3720 C.3   204  MET204      0.1605
    105  C         38.6240   12.7110  -15.6160 C.2   204  MET204      0.2287
    106  O         38.0410   12.5170  -16.6660 O.2   204  MET204     -0.2864
    107  CB        38.9150   10.5420  -14.4590 C.3   204  MET204      0.0413
    108  CG        38.7840    9.6880  -13.2140 C.3   204  MET204      0.0598
    109  SD        39.4790   10.4970  -11.7530 S.3   204  MET204     -0.1393
    110  CE        41.2240   10.2040  -12.0380 C.3   204  MET204      0.0692
    111  N         33.1140   10.2290  -17.5450 N.3   214  LYS214     -0.1245
    112  CA        32.7380    9.3010  -16.4900 C.3   214  LYS214      0.1561
    113  C         33.3930    7.9780  -16.7540 C.2   214  LYS214      0.2260
    114  O         33.2850    7.4510  -17.8810 O.2   214  LYS214     -0.2867
    115  CB        31.2260    9.1100  -16.4120 C.3   214  LYS214      0.0271
    116  CG        30.8390    8.0580  -15.3870 C.3   214  LYS214      0.0035
    117  CD        29.3570    7.8400  -15.3730 C.3   214  LYS214      0.0206
    118  CE        28.9790    6.8820  -14.2750 C.3   214  LYS214      0.1093
    119  NZ        27.5920    6.3880  -14.4240 N.3   214  LYS214     -0.1314
    120  N         24.2070    6.6450  -10.7180 N.3   250  HIS250     -0.1241
    121  CA        24.0070    7.3310  -11.9430 C.3   250  HIS250      0.1621
    122  C         24.1600    6.3190  -13.0780 C.2   250  HIS250      0.2264
    123  O         24.9970    5.4390  -12.9970 O.2   250  HIS250     -0.2867
    124  CB        25.0420    8.4450  -12.1380 C.3   250  HIS250      0.0745
    125  CG        24.9910    9.1010  -13.4920 C.ar  250  HIS250      0.0817
    126  ND1       25.8200    8.7260  -14.5290 N.ar  250  HIS250     -0.2268
    127  CD2       24.2790   10.1540  -13.9450 C.ar  250  HIS250      0.1154
    128  CE1       25.5760    9.4890  -15.5820 C.ar  250  HIS250      0.1986
    129  NE2       24.6490   10.3680  -15.2590 N.ar  250  HIS250     -0.2212
    130  N         26.2760    8.5870  -19.5430 N.3   253  ASP253     -0.1225
    131  CA        27.5900    9.2200  -19.7880 C.3   253  ASP253      0.1805
    132  C         27.6400   10.7240  -19.6000 C.2   253  ASP253      0.2598
    133  O         28.6740   11.3460  -19.8730 O.2   253  ASP253     -0.2718
    134  CB        28.0700    8.8790  -21.2160 C.3   253  ASP253      0.1424
    135  CG        27.0820    9.3130  -22.3140 C.2   253  ASP253      0.3668
    136  OD1       26.4330   10.3570  -22.2010 O.co2 253  ASP253     -0.2456
    137  OD2       26.9960    8.6070  -23.3500 O.co2 253  ASP253     -0.2456
    138  N         26.5350   11.3290  -19.1850 N.am  254  ASN254     -0.1960
    139  CA        26.4220   12.7840  -19.1050 C.3   254  ASN254      0.1819
    140  C         25.2970   13.1800  -18.1340 C.2   254  ASN254      0.2621
    141  O         24.6020   12.3170  -17.5920 O.2   254  ASN254     -0.2715
    142  CB        26.2690   13.4280  -20.5210 C.3   254  ASN254      0.1195
    143  CG        24.9350   13.1360  -21.1850 C.2   254  ASN254      0.2630
    144  OD1       23.9330   12.9340  -20.5170 O.2   254  ASN254     -0.2716
    145  ND2       24.9130   13.1520  -22.5300 N.am  254  ASN254     -0.0877
    146  N         25.1340   14.4760  -17.9230 N.am  255  HIS255     -0.1973
    147  CA        24.1590   15.0080  -16.9640 C.3   255  HIS255      0.1656
    148  C         22.6930   14.8270  -17.3620 C.2   255  HIS255      0.2291
    149  O         21.8030   15.0730  -16.5560 O.2   255  HIS255     -0.2864
    150  CB        24.4560   16.4770  -16.6940 C.3   255  HIS255      0.0771
    151  CG        25.6840   16.7110  -15.8800 C.ar  255  HIS255      0.0820
    152  ND1       26.9400   16.8580  -16.4380 N.ar  255  HIS255     -0.2267
    153  CD2       25.8370   16.9140  -14.5480 C.ar  255  HIS255      0.1154
    154  CE1       27.8120   17.1140  -15.4810 C.ar  255  HIS255      0.1986
    155  NE2       27.1690   17.1530  -14.3230 N.ar  255  HIS255     -0.2212
    156  N         19.5160    9.5910  -12.4610 N.3   259  TYR259     -0.1241
    157  CA        20.0420    9.5940  -11.0790 C.3   259  TYR259      0.1605
    158  C         18.9970    8.9860  -10.1290 C.2   259  TYR259      0.2264
    159  O         17.8370    9.4000  -10.1860 O.2   259  TYR259     -0.2867
    160  CB        20.2570   11.0470  -10.6490 C.3   259  TYR259      0.0534
    161  CG        21.2890   11.7840  -11.4480 C.ar  259  TYR259     -0.0201
    162  CD1       20.9620   12.3570  -12.6830 C.ar  259  TYR259     -0.0009
    163  CD2       22.5920   11.9390  -10.9610 C.ar  259  TYR259     -0.0009
    164  CE1       21.9070   13.0690  -13.4070 C.ar  259  TYR259      0.0417
    165  CE2       23.5390   12.6580  -11.6710 C.ar  259  TYR259      0.0417
    166  CZ        23.1940   13.2040  -12.9120 C.ar  259  TYR259      0.1957
    167  OH        24.1280   13.9020  -13.6410 O.3   259  TYR259     -0.2866
    168  N         26.2620    2.8480  -12.1380 N.3   306  ASN306     -0.1240
    169  CA        27.1060    2.5420  -10.9750 C.3   306  ASN306      0.1653
    170  C         27.0030    3.6270   -9.8780 C.2   306  ASN306      0.2266
    171  O         26.4280    4.6890  -10.0890 O.2   306  ASN306     -0.2867
    172  CB        28.5700    2.3890  -11.4000 C.3   306  ASN306      0.1155
    173  CG        28.9490    3.3550  -12.5100 C.2   306  ASN306      0.2627
    174  OD1       28.9520    4.5610  -12.2960 O.2   306  ASN306     -0.2716
    175  ND2       29.1950    2.8360  -13.7140 N.am  306  ASN306     -0.0877
    176  N         28.2360    6.5190   -7.3450 N.3   308  TYR308     -0.1241
    177  CA        29.2350    7.5910   -7.2730 C.3   308  TYR308      0.1605
    178  C         29.3960    8.1880   -5.8800 C.2   308  TYR308      0.2264
    179  O         30.3070    8.9560   -5.6550 O.2   308  TYR308     -0.2867
    180  CB        28.9310    8.6870   -8.2860 C.3   308  TYR308      0.0534
    181  CG        27.6280    9.3880   -8.0400 C.ar  308  TYR308     -0.0201
    182  CD1       27.5470   10.4670   -7.1390 C.ar  308  TYR308     -0.0009
    183  CD2       26.4600    8.9800   -8.6740 C.ar  308  TYR308     -0.0009
    184  CE1       26.3450   11.1270   -6.9150 C.ar  308  TYR308      0.0417
    185  CE2       25.2650    9.6300   -8.4600 C.ar  308  TYR308      0.0417
    186  CZ        25.1940   10.7050   -7.5570 C.ar  308  TYR308      0.1957
    187  OH        24.0060   11.3610   -7.2860 O.3   308  TYR308     -0.2866
@<TRIPOS>BOND
     1   137   135   ar
     2   145   143   am
     3   135   136   ar
     4   135   134    1
     5   134   131    1
     6   143   142    1
     7   143   144    2
     8   142   139    1
     9   133   132    2
    10   131   132    1
    11   131   130    1
    12   132   138   am
    13   138   139    1
    14   139   140    1
    15   140   146   am
    16   140   141    2
    17   146   147    1
    18   114   113    2
    19   111   112    1
    20   148   147    1
    21   148   149    2
    22   147   150    1
    23   113   112    1
    24   150   151    1
    25   106   105    2
    26   112   115    1
    27   152   151   ar
    28   152   154   ar
    29   115   116    1
    30   100   102   ar
    31   100    98   ar
    32   102   101   ar
    33   151   153   ar
    34   105   104    1
    35   128   129   ar
    36   128   126   ar
    37   154   155   ar
    38   116   117    1
    39   117   118    1
    40    98    97   ar
    41   129   127   ar
    42   101    99   ar
    43   153   155   ar
    44   126   125   ar
    45   107   104    1
    46   107   108    1
    47   119   118    1
    48   104   103    1
    49   103    94   am
    50    97    99   ar
    51    97    96    1
    52   127   125   ar
    53   175   173   am
    54    84    83    2
    55   167   166    1
    56   125   124    1
    57   164   166   ar
    58   164   162   ar
    59    94    93    1
    60    94    95    2
    61    93    96    1
    62    93    92    1
    63   108   109    1
    64   122   123    2
    65   122   121    1
    66   166   165   ar
    67   162   161   ar
    68    83    92   am
    69    83    82    1
    70   173   174    2
    71   173   172    1
    72   156   157    1
    73   168   169    1
    74   124   121    1
    75   110   109    1
    76   121   120    1
    77    90    89    1
    78   165   163   ar
    79   161   163   ar
    80   161   160    1
    81    82    85    1
    82    82    81    1
    83   172   169    1
    84    85    86    1
    85   157   160    1
    86   157   158    1
    87   169   170    1
    88    87    86    1
    89    87    88    1
    90    13    14    1
    91    89    88    2
    92    89    91    1
    93    76    75    2
    94   159   158    2
    95    81    75   am
    96   171   170    2
    97    16    15    2
    98     1     2    1
    99    10     8   ar
   100    10    11   ar
   101    75    74    1
   102     8     6   ar
   103    14    15    1
   104    14    17    1
   105    29    28   ar
   106    15    23   am
   107    12    11    1
   108    19    21   ar
   109    19    18   ar
   110    11     9   ar
   111   183   185   ar
   112   183   181   ar
   113    21    22   ar
   114   185   186   ar
   115     2     5    1
   116     2     3    1
   117    17    18    1
   118    28    30   ar
   119    28    27    1
   120    18    20   ar
   121   180   181    1
   122   180   177    1
   123     6     5    1
   124     6     7   ar
   125    74    77    1
   126    74    73    1
   127    23    24    1
   128   181   182   ar
   129    77    78    1
   130    22    20   ar
   131    24    27    1
   132    24    25    1
   133    80    79    1
   134    68    67    2
   135   186   187    1
   136   186   184   ar
   137     9     7   ar
   138   176   177    1
   139   177   178    1
   140     3     4    2
   141    73    67   am
   142   182   184   ar
   143    67    66    1
   144    78    79    1
   145    25    31   am
   146    25    26    2
   147    31    32    1
   148    69    66    1
   149    69    70    1
   150   178   179    2
   151    66    65    1
   152    32    35    1
   153    32    33    1
   154    71    70    1
   155    35    36    1
   156    35    37    1
   157    70    72    1
   158    65    58   am
   159    45    44    2
   160    46    44   am
   161    33    38   am
   162    33    34    2
   163    44    43    1
   164    58    59    2
   165    58    57    1
   166    38    39    1
   167    60    61    1
   168    60    57    1
   169    52    51    1
   170    52    53    1
   171    61    62    1
   172    51    48    1
   173    57    56    1
   174    43    42    1
   175    49    48    1
   176    49    50    2
   177    39    40    1
   178    39    42    1
   179    48    47    1
   180    40    41    2
   181    53    54    2
   182    53    55   am
   183    62    63    2
   184    62    64   am
