@<TRIPOS>MOLECULE
tmp/5n9xA00.pdb
 99 95 0 0 0
SMALL
GASTEIGER

@<TRIPOS>ATOM
      1  N         18.1040   -4.3180   28.7650 N.3   186  PHE186     -0.1227
      2  CA        17.3110   -3.5840   27.7740 C.3   186  PHE186      0.1736
      3  C         16.5260   -2.4800   28.4970 C.2   186  PHE186      0.2595
      4  O         15.8480   -2.7380   29.5020 O.2   186  PHE186     -0.2718
      5  CB        16.3980   -4.5570   27.0210 C.3   186  PHE186      0.0547
      6  CG        15.5270   -3.9150   25.9920 C.ar  186  PHE186     -0.0202
      7  CD1       15.9930   -2.8570   25.2150 C.ar  186  PHE186     -0.0042
      8  CD2       14.2540   -4.4280   25.7400 C.ar  186  PHE186     -0.0042
      9  CE1       15.1830   -2.2780   24.2450 C.ar  186  PHE186     -0.0003
     10  CE2       13.4460   -3.8740   24.7720 C.ar  186  PHE186     -0.0003
     11  CZ        13.9040   -2.7900   24.0200 C.ar  186  PHE186     -0.0000
     12  N         16.6380   -1.2470   28.0180 N.am  187  ASP187     -0.1960
     13  CA        16.1790   -0.1310   28.8240 C.3   187  ASP187      0.1840
     14  C         14.6320   -0.0780   28.9880 C.2   187  ASP187      0.2622
     15  O         14.1070    0.6850   29.7920 O.2   187  ASP187     -0.2715
     16  CB        16.7700    1.1800   28.2730 C.3   187  ASP187      0.1450
     17  CG        16.0220    1.7290   27.0730 C.2   187  ASP187      0.3671
     18  OD1       15.2300    1.0070   26.4210 O.co2 187  ASP187     -0.2456
     19  OD2       16.2300    2.9290   26.7920 O.co2 187  ASP187     -0.2456
     20  N         13.9230   -0.9480   28.2800 N.am  188  PHE188     -0.1974
     21  CA        12.4730   -1.0630   28.3910 C.3   188  PHE188      0.1639
     22  C         12.1110   -1.6410   29.7860 C.2   188  PHE188      0.2290
     23  O         11.0110   -1.4250   30.2990 O.2   188  PHE188     -0.2864
     24  CB        11.9700   -1.9000   27.1840 C.3   188  PHE188      0.0560
     25  CG        10.5390   -1.6310   26.7780 C.ar  188  PHE188     -0.0200
     26  CD1        9.8500   -0.5700   27.3280 C.ar  188  PHE188     -0.0042
     27  CD2        9.9710   -2.2900   25.6760 C.ar  188  PHE188     -0.0042
     28  CE1        8.5620   -0.2700   26.9300 C.ar  188  PHE188     -0.0003
     29  CE2        8.6630   -1.9680   25.2260 C.ar  188  PHE188     -0.0003
     30  CZ         7.9610   -0.9640   25.8660 C.ar  188  PHE188     -0.0000
     31  N          6.9450   -0.5660   22.2090 N.3   259  GLY259     -0.1210
     32  CA         8.1540    0.1810   21.9390 C.3   259  GLY259      0.1956
     33  C          9.2090   -0.5930   21.1880 C.2   259  GLY259      0.2612
     34  O          9.2400   -1.8150   21.2190 O.2   259  GLY259     -0.2717
     35  N         10.0890    0.1330   20.5160 N.am  260  GLY260     -0.1956
     36  CA        11.3290   -0.4530   20.0560 C.3   260  GLY260      0.1869
     37  C         11.3500   -0.8490   18.5980 C.2   260  GLY260      0.2309
     38  O         12.4190   -1.0940   18.0590 O.2   260  GLY260     -0.2863
     39  N          4.8800    3.8680   21.5390 N.3   285  MET285     -0.1245
     40  CA         5.8710    4.8570   21.9770 C.3   285  MET285      0.1570
     41  C          7.1600    4.7200   21.1820 C.2   285  MET285      0.2261
     42  O          7.7960    3.6670   21.2200 O.2   285  MET285     -0.2867
     43  CB         6.1590    4.7420   23.4830 C.3   285  MET285      0.0387
     44  CG         4.9530    5.0340   24.3640 C.3   285  MET285      0.0595
     45  SD         5.2420    5.1020   26.1580 S.3   285  MET285     -0.1393
     46  CE         5.6370    6.8600   26.3600 C.3   285  MET285      0.0692
     47  N         10.9700    5.4730   20.8650 N.3   287  GLY287     -0.1210
     48  CA        11.9870    5.6970   21.8730 C.3   287  GLY287      0.1956
     49  C         13.3430    5.2200   21.4070 C.2   287  GLY287      0.2612
     50  O         13.4460    4.3940   20.4940 O.2   287  GLY287     -0.2717
     51  N         14.3820    5.7560   22.0390 N.am  288  ILE288     -0.1965
     52  CA        15.7670    5.3580   21.8390 C.3   288  ILE288      0.1727
     53  C         16.4620    5.3950   23.1700 C.2   288  ILE288      0.2616
     54  O         16.0670    6.1850   24.0430 O.2   288  ILE288     -0.2715
     55  CB        16.5140    6.3010   20.8750 C.3   288  ILE288      0.0290
     56  CG1       15.8820    7.6830   20.9350 C.3   288  ILE288      0.0022
     57  CG2       16.5380    5.7690   19.4720 C.3   288  ILE288      0.0023
     58  CD1       16.4230    8.6350   19.9510 C.3   288  ILE288      0.0001
     59  N         17.5020    4.5810   23.3350 N.am  289  THR289     -0.1951
     60  CA        18.1830    4.4880   24.6170 C.3   289  THR289      0.1897
     61  C         18.8560    5.8240   24.9700 C.2   289  THR289      0.2313
     62  O         18.9580    6.1980   26.1530 O.2   289  THR289     -0.2863
     63  CB        19.2250    3.3340   24.6260 C.3   289  THR289      0.1794
     64  OG1       18.5600    2.0710   24.4530 O.3   289  THR289     -0.2208
     65  CG2       20.0170    3.3240   25.9270 C.3   289  THR289      0.0378
     66  N         14.5480    5.5520   27.1710 N.3   293  VAL293     -0.1231
     67  CA        13.4190    4.6470   26.9540 C.3   293  VAL293      0.1692
     68  C         12.3430    5.1050   25.9480 C.2   293  VAL293      0.2592
     69  O         12.1580    4.4400   24.9270 O.2   293  VAL293     -0.2718
     70  CB        12.7070    4.2840   28.2840 C.3   293  VAL293      0.0266
     71  CG1       11.9280    2.9970   28.0960 C.3   293  VAL293      0.0020
     72  CG2       13.7320    4.1140   29.4340 C.3   293  VAL293      0.0020
     73  N         11.6340    6.2000   26.2340 N.am  294  HIS294     -0.1976
     74  CA        10.5730    6.7150   25.3490 C.3   294  HIS294      0.1656
     75  C         10.7370    8.1820   24.9850 C.2   294  HIS294      0.2291
     76  O         11.1850    8.9820   25.8030 O.2   294  HIS294     -0.2864
     77  CB         9.1700    6.5350   25.9780 C.3   294  HIS294      0.0771
     78  CG         8.9290    5.1810   26.5690 C.ar  294  HIS294      0.0820
     79  ND1        8.9100    4.0380   25.8060 N.ar  294  HIS294     -0.2267
     80  CD2        8.6870    4.7930   27.8460 C.ar  294  HIS294      0.1154
     81  CE1        8.6720    2.9960   26.5910 C.ar  294  HIS294      0.1986
     82  NE2        8.5340    3.4260   27.8300 N.ar  294  HIS294     -0.2212
     83  N         17.1860   -7.7320   23.5950 N.3   473  ASN473     -0.1240
     84  CA        15.9740   -6.9210   23.5940 C.3   473  ASN473      0.1653
     85  C         14.8550   -7.5040   22.7240 C.2   473  ASN473      0.2266
     86  O         13.8590   -6.8260   22.4500 O.2   473  ASN473     -0.2867
     87  CB        16.2840   -5.4980   23.1090 C.3   473  ASN473      0.1155
     88  CG        16.7790   -5.4440   21.6510 C.2   473  ASN473      0.2627
     89  OD1       16.8650   -6.4650   20.9570 O.2   473  ASN473     -0.2716
     90  ND2       17.1110   -4.2380   21.1920 N.am  473  ASN473     -0.0877
     91  N         14.7830   -7.8880   19.5020 N.3   475  LYS475     -0.1245
     92  CA        14.8110   -7.5080   18.0810 C.3   475  LYS475      0.1561
     93  C         15.6500   -8.4740   17.2190 C.2   475  LYS475      0.2260
     94  O         16.5160   -9.2020   17.7280 O.2   475  LYS475     -0.2867
     95  CB        15.3350   -6.0760   17.8990 C.3   475  LYS475      0.0271
     96  CG        14.4950   -5.0220   18.5620 C.3   475  LYS475      0.0035
     97  CD        15.1930   -3.6750   18.5450 C.3   475  LYS475      0.0206
     98  CE        14.5910   -2.7400   19.5660 C.3   475  LYS475      0.1093
     99  NZ        15.1560   -1.3780   19.4800 N.3   475  LYS475     -0.1314
@<TRIPOS>BOND
     1    93    94    2
     2    93    92    1
     3    95    92    1
     4    95    96    1
     5    38    37    2
     6    92    91    1
     7    97    96    1
     8    97    98    1
     9    37    36    1
    10    57    55    1
    11    99    98    1
    12    58    56    1
    13    36    35    1
    14    50    49    2
    15    35    33   am
    16    47    48    1
    17    55    56    1
    18    55    52    1
    19    89    88    2
    20    41    42    2
    21    41    40    1
    22    33    34    2
    23    33    32    1
    24    90    88   am
    25    49    48    1
    26    49    51   am
    27    39    40    1
    28    88    87    1
    29    52    51    1
    30    52    53    1
    31    32    31    1
    32    40    43    1
    33    86    85    2
    34    85    84    1
    35    87    84    1
    36    53    59   am
    37    53    54    2
    38    59    60    1
    39    43    44    1
    40    84    83    1
    41    11     9   ar
    42    11    10   ar
    43     9     7   ar
    44    44    45    1
    45    64    63    1
    46    60    63    1
    47    60    61    1
    48    63    65    1
    49    10     8   ar
    50    69    68    2
    51    61    62    2
    52    75    74    1
    53    75    76    2
    54     7     6   ar
    55    29    27   ar
    56    29    30   ar
    57    74    77    1
    58    74    73    1
    59    27    25   ar
    60     8     6   ar
    61    79    78   ar
    62    79    81   ar
    63    30    28   ar
    64    68    73   am
    65    68    67    1
    66    77    78    1
    67     6     5    1
    68    45    46    1
    69    18    17   ar
    70    78    80   ar
    71    81    82   ar
    72    25    24    1
    73    25    26   ar
    74    19    17   ar
    75    28    26   ar
    76    67    66    1
    77    67    70    1
    78     5     2    1
    79    17    16    1
    80    24    21    1
    81     2     3    1
    82     2     1    1
    83    82    80   ar
    84    12     3   am
    85    12    13    1
    86    71    70    1
    87    16    13    1
    88    20    21    1
    89    20    14   am
    90    70    72    1
    91    21    22    1
    92     3     4    2
    93    13    14    1
    94    14    15    2
    95    22    23    2
