@<TRIPOS>MOLECULE
tmp/5n9xB00.pdb
 201 192 0 0 0
SMALL
GASTEIGER

@<TRIPOS>ATOM
      1  N         48.5830    0.3730   27.8220 N.3   141  THR141     -0.1218
      2  CA        49.1690    0.4960   29.1580 C.3   141  THR141      0.1862
      3  C         48.0800    0.3800   30.2500 C.2   141  THR141      0.2287
      4  O         46.8890    0.5990   29.9730 O.2   141  THR141     -0.2866
      5  CB        49.9310    1.8300   29.2930 C.3   141  THR141      0.1770
      6  OG1       50.7370    1.8170   30.4720 O.3   141  THR141     -0.2211
      7  CG2       48.9600    2.9970   29.3520 C.3   141  THR141      0.0375
      8  N         56.3400   -1.0350   24.6290 N.3   186  ASP186     -0.1225
      9  CA        56.9560    0.0160   23.8170 C.3   186  ASP186      0.1805
     10  C         58.5050    0.0290   23.9180 C.2   186  ASP186      0.2597
     11  O         59.1730    0.7180   23.1340 O.2   186  ASP186     -0.2718
     12  CB        56.4140    1.4200   24.1480 C.3   186  ASP186      0.1424
     13  CG        56.9050    1.9690   25.4950 C.2   186  ASP186      0.3668
     14  OD1       57.6520    1.3040   26.2360 O.co2 186  ASP186     -0.2456
     15  OD2       56.6440    3.1560   25.7410 O.co2 186  ASP186     -0.2456
     16  N         59.0700   -0.7110   24.8710 N.am  187  PHE187     -0.1976
     17  CA        60.5220   -0.8530   24.9460 C.3   187  PHE187      0.1639
     18  C         61.0130   -1.4490   23.6100 C.2   187  PHE187      0.2290
     19  O         62.1110   -1.1700   23.1650 O.2   187  PHE187     -0.2864
     20  CB        60.9880   -1.7620   26.1130 C.3   187  PHE187      0.0560
     21  CG        62.3260   -1.3680   26.7100 C.ar  187  PHE187     -0.0200
     22  CD1       62.6000   -1.5250   28.0620 C.ar  187  PHE187     -0.0042
     23  CD2       63.2570   -0.6900   25.9280 C.ar  187  PHE187     -0.0042
     24  CE1       63.8590   -1.1440   28.5840 C.ar  187  PHE187     -0.0003
     25  CE2       64.4760   -0.2760   26.4430 C.ar  187  PHE187     -0.0003
     26  CZ        64.7780   -0.4970   27.7640 C.ar  187  PHE187     -0.0000
     27  N         65.0810    0.3770   31.7170 N.3   256  GLY256     -0.1210
     28  CA        63.8280    1.1260   31.7900 C.3   256  GLY256      0.1956
     29  C         62.6870    0.3070   32.3770 C.2   256  GLY256      0.2612
     30  O         62.8360   -0.8920   32.6180 O.2   256  GLY256     -0.2717
     31  N         61.5520    0.9570   32.6310 N.am  257  GLY257     -0.1942
     32  CA        60.3200    0.2470   32.9410 C.3   257  GLY257      0.2014
     33  C         60.0050    0.0120   34.4000 C.2   257  GLY257      0.2639
     34  O         58.8480   -0.1400   34.7900 O.2   257  GLY257     -0.2714
     35  N         61.0500   -0.0440   35.2090 N.am  258  GLU258     -0.1963
     36  CA        60.8780   -0.1450   36.6580 C.3   258  GLU258      0.1733
     37  C         62.0350    0.5230   37.3640 C.2   258  GLU258      0.2616
     38  O         63.0650    0.8170   36.7550 O.2   258  GLU258     -0.2715
     39  CB        60.7300   -1.6020   37.1210 C.3   258  GLU258      0.0429
     40  CG        61.2850   -2.6400   36.1740 C.3   258  GLU258      0.1163
     41  CD        61.6630   -3.9190   36.8990 C.2   258  GLU258      0.3649
     42  OE1       61.8450   -3.8720   38.1370 O.co2 258  GLU258     -0.2457
     43  OE2       61.7660   -4.9760   36.2470 O.co2 258  GLU258     -0.2457
     44  N         61.8420    0.8250   38.6420 N.am  259  LYS259     -0.1963
     45  CA        62.8320    1.6350   39.3230 C.3   259  LYS259      0.1728
     46  C         64.1100    0.8390   39.5520 C.2   259  LYS259      0.2616
     47  O         64.0850   -0.3150   39.9820 O.2   259  LYS259     -0.2715
     48  CB        62.2370    2.2000   40.6090 C.3   259  LYS259      0.0311
     49  CG        62.8310    1.7440   41.9320 C.3   259  LYS259      0.0038
     50  CD        62.6810    2.8930   42.9280 C.3   259  LYS259      0.0206
     51  CE        62.9010    2.4850   44.3730 C.3   259  LYS259      0.1093
     52  NZ        63.0810    3.6780   45.2780 N.3   259  LYS259     -0.1314
     53  N         65.2250    1.4700   39.2020 N.am  260  LEU260     -0.1977
     54  CA        66.5440    0.8760   39.3420 C.3   260  LEU260      0.1596
     55  C         67.1440    1.2030   40.7120 C.2   260  LEU260      0.2287
     56  O         67.4210    2.3610   40.9980 O.2   260  LEU260     -0.2864
     57  CB        67.4590    1.3840   38.2440 C.3   260  LEU260      0.0297
     58  CG        68.8160    0.6960   38.1830 C.3   260  LEU260      0.0022
     59  CD1       68.6270   -0.7850   37.8610 C.3   260  LEU260      0.0001
     60  CD2       69.7530    1.3780   37.1970 C.3   260  LEU260      0.0001
     61  N         70.3230    4.4550   33.1700 N.3   281  ASN281     -0.1225
     62  CA        68.9600    4.3280   33.6360 C.3   281  ASN281      0.1785
     63  C         68.0540    5.2870   32.8850 C.2   281  ASN281      0.2597
     64  O         68.3550    6.4680   32.7750 O.2   281  ASN281     -0.2718
     65  CB        68.8550    4.5660   35.1420 C.3   281  ASN281      0.1169
     66  CG        67.4700    4.2690   35.6590 C.2   281  ASN281      0.2627
     67  OD1       66.7550    3.4680   35.0750 O.2   281  ASN281     -0.2716
     68  ND2       67.0930    4.8820   36.7700 N.am  281  ASN281     -0.0877
     69  N         66.9470    4.7800   32.3660 N.am  282  MET282     -0.1965
     70  CA        66.0280    5.6380   31.6440 C.3   282  MET282      0.1736
     71  C         64.6410    5.5300   32.2370 C.2   282  MET282      0.2616
     72  O         64.0050    4.4850   32.1940 O.2   282  MET282     -0.2715
     73  CB        66.0190    5.3040   30.1460 C.3   282  MET282      0.0427
     74  CG        67.3590    5.5950   29.4840 C.3   282  MET282      0.0599
     75  SD        67.2370    5.6910   27.7070 S.3   282  MET282     -0.1393
     76  CE        66.9470    7.4450   27.3900 C.3   282  MET282      0.0692
     77  N         64.1930    6.6100   32.8470 N.am  283  TYR283     -0.1960
     78  CA        62.8190    6.6440   33.2490 C.3   283  TYR283      0.1771
     79  C         61.9700    6.9510   32.0150 C.2   283  TYR283      0.2620
     80  O         62.3370    7.7970   31.1750 O.2   283  TYR283     -0.2715
     81  CB        62.6100    7.6540   34.3670 C.3   283  TYR283      0.0574
     82  CG        61.1750    8.0180   34.6050 C.ar  283  TYR283     -0.0198
     83  CD1       60.5750    9.0510   33.9030 C.ar  283  TYR283     -0.0009
     84  CD2       60.4120    7.3270   35.5250 C.ar  283  TYR283     -0.0009
     85  CE1       59.2640    9.4020   34.1310 C.ar  283  TYR283      0.0417
     86  CE2       59.0760    7.6740   35.7640 C.ar  283  TYR283      0.0417
     87  CZ        58.5200    8.7050   35.0530 C.ar  283  TYR283      0.1957
     88  OH        57.2150    9.0630   35.2640 O.3   283  TYR283     -0.2866
     89  N         60.8430    6.2580   31.8980 N.am  284  GLY284     -0.1940
     90  CA        60.0150    6.4220   30.7250 C.3   284  GLY284      0.2014
     91  C         58.5730    6.0150   30.9150 C.2   284  GLY284      0.2639
     92  O         58.2660    5.1240   31.6910 O.2   284  GLY284     -0.2714
     93  N         57.6820    6.6470   30.1710 N.am  285  ILE285     -0.1963
     94  CA        56.2630    6.3130   30.2550 C.3   285  ILE285      0.1727
     95  C         55.7300    6.0520   28.8360 C.2   285  ILE285      0.2617
     96  O         56.1770    6.6940   27.8850 O.2   285  ILE285     -0.2715
     97  CB        55.4530    7.4510   30.8840 C.3   285  ILE285      0.0290
     98  CG1       56.3120    8.2060   31.8990 C.3   285  ILE285      0.0022
     99  CG2       54.2490    6.8720   31.5610 C.3   285  ILE285      0.0023
    100  CD1       55.6030    9.3370   32.6180 C.3   285  ILE285      0.0001
    101  N         54.7980    5.1220   28.6820 N.am  286  THR286     -0.1937
    102  CA        54.2150    4.8820   27.3710 C.3   286  THR286      0.2028
    103  C         53.5860    6.1750   26.8070 C.2   286  THR286      0.2642
    104  O         53.7330    6.4750   25.6140 O.2   286  THR286     -0.2714
    105  CB        53.1650    3.7400   27.4080 C.3   286  THR286      0.1808
    106  OG1       53.8170    2.4910   27.6970 O.3   286  THR286     -0.2208
    107  CG2       52.4430    3.6250   26.0880 C.3   286  THR286      0.0379
    108  N         52.9530    6.9710   27.6650 N.am  287  GLU287     -0.1976
    109  CA        52.2980    8.1870   27.2020 C.3   287  GLU287      0.1602
    110  C         53.2560    9.2790   26.7470 C.2   287  GLU287      0.2287
    111  O         52.8190   10.2670   26.1970 O.2   287  GLU287     -0.2864
    112  CB        51.3570    8.7430   28.2870 C.3   287  GLU287      0.0415
    113  CG        50.1940    7.8550   28.6900 C.3   287  GLU287      0.1163
    114  CD        50.5040    6.8580   29.8130 C.2   287  GLU287      0.3649
    115  OE1       51.6700    6.4050   29.9660 O.co2 287  GLU287     -0.2457
    116  OE2       49.5640    6.5470   30.5780 O.co2 287  GLU287     -0.2457
    117  N         58.1210    6.0620   25.1680 N.3   290  VAL290     -0.1231
    118  CA        59.2160    5.1240   25.4600 C.3   290  VAL290      0.1692
    119  C         60.1980    5.5970   26.5670 C.2   290  VAL290      0.2592
    120  O         60.2080    5.0250   27.6820 O.2   290  VAL290     -0.2718
    121  CB        59.9860    4.7910   24.1440 C.3   290  VAL290      0.0266
    122  CG1       61.2030    3.9220   24.4210 C.3   290  VAL290      0.0020
    123  CG2       59.0500    4.1310   23.1170 C.3   290  VAL290      0.0020
    124  N         61.0080    6.6160   26.2820 N.am  291  HIS291     -0.1976
    125  CA        61.8740    7.2000   27.3160 C.3   291  HIS291      0.1656
    126  C         61.5970    8.6640   27.6080 C.2   291  HIS291      0.2291
    127  O         61.1740    9.4130   26.7340 O.2   291  HIS291     -0.2864
    128  CB        63.3720    7.0870   26.9600 C.3   291  HIS291      0.0771
    129  CG        63.8220    5.7160   26.5710 C.ar  291  HIS291      0.0820
    130  ND1       63.5220    4.6020   27.3120 N.ar  291  HIS291     -0.2267
    131  CD2       64.6140    5.3060   25.5550 C.ar  291  HIS291      0.1154
    132  CE1       64.0850    3.5410   26.7440 C.ar  291  HIS291      0.1986
    133  NE2       64.7600    3.9420   25.6890 N.ar  291  HIS291     -0.2212
    134  N         67.7430    6.0700   43.7080 N.3   307  SER307     -0.1217
    135  CA        67.4790    5.7520   42.3010 C.3   307  SER307      0.1889
    136  C         67.5070    7.0330   41.4600 C.2   307  SER307      0.2288
    137  O         66.5120    7.7630   41.4010 O.2   307  SER307     -0.2866
    138  CB        66.1280    5.0460   42.1470 C.3   307  SER307      0.2089
    139  OG        66.1030    4.2400   40.9850 O.3   307  SER307     -0.2183
    140  N         67.4500    9.1040   38.0970 N.3   309  ILE309     -0.1245
    141  CA        66.9700    8.9640   36.7350 C.3   309  ILE309      0.1561
    142  C         67.4750   10.0980   35.8480 C.2   309  ILE309      0.2260
    143  O         67.2600   10.0830   34.6350 O.2   309  ILE309     -0.2867
    144  CB        65.4400    8.9030   36.6820 C.3   309  ILE309      0.0252
    145  CG1       64.8300   10.0020   37.5340 C.3   309  ILE309      0.0019
    146  CG2       64.9530    7.5510   37.1720 C.3   309  ILE309      0.0019
    147  CD1       63.3640   10.2310   37.2580 C.3   309  ILE309      0.0001
    148  N         52.5540   12.1600   35.3030 N.3   368  SER368     -0.1217
    149  CA        53.1360   10.8220   35.4030 C.3   368  SER368      0.1889
    150  C         52.5800    9.9810   36.5440 C.2   368  SER368      0.2288
    151  O         52.6070    8.7400   36.4820 O.2   368  SER368     -0.2866
    152  CB        54.6500   10.9180   35.5630 C.3   368  SER368      0.2089
    153  OG        54.9980   11.1370   36.9150 O.3   368  SER368     -0.2183
    154  N         54.0370    9.7120   39.1100 N.3   370  ASP370     -0.1239
    155  CA        55.2610    9.2730   39.7640 C.3   370  ASP370      0.1674
    156  C         55.8140   10.3630   40.6550 C.2   370  ASP370      0.2266
    157  O         55.9700   11.4980   40.2090 O.2   370  ASP370     -0.2867
    158  CB        56.3260    8.8910   38.7300 C.3   370  ASP370      0.1410
    159  CG        55.9810    7.6420   37.9810 C.2   370  ASP370      0.3668
    160  OD1       55.9500    6.5770   38.6180 O.co2 370  ASP370     -0.2456
    161  OD2       55.7520    7.7220   36.7570 O.co2 370  ASP370     -0.2456
    162  N         64.1280    8.9930   42.0230 N.3   382  TYR382     -0.1241
    163  CA        62.8300    8.3500   41.9600 C.3   382  TYR382      0.1605
    164  C         62.4080    7.7570   43.3050 C.2   382  TYR382      0.2264
    165  O         63.1330    6.9690   43.9050 O.2   382  TYR382     -0.2867
    166  CB        62.8180    7.2530   40.8780 C.3   382  TYR382      0.0534
    167  CG        61.4540    6.6330   40.7330 C.ar  382  TYR382     -0.0201
    168  CD1       61.1240    5.4490   41.3820 C.ar  382  TYR382     -0.0009
    169  CD2       60.4660    7.2740   39.9970 C.ar  382  TYR382     -0.0009
    170  CE1       59.8580    4.8950   41.2600 C.ar  382  TYR382      0.0417
    171  CE2       59.2010    6.7380   39.8770 C.ar  382  TYR382      0.0417
    172  CZ        58.8990    5.5530   40.5070 C.ar  382  TYR382      0.1957
    173  OH        57.6310    5.0340   40.3750 O.3   382  TYR382     -0.2866
    174  N         55.3140    5.4710   42.8260 N.3   385  ARG385     -0.1245
    175  CA        53.9530    5.8390   42.4670 C.3   385  ARG385      0.1563
    176  C         53.2700    6.5270   43.6350 C.2   385  ARG385      0.2260
    177  O         53.3260    6.0490   44.7680 O.2   385  ARG385     -0.2867
    178  CB        53.1590    4.6080   42.0400 C.3   385  ARG385      0.0307
    179  CG        53.8250    3.8330   40.9150 C.3   385  ARG385      0.0489
    180  CD        52.8100    3.4850   39.8330 C.3   385  ARG385      0.2205
    181  NE        52.3770    4.6770   39.1040 N.pl3 385  ARG385     -0.0865
    182  CZ        53.1600    5.4050   38.3150 C.cat 385  ARG385      0.5346
    183  NH1       54.4260    5.0470   38.1100 N.pl3 385  ARG385      0.1354
    184  NH2       52.6710    6.4800   37.7060 N.pl3 385  ARG385      0.1354
    185  N         50.8810   -4.0480   29.8370 N.3   470  ASN470     -0.1240
    186  CA        52.2430   -3.5480   29.6650 C.3   470  ASN470      0.1653
    187  C         53.2310   -4.2930   30.5650 C.2   470  ASN470      0.2266
    188  O         54.3000   -3.7760   30.8920 O.2   470  ASN470     -0.2867
    189  CB        52.3480   -2.0270   29.9220 C.3   470  ASN470      0.1155
    190  CG        51.6250   -1.5770   31.1910 C.2   470  ASN470      0.2627
    191  OD1       50.4090   -1.6950   31.3020 O.2   470  ASN470     -0.2716
    192  ND2       52.3800   -1.0910   32.1620 N.am  470  ASN470     -0.0877
    193  N         53.5990   -5.0980   33.6700 N.3   472  LYS472     -0.1245
    194  CA        53.7990   -4.8910   35.0880 C.3   472  LYS472      0.1561
    195  C         53.0690   -6.0030   35.8260 C.2   472  LYS472      0.2260
    196  O         52.1740   -6.6700   35.2710 O.2   472  LYS472     -0.2867
    197  CB        53.2940   -3.5260   35.5420 C.3   472  LYS472      0.0271
    198  CG        53.9190   -2.3590   34.8140 C.3   472  LYS472      0.0035
    199  CD        54.9150   -1.6320   35.7090 C.3   472  LYS472      0.0206
    200  CE        55.1240   -0.2070   35.2440 C.3   472  LYS472      0.1093
    201  NZ        56.5310    0.2180   35.4580 N.3   472  LYS472     -0.1314
@<TRIPOS>BOND
     1   123   121    1
     2    11    10    2
     3    19    18    2
     4    18    17    1
     5     9    10    1
     6     9    12    1
     7     9     8    1
     8    10    16   am
     9   121   122    1
    10   121   118    1
    11    12    13    1
    12    16    17    1
    13    17    20    1
    14   117   118    1
    15   118   119    1
    16    13    15   ar
    17    13    14   ar
    18   131   133   ar
    19   131   129   ar
    20   104   103    2
    21   133   132   ar
    22    23    25   ar
    23    23    21   ar
    24   107   105    1
    25    20    21    1
    26   111   110    2
    27   124   119   am
    28   124   125    1
    29    25    26   ar
    30   119   120    2
    31   129   128    1
    32   129   130   ar
    33    21    22   ar
    34   127   126    2
    35   132   130   ar
    36   110   109    1
    37   103   102    1
    38   103   108   am
    39   128   125    1
    40   109   108    1
    41   109   112    1
    42   125   126    1
    43   102   105    1
    44   102   101    1
    45    76    75    1
    46   105   106    1
    47    75    74    1
    48    26    24   ar
    49     1     2    1
    50    96    95    2
    51    22    24   ar
    52   112   113    1
    53   101    95   am
    54   113   114    1
    55    95    94    1
    56     2     5    1
    57     2     3    1
    58     5     7    1
    59     5     6    1
    60    74    73    1
    61   186   185    1
    62   186   189    1
    63   186   187    1
    64   114   115   ar
    65   114   116   ar
    66   189   190    1
    67     4     3    2
    68    73    70    1
    69    93    94    1
    70    93    91   am
    71    94    97    1
    72   187   188    2
    73    90    91    1
    74    90    89    1
    75    97    99    1
    76    97    98    1
    77    91    92    2
    78    80    79    2
    79   190   191    2
    80   190   192   am
    81    70    71    1
    82    70    69    1
    83    27    28    1
    84    28    29    1
    85    89    79   am
    86    98   100    1
    87    79    78    1
    88    72    71    2
    89    71    77   am
    90    69    63   am
    91    29    30    2
    92    29    31   am
    93    31    32    1
    94    64    63    2
    95    77    78    1
    96    63    62    1
    97    32    33    1
    98    61    62    1
    99    78    81    1
   100    62    65    1
   101   193   194    1
   102    83    85   ar
   103    83    82   ar
   104    85    87   ar
   105    81    82    1
   106    33    34    2
   107    33    35   am
   108    82    84   ar
   109   143   142    2
   110   198   197    1
   111   198   199    1
   112    87    88    1
   113    87    86   ar
   114    67    66    2
   115   194   197    1
   116   194   195    1
   117    65    66    1
   118    35    36    1
   119   200   201    1
   120   200   199    1
   121   196   195    2
   122   148   149    1
   123   149   152    1
   124   149   150    1
   125    84    86   ar
   126   152   153    1
   127    66    68   am
   128   142   141    1
   129    40    41    1
   130    40    39    1
   131    43    41   ar
   132   151   150    2
   133    36    39    1
   134    36    37    1
   135   144   141    1
   136   144   146    1
   137   144   145    1
   138   141   140    1
   139    38    37    2
   140   161   159   ar
   141    41    42   ar
   142    60    58    1
   143   147   145    1
   144    37    44   am
   145   184   182    1
   146    59    58    1
   147   159   160   ar
   148   159   158    1
   149   183   182    1
   150    58    57    1
   151    57    54    1
   152   182   181    2
   153    44    45    1
   154   158   155    1
   155   181   180    1
   156   154   155    1
   157    53    54    1
   158    53    46   am
   159    45    46    1
   160    45    48    1
   161    54    55    1
   162    46    47    2
   163   155   156    1
   164   180   179    1
   165   171   169   ar
   166   171   172   ar
   167   169   167   ar
   168   157   156    2
   169   173   172    1
   170   172   170   ar
   171    48    49    1
   172    55    56    2
   173   167   166    1
   174   167   168   ar
   175   166   163    1
   176   179   178    1
   177   139   138    1
   178   170   168   ar
   179   137   136    2
   180   136   135    1
   181    49    50    1
   182   163   162    1
   183   163   164    1
   184   178   175    1
   185   138   135    1
   186   135   134    1
   187   175   174    1
   188   175   176    1
   189    50    51    1
   190   164   165    2
   191   176   177    2
   192    51    52    1
