@<TRIPOS>MOLECULE
tmp/5n9xA01.pdb
 222 211 0 0 0
SMALL
GASTEIGER

@<TRIPOS>ATOM
      1  N         24.0570   -0.5050   23.7450 N.3   142  THR142     -0.1203
      2  CA        23.3040   -0.6610   22.5180 C.3   142  THR142      0.1994
      3  C         24.1720   -1.3290   21.4530 C.2   142  THR142      0.2618
      4  O         25.3980   -1.4460   21.6030 O.2   142  THR142     -0.2717
      5  CB        22.7740    0.6890   22.0190 C.3   142  THR142      0.1784
      6  OG1       23.8540    1.5080   21.5380 O.3   142  THR142     -0.2211
      7  CG2       22.0280    1.4100   23.1360 C.3   142  THR142      0.0376
      8  N         23.5250   -1.7920   20.3920 N.am  143  SER143     -0.1951
      9  CA        24.2170   -2.4630   19.3090 C.3   143  SER143      0.1924
     10  C         24.9940   -1.4750   18.4380 C.2   143  SER143      0.2314
     11  O         24.4300   -0.5030   17.9400 O.2   143  SER143     -0.2863
     12  CB        23.2300   -3.2310   18.4400 C.3   143  SER143      0.2116
     13  OG        22.1800   -2.3770   18.0370 O.3   143  SER143     -0.2180
     14  N         28.1710   -0.1630   21.9880 N.3   150  LYS150     -0.1245
     15  CA        28.3740    1.1190   22.6630 C.3   150  LYS150      0.1561
     16  C         27.5290    1.3800   23.9020 C.2   150  LYS150      0.2260
     17  O         26.3340    1.1160   23.9250 O.2   150  LYS150     -0.2867
     18  CB        28.1820    2.2460   21.6450 C.3   150  LYS150      0.0271
     19  CG        26.8370    2.2640   20.9390 C.3   150  LYS150      0.0035
     20  CD        26.8000    3.4120   19.9440 C.3   150  LYS150      0.0206
     21  CE        25.4720    3.4970   19.2180 C.3   150  LYS150      0.1093
     22  NZ        25.2200    2.3290   18.3340 N.3   150  LYS150     -0.1314
     23  N         18.1040   -4.3180   28.7650 N.3   186  PHE186     -0.1227
     24  CA        17.3110   -3.5840   27.7740 C.3   186  PHE186      0.1736
     25  C         16.5260   -2.4800   28.4970 C.2   186  PHE186      0.2595
     26  O         15.8480   -2.7380   29.5020 O.2   186  PHE186     -0.2718
     27  CB        16.3980   -4.5570   27.0210 C.3   186  PHE186      0.0547
     28  CG        15.5270   -3.9150   25.9920 C.ar  186  PHE186     -0.0202
     29  CD1       15.9930   -2.8570   25.2150 C.ar  186  PHE186     -0.0042
     30  CD2       14.2540   -4.4280   25.7400 C.ar  186  PHE186     -0.0042
     31  CE1       15.1830   -2.2780   24.2450 C.ar  186  PHE186     -0.0003
     32  CE2       13.4460   -3.8740   24.7720 C.ar  186  PHE186     -0.0003
     33  CZ        13.9040   -2.7900   24.0200 C.ar  186  PHE186     -0.0000
     34  N         16.6380   -1.2470   28.0180 N.am  187  ASP187     -0.1974
     35  CA        16.1790   -0.1310   28.8240 C.3   187  ASP187      0.1709
     36  C         14.6320   -0.0780   28.9880 C.2   187  ASP187      0.2293
     37  O         14.1070    0.6850   29.7920 O.2   187  ASP187     -0.2864
     38  CB        16.7700    1.1800   28.2730 C.3   187  ASP187      0.1436
     39  CG        16.0220    1.7290   27.0730 C.2   187  ASP187      0.3671
     40  OD1       15.2300    1.0070   26.4210 O.co2 187  ASP187     -0.2456
     41  OD2       16.2300    2.9290   26.7920 O.co2 187  ASP187     -0.2456
     42  N          6.9450   -0.5660   22.2090 N.3   259  GLY259     -0.1210
     43  CA         8.1540    0.1810   21.9390 C.3   259  GLY259      0.1956
     44  C          9.2090   -0.5930   21.1880 C.2   259  GLY259      0.2612
     45  O          9.2400   -1.8150   21.2190 O.2   259  GLY259     -0.2717
     46  N         10.0890    0.1330   20.5160 N.am  260  GLY260     -0.1942
     47  CA        11.3290   -0.4530   20.0560 C.3   260  GLY260      0.2014
     48  C         11.3500   -0.8490   18.5980 C.2   260  GLY260      0.2639
     49  O         12.4190   -1.0940   18.0590 O.2   260  GLY260     -0.2714
     50  N         10.1810   -0.9460   17.9680 N.am  261  GLU261     -0.1963
     51  CA        10.0910   -1.3380   16.5640 C.3   261  GLU261      0.1733
     52  C          9.0010   -0.5470   15.9130 C.2   261  GLU261      0.2616
     53  O          8.1740    0.0360   16.6070 O.2   261  GLU261     -0.2715
     54  CB         9.7890   -2.8290   16.3950 C.3   261  GLU261      0.0429
     55  CG        10.6480   -3.7270   17.2300 C.3   261  GLU261      0.1163
     56  CD        10.5400   -5.1810   16.8330 C.2   261  GLU261      0.3649
     57  OE1        9.4120   -5.7270   16.7940 O.co2 261  GLU261     -0.2457
     58  OE2       11.6060   -5.7790   16.5750 O.co2 261  GLU261     -0.2457
     59  N          8.9890   -0.5600   14.5820 N.am  262  LYS262     -0.1963
     60  CA         7.9330    0.0720   13.8000 C.3   262  LYS262      0.1728
     61  C          6.6400   -0.7180   13.9560 C.2   262  LYS262      0.2616
     62  O          6.5920   -1.8910   13.6090 O.2   262  LYS262     -0.2715
     63  CB         8.3450    0.1590   12.3330 C.3   262  LYS262      0.0311
     64  CG         7.3770    0.8920   11.4230 C.3   262  LYS262      0.0038
     65  CD         7.6240    0.5090    9.9600 C.3   262  LYS262      0.0206
     66  CE         6.6720    1.2330    9.0060 C.3   262  LYS262      0.1093
     67  NZ         7.4020    2.2100    8.1320 N.3   262  LYS262     -0.1314
     68  N          5.5980   -0.0950   14.4900 N.am  263  LEU263     -0.1977
     69  CA         4.3380   -0.8040   14.7080 C.3   263  LEU263      0.1596
     70  C          3.3910   -0.6000   13.5090 C.2   263  LEU263      0.2287
     71  O          2.9630    0.5230   13.2410 O.2   263  LEU263     -0.2864
     72  CB         3.6940   -0.3370   16.0250 C.3   263  LEU263      0.0297
     73  CG         2.3780   -0.9590   16.5180 C.3   263  LEU263      0.0022
     74  CD1        2.5380   -2.4180   16.9750 C.3   263  LEU263      0.0001
     75  CD2        1.7250   -0.1180   17.6280 C.3   263  LEU263      0.0001
     76  N          1.4850    3.4550   21.2890 N.3   284  ASN284     -0.1225
     77  CA         2.7370    3.2280   20.6140 C.3   284  ASN284      0.1785
     78  C          3.6790    4.2680   21.1510 C.2   284  ASN284      0.2597
     79  O          3.3000    5.4190   21.2680 O.2   284  ASN284     -0.2718
     80  CB         2.6130    3.3190   19.0860 C.3   284  ASN284      0.1169
     81  CG         3.9270    3.0140   18.4070 C.2   284  ASN284      0.2627
     82  OD1        4.8330    2.4820   19.0460 O.2   284  ASN284     -0.2716
     83  ND2        4.0430    3.3360   17.1200 N.am  284  ASN284     -0.0877
     84  N          4.8800    3.8680   21.5390 N.am  285  MET285     -0.1965
     85  CA         5.8710    4.8570   21.9770 C.3   285  MET285      0.1736
     86  C          7.1600    4.7200   21.1820 C.2   285  MET285      0.2616
     87  O          7.7960    3.6670   21.2200 O.2   285  MET285     -0.2715
     88  CB         6.1590    4.7420   23.4830 C.3   285  MET285      0.0427
     89  CG         4.9530    5.0340   24.3640 C.3   285  MET285      0.0599
     90  SD         5.2420    5.1020   26.1580 S.3   285  MET285     -0.1393
     91  CE         5.6370    6.8600   26.3600 C.3   285  MET285      0.0692
     92  N          7.5170    5.7670   20.4450 N.am  286  TYR286     -0.1960
     93  CA         8.8310    5.8000   19.8070 C.3   286  TYR286      0.1771
     94  C          9.8150    6.1320   20.8970 C.2   286  TYR286      0.2620
     95  O          9.5250    6.9820   21.7630 O.2   286  TYR286     -0.2715
     96  CB         8.9120    6.8260   18.6600 C.3   286  TYR286      0.0574
     97  CG        10.3350    7.1280   18.2000 C.ar  286  TYR286     -0.0198
     98  CD1       10.9430    6.3520   17.2260 C.ar  286  TYR286     -0.0009
     99  CD2       11.0560    8.1950   18.7190 C.ar  286  TYR286     -0.0009
    100  CE1       12.2250    6.6160   16.8020 C.ar  286  TYR286      0.0417
    101  CE2       12.3360    8.4670   18.3020 C.ar  286  TYR286      0.0417
    102  CZ        12.9170    7.6730   17.3490 C.ar  286  TYR286      0.1957
    103  OH        14.1890    7.9370   16.9380 O.3   286  TYR286     -0.2866
    104  N         10.9700    5.4730   20.8650 N.am  287  GLY287     -0.1940
    105  CA        11.9870    5.6970   21.8730 C.3   287  GLY287      0.2014
    106  C         13.3430    5.2200   21.4070 C.2   287  GLY287      0.2639
    107  O         13.4460    4.3940   20.4940 O.2   287  GLY287     -0.2714
    108  N         14.3820    5.7560   22.0390 N.am  288  ILE288     -0.1963
    109  CA        15.7670    5.3580   21.8390 C.3   288  ILE288      0.1727
    110  C         16.4620    5.3950   23.1700 C.2   288  ILE288      0.2617
    111  O         16.0670    6.1850   24.0430 O.2   288  ILE288     -0.2715
    112  CB        16.5140    6.3010   20.8750 C.3   288  ILE288      0.0290
    113  CG1       15.8820    7.6830   20.9350 C.3   288  ILE288      0.0022
    114  CG2       16.5380    5.7690   19.4720 C.3   288  ILE288      0.0023
    115  CD1       16.4230    8.6350   19.9510 C.3   288  ILE288      0.0001
    116  N         17.5020    4.5810   23.3350 N.am  289  THR289     -0.1937
    117  CA        18.1830    4.4880   24.6170 C.3   289  THR289      0.2028
    118  C         18.8560    5.8240   24.9700 C.2   289  THR289      0.2642
    119  O         18.9580    6.1980   26.1530 O.2   289  THR289     -0.2714
    120  CB        19.2250    3.3340   24.6260 C.3   289  THR289      0.1808
    121  OG1       18.5600    2.0710   24.4530 O.3   289  THR289     -0.2208
    122  CG2       20.0170    3.3240   25.9270 C.3   289  THR289      0.0379
    123  N         19.2640    6.5590   23.9350 N.am  290  GLU290     -0.1976
    124  CA        19.9470    7.8300   24.1200 C.3   290  GLU290      0.1602
    125  C         19.0670    8.9410   24.6870 C.2   290  GLU290      0.2287
    126  O         19.5700    9.9590   25.1390 O.2   290  GLU290     -0.2864
    127  CB        20.5860    8.2800   22.7890 C.3   290  GLU290      0.0415
    128  CG        21.7920    7.4270   22.3270 C.3   290  GLU290      0.1163
    129  CD        21.4220    6.1710   21.5430 C.2   290  GLU290      0.3649
    130  OE1       20.2410    5.7470   21.5220 O.co2 290  GLU290     -0.2457
    131  OE2       22.3410    5.5940   20.9440 O.co2 290  GLU290     -0.2457
    132  N          2.4310    4.2730   10.2750 N.3   310  SER310     -0.1217
    133  CA         2.9330    4.0870   11.6310 C.3   310  SER310      0.1889
    134  C          2.9770    5.3900   12.4250 C.2   310  SER310      0.2288
    135  O          3.9820    6.1140   12.3960 O.2   310  SER310     -0.2866
    136  CB         4.3310    3.4760   11.5830 C.3   310  SER310      0.2089
    137  OG         4.6750    2.9380   12.8440 O.3   310  SER310     -0.2183
    138  N          3.5350    7.6250   15.5450 N.3   312  ILE312     -0.1245
    139  CA         4.2420    7.6090   16.8170 C.3   312  ILE312      0.1561
    140  C          3.7940    8.7930   17.6520 C.2   312  ILE312      0.2260
    141  O          4.0940    8.8700   18.8340 O.2   312  ILE312     -0.2867
    142  CB         5.7960    7.6250   16.6430 C.3   312  ILE312      0.0252
    143  CG1        6.2910    8.9520   16.0630 C.3   312  ILE312      0.0019
    144  CG2        6.2460    6.4690   15.7850 C.3   312  ILE312      0.0019
    145  CD1        7.6710    8.8680   15.4550 C.3   312  ILE312      0.0001
    146  N         26.5190   12.9330   17.0360 N.3   360  ARG360     -0.1245
    147  CA        25.0990   12.6750   17.2450 C.3   360  ARG360      0.1563
    148  C         24.4500   13.5300   18.3340 C.2   360  ARG360      0.2260
    149  O         23.2280   13.5810   18.4400 O.2   360  ARG360     -0.2867
    150  CB        24.9010   11.1910   17.5510 C.3   360  ARG360      0.0307
    151  CG        25.1990   10.2810   16.3870 C.3   360  ARG360      0.0489
    152  CD        24.8500    8.8690   16.7630 C.3   360  ARG360      0.2205
    153  NE        25.0260    7.9310   15.6620 N.pl3 360  ARG360     -0.0865
    154  CZ        24.8080    6.6220   15.7700 C.cat 360  ARG360      0.5346
    155  NH1       24.3920    6.1100   16.9210 N.pl3 360  ARG360      0.1354
    156  NH2       24.9820    5.8240   14.7220 N.pl3 360  ARG360      0.1354
    157  N         19.9010   15.4290   20.1270 N.3   370  TYR370     -0.1241
    158  CA        20.3750   14.0980   19.7480 C.3   370  TYR370      0.1605
    159  C         19.7990   13.7100   18.3930 C.2   370  TYR370      0.2264
    160  O         18.5790   13.7810   18.1540 O.2   370  TYR370     -0.2867
    161  CB        20.0150   13.0130   20.7830 C.3   370  TYR370      0.0534
    162  CG        20.3270   11.6150   20.2650 C.ar  370  TYR370     -0.0201
    163  CD1       21.6380   11.1690   20.1900 C.ar  370  TYR370     -0.0009
    164  CD2       19.3210   10.7630   19.8290 C.ar  370  TYR370     -0.0009
    165  CE1       21.9490    9.9160   19.7080 C.ar  370  TYR370      0.0417
    166  CE2       19.6140    9.4930   19.3490 C.ar  370  TYR370      0.0417
    167  CZ        20.9380    9.0780   19.2950 C.ar  370  TYR370      0.1957
    168  OH        21.2720    7.8280   18.8390 O.3   370  TYR370     -0.2866
    169  N         18.6260   11.1360   16.0120 N.3   372  SER372     -0.1217
    170  CA        18.1250    9.7820   16.1870 C.3   372  SER372      0.1889
    171  C         18.5650    8.8520   15.0610 C.2   372  SER372      0.2288
    172  O         18.6470    7.6320   15.2370 O.2   372  SER372     -0.2866
    173  CB        16.5920    9.7960   16.2790 C.3   372  SER372      0.2089
    174  OG        16.0030    9.9490   15.0010 O.3   372  SER372     -0.2183
    175  N         16.6650    8.5040   12.6240 N.3   374  ASP374     -0.1239
    176  CA        15.3630    7.9700   12.2220 C.3   374  ASP374      0.1674
    177  C         14.6440    8.9670   11.3300 C.2   374  ASP374      0.2266
    178  O         14.6840   10.1720   11.5860 O.2   374  ASP374     -0.2867
    179  CB        14.5100    7.6540   13.4550 C.3   374  ASP374      0.1410
    180  CG        14.8580    6.3240   14.0910 C.2   374  ASP374      0.3668
    181  OD1       14.7640    5.2920   13.3960 O.co2 374  ASP374     -0.2456
    182  OD2       15.2370    6.3110   15.2820 O.co2 374  ASP374     -0.2456
    183  N          6.2350    7.5590   11.5470 N.3   386  TYR386     -0.1241
    184  CA         7.5780    7.0110   11.4530 C.3   386  TYR386      0.1605
    185  C          7.7900    6.3920   10.0760 C.2   386  TYR386      0.2264
    186  O          6.9870    5.5640    9.6320 O.2   386  TYR386     -0.2867
    187  CB         7.8250    5.9720   12.5650 C.3   386  TYR386      0.0534
    188  CG         9.1420    5.2340   12.4200 C.ar  386  TYR386     -0.0201
    189  CD1       10.3150    5.7620   12.9460 C.ar  386  TYR386     -0.0009
    190  CD2        9.2120    4.0180   11.7520 C.ar  386  TYR386     -0.0009
    191  CE1       11.5200    5.1090   12.8100 C.ar  386  TYR386      0.0417
    192  CE2       10.3980    3.3540   11.6150 C.ar  386  TYR386      0.0417
    193  CZ        11.5620    3.9070   12.1420 C.ar  386  TYR386      0.1957
    194  OH        12.7590    3.2380   12.0060 O.3   386  TYR386     -0.2866
    195  N         14.6700    3.9070    9.2710 N.3   389  ARG389     -0.1245
    196  CA        16.0330    4.2770    9.6230 C.3   389  ARG389      0.1563
    197  C         16.8630    4.7430    8.4330 C.2   389  ARG389      0.2260
    198  O         16.9010    4.0670    7.4120 O.2   389  ARG389     -0.2867
    199  CB        16.7320    3.0900   10.2850 C.3   389  ARG389      0.0307
    200  CG        16.2270    2.8000   11.6670 C.3   389  ARG389      0.0489
    201  CD        17.1690    1.8630   12.3860 C.3   389  ARG389      0.2205
    202  NE        18.5070    2.4490   12.5440 N.pl3 389  ARG389     -0.0865
    203  CZ        18.7980    3.5690   13.2200 C.cat 389  ARG389      0.5346
    204  NH1       17.8530    4.2870   13.8190 N.pl3 389  ARG389      0.1354
    205  NH2       20.0560    3.9800   13.2840 N.pl3 389  ARG389      0.1354
    206  N         17.1860   -7.7320   23.5950 N.3   473  ASN473     -0.1240
    207  CA        15.9740   -6.9210   23.5940 C.3   473  ASN473      0.1653
    208  C         14.8550   -7.5040   22.7240 C.2   473  ASN473      0.2266
    209  O         13.8590   -6.8260   22.4500 O.2   473  ASN473     -0.2867
    210  CB        16.2840   -5.4980   23.1090 C.3   473  ASN473      0.1155
    211  CG        16.7790   -5.4440   21.6510 C.2   473  ASN473      0.2627
    212  OD1       16.8650   -6.4650   20.9570 O.2   473  ASN473     -0.2716
    213  ND2       17.1110   -4.2380   21.1920 N.am  473  ASN473     -0.0877
    214  N         14.7830   -7.8880   19.5020 N.3   475  LYS475     -0.1245
    215  CA        14.8110   -7.5080   18.0810 C.3   475  LYS475      0.1561
    216  C         15.6500   -8.4740   17.2190 C.2   475  LYS475      0.2260
    217  O         16.5160   -9.2020   17.7280 O.2   475  LYS475     -0.2867
    218  CB        15.3350   -6.0760   17.8990 C.3   475  LYS475      0.0271
    219  CG        14.4950   -5.0220   18.5620 C.3   475  LYS475      0.0035
    220  CD        15.1930   -3.6750   18.5450 C.3   475  LYS475      0.0206
    221  CE        14.5910   -2.7400   19.5660 C.3   475  LYS475      0.1093
    222  NZ        15.1560   -1.3780   19.4800 N.3   475  LYS475     -0.1314
@<TRIPOS>BOND
     1   198   197    2
     2    67    66    1
     3   197   196    1
     4    66    65    1
     5   195   196    1
     6   196   199    1
     7   186   185    2
     8    65    64    1
     9   185   184    1
    10   132   133    1
    11   199   200    1
    12   177   178    2
    13   177   176    1
    14    64    63    1
    15   184   183    1
    16   184   187    1
    17   136   133    1
    18   136   137    1
    19   192   190   ar
    20   192   193   ar
    21   133   134    1
    22   200   201    1
    23   190   188   ar
    24   194   193    1
    25   193   191   ar
    26   176   175    1
    27   176   179    1
    28    63    60    1
    29   201   202    1
    30   135   134    2
    31   188   187    1
    32   188   189   ar
    33   202   203    2
    34   191   189   ar
    35   203   205    1
    36   203   204    1
    37    71    70    2
    38   181   180   ar
    39   179   180    1
    40    70    69    1
    41    62    61    2
    42    60    61    1
    43    60    59    1
    44    61    68   am
    45   180   182   ar
    46    68    69    1
    47    59    52   am
    48    69    72    1
    49   156   154    1
    50   174   173    1
    51   171   172    2
    52   171   170    1
    53   145   143    1
    54   138   139    1
    55   153   154    2
    56   153   152    1
    57   154   155    1
    58   144   142    1
    59    52    51    1
    60    52    53    2
    61   169   170    1
    62    72    73    1
    63   143   142    1
    64   170   173    1
    65   151   152    1
    66   151   150    1
    67    54    51    1
    68    54    55    1
    69    73    74    1
    70    73    75    1
    71    51    50    1
    72    58    56   ar
    73   142   139    1
    74    57    56   ar
    75   100    98   ar
    76   100   102   ar
    77   139   140    1
    78    56    55    1
    79   103   102    1
    80   146   147    1
    81    83    81   am
    82   216   217    2
    83   216   215    1
    84    98    97   ar
    85   147   150    1
    86   147   148    1
    87   102   101   ar
    88   140   141    2
    89   218   215    1
    90   218   219    1
    91    11    10    2
    92    50    48   am
    93    13    12    1
    94    49    48    2
    95   215   214    1
    96   160   159    2
    97    97    96    1
    98    97    99   ar
    99   101    99   ar
   100    22    21    1
   101   148   149    2
   102   159   158    1
   103    81    82    2
   104    81    80    1
   105    10     9    1
   106    12     9    1
   107   220   219    1
   108   220   221    1
   109    48    47    1
   110    96    93    1
   111   168   167    1
   112    80    77    1
   113    21    20    1
   114   167   166   ar
   115   167   165   ar
   116     9     8    1
   117   166   164   ar
   118   114   112    1
   119   222   221    1
   120   165   163   ar
   121   158   157    1
   122   158   161    1
   123    93    92    1
   124    93    94    1
   125   164   162   ar
   126    20    19    1
   127   115   113    1
   128    47    46    1
   129   163   162   ar
   130   162   161    1
   131     8     3   am
   132    92    86   am
   133   107   106    2
   134    46    44   am
   135    77    78    1
   136    77    76    1
   137   104    94   am
   138   104   105    1
   139   112   113    1
   140   112   109    1
   141    94    95    2
   142    19    18    1
   143   131   129   ar
   144   212   211    2
   145    78    79    2
   146    78    84   am
   147    86    87    2
   148    86    85    1
   149    44    45    2
   150    44    43    1
   151   213   211   am
   152   106   105    1
   153   106   108   am
   154     3     4    2
   155     3     2    1
   156   130   129   ar
   157     6     5    1
   158    84    85    1
   159   129   128    1
   160    18    15    1
   161   211   210    1
   162   109   108    1
   163   109   110    1
   164    43    42    1
   165    85    88    1
   166    14    15    1
   167     5     2    1
   168     5     7    1
   169   128   127    1
   170   209   208    2
   171     2     1    1
   172    15    16    1
   173   208   207    1
   174   127   124    1
   175   210   207    1
   176   110   116   am
   177   110   111    2
   178   116   117    1
   179    88    89    1
   180   207   206    1
   181    16    17    2
   182   123   124    1
   183   123   118   am
   184    33    31   ar
   185    33    32   ar
   186   124   125    1
   187    31    29   ar
   188    89    90    1
   189   121   120    1
   190   117   120    1
   191   117   118    1
   192   120   122    1
   193   125   126    2
   194    32    30   ar
   195   118   119    2
   196    29    28   ar
   197    30    28   ar
   198    28    27    1
   199    90    91    1
   200    40    39   ar
   201    41    39   ar
   202    27    24    1
   203    39    38    1
   204    24    25    1
   205    24    23    1
   206    34    25   am
   207    34    35    1
   208    38    35    1
   209    25    26    2
   210    35    36    1
   211    36    37    2
