@<TRIPOS>MOLECULE
tmp/5na6A01.pdb
 158 153 0 0 0
SMALL
GASTEIGER

@<TRIPOS>ATOM
      1  N         52.4640   17.9400   16.5360 N.3    95  TYR95      -0.1241
      2  CA        51.2120   18.4920   17.0370 C.3    95  TYR95       0.1605
      3  C         51.3400   19.9460   17.4580 C.2    95  TYR95       0.2264
      4  O         50.4920   20.7670   17.1080 O.2    95  TYR95      -0.2867
      5  CB        50.6980   17.6670   18.2270 C.3    95  TYR95       0.0534
      6  CG        49.3320   18.1160   18.7060 C.ar   95  TYR95      -0.0201
      7  CD1       48.1860   17.7760   18.0000 C.ar   95  TYR95      -0.0009
      8  CD2       49.1870   18.8770   19.8580 C.ar   95  TYR95      -0.0009
      9  CE1       46.9310   18.1810   18.4270 C.ar   95  TYR95       0.0417
     10  CE2       47.9340   19.2830   20.2920 C.ar   95  TYR95       0.0417
     11  CZ        46.8140   18.9250   19.5730 C.ar   95  TYR95       0.1957
     12  OH        45.5630   19.3260   19.9850 O.3    95  TYR95      -0.2866
     13  N         45.4450    0.6310   18.6340 N.3   378  TYR378     -0.1227
     14  CA        45.3970    1.5330   19.7880 C.3   378  TYR378      0.1736
     15  C         44.8630    0.8070   21.0140 C.2   378  TYR378      0.2595
     16  O         45.4320    0.8920   22.1100 O.2   378  TYR378     -0.2718
     17  CB        44.5010    2.7380   19.5050 C.3   378  TYR378      0.0548
     18  CG        45.0870    3.9100   18.7470 C.ar  378  TYR378     -0.0200
     19  CD1       46.1950    4.5880   19.2150 C.ar  378  TYR378     -0.0009
     20  CD2       44.4680    4.3870   17.6040 C.ar  378  TYR378     -0.0009
     21  CE1       46.7080    5.6950   18.5260 C.ar  378  TYR378      0.0417
     22  CE2       44.9680    5.4780   16.9130 C.ar  378  TYR378      0.0417
     23  CZ        46.0880    6.1260   17.3750 C.ar  378  TYR378      0.1957
     24  OH        46.5790    7.2150   16.6870 O.3   378  TYR378     -0.2866
     25  N         43.7400    0.0990   20.8430 N.am  379  ASN379     -0.1974
     26  CA        43.0710   -0.5240   21.9780 C.3   379  ASN379      0.1688
     27  C         43.9120   -1.6540   22.5570 C.2   379  ASN379      0.2292
     28  O         44.0680   -1.7560   23.7770 O.2   379  ASN379     -0.2864
     29  CB        41.6860   -1.0340   21.5530 C.3   379  ASN379      0.1181
     30  CG        40.6850    0.1020   21.3610 C.2   379  ASN379      0.2629
     31  OD1       40.8650    1.1980   21.8840 O.2   379  ASN379     -0.2716
     32  ND2       39.6300   -0.1650   20.6180 N.am  379  ASN379     -0.0877
     33  N         46.9700   -0.7290   24.6120 N.3   382  ALA382     -0.1245
     34  CA        46.7460   -0.1640   25.9390 C.3   382  ALA382      0.1562
     35  C         46.5400   -1.2280   27.0210 C.2   382  ALA382      0.2260
     36  O         46.6610   -0.9070   28.2060 O.2   382  ALA382     -0.2867
     37  CB        45.5340    0.7910   25.9210 C.3   382  ALA382      0.0290
     38  N         48.8380   -1.6620   30.2730 N.3   385  ASN385     -0.1240
     39  CA        49.7700   -0.5410   30.3350 C.3   385  ASN385      0.1653
     40  C         49.8320    0.1140   31.7120 C.2   385  ASN385      0.2266
     41  O         50.5610    1.1040   31.8710 O.2   385  ASN385     -0.2867
     42  CB        49.4150    0.5000   29.2690 C.3   385  ASN385      0.1155
     43  CG        48.1120    1.2370   29.5480 C.2   385  ASN385      0.2627
     44  OD1       47.3560    0.9150   30.4820 O.2   385  ASN385     -0.2716
     45  ND2       47.8210    2.2230   28.6990 N.am  385  ASN385     -0.0877
     46  N         47.2540    1.6280   33.3140 N.3   387  PHE387     -0.1227
     47  CA        46.2560    2.6730   33.5290 C.3   387  PHE387      0.1736
     48  C         45.0390    2.1380   34.2770 C.2   387  PHE387      0.2595
     49  O         44.6490    2.6710   35.3220 O.2   387  PHE387     -0.2718
     50  CB        45.8520    3.2800   32.1830 C.3   387  PHE387      0.0547
     51  CG        44.8390    4.3760   32.2930 C.ar  387  PHE387     -0.0202
     52  CD1       45.2420    5.6870   32.4640 C.ar  387  PHE387     -0.0042
     53  CD2       43.4880    4.0940   32.2350 C.ar  387  PHE387     -0.0042
     54  CE1       44.3140    6.7000   32.5560 C.ar  387  PHE387     -0.0003
     55  CE2       42.5480    5.1120   32.3270 C.ar  387  PHE387     -0.0003
     56  CZ        42.9700    6.4130   32.5050 C.ar  387  PHE387     -0.0000
     57  N         44.4070    1.0870   33.7510 N.am  388  ASN388     -0.1974
     58  CA        43.2570    0.5280   34.4610 C.3   388  ASN388      0.1688
     59  C         43.6590   -0.0540   35.8070 C.2   388  ASN388      0.2292
     60  O         42.8890    0.0220   36.7780 O.2   388  ASN388     -0.2864
     61  CB        42.5640   -0.5240   33.5900 C.3   388  ASN388      0.1181
     62  CG        41.7410    0.1130   32.4980 C.2   388  ASN388      0.2629
     63  OD1       41.4660    1.2970   32.5580 O.2   388  ASN388     -0.2716
     64  ND2       41.3380   -0.6640   31.5070 N.am  388  ASN388     -0.0877
     65  N         36.8640   -3.1910   24.8630 N.3   406  ASP406     -0.1239
     66  CA        37.1580   -2.8000   23.4850 C.3   406  ASP406      0.1674
     67  C         35.9310   -2.9700   22.5950 C.2   406  ASP406      0.2266
     68  O         35.5670   -2.0630   21.8310 O.2   406  ASP406     -0.2867
     69  CB        38.3320   -3.6260   22.9370 C.3   406  ASP406      0.1410
     70  CG        39.6510   -3.3100   23.6250 C.2   406  ASP406      0.3668
     71  OD1       39.6920   -2.3570   24.4330 O.co2 406  ASP406     -0.2456
     72  OD2       40.6470   -4.0160   23.3390 O.co2 406  ASP406     -0.2456
     73  N         33.8350    2.5040   32.1460 N.3   478  THR478     -0.1218
     74  CA        34.9090    3.3600   31.6340 C.3   478  THR478      0.1862
     75  C         34.3770    4.7310   31.2140 C.2   478  THR478      0.2287
     76  O         35.0770    5.7440   31.3690 O.2   478  THR478     -0.2866
     77  CB        35.6710    2.7030   30.4720 C.3   478  THR478      0.1770
     78  OG1       34.7910    2.4670   29.3690 O.3   478  THR478     -0.2211
     79  CG2       36.2730    1.3910   30.9110 C.3   478  THR478      0.0375
     80  N         36.0590    7.9170   33.0540 N.3   481  ASN481     -0.1240
     81  CA        36.6570    8.9450   32.2210 C.3   481  ASN481      0.1653
     82  C         35.9890   10.2980   32.4440 C.2   481  ASN481      0.2266
     83  O         36.6700   11.3190   32.6130 O.2   481  ASN481     -0.2867
     84  CB        36.5560    8.5340   30.7510 C.3   481  ASN481      0.1155
     85  CG        37.1600    9.5660   29.8320 C.2   481  ASN481      0.2627
     86  OD1       36.4470   10.2780   29.1300 O.2   481  ASN481     -0.2716
     87  ND2       38.4800    9.6440   29.8260 N.am  481  ASN481     -0.0877
     88  N         43.4720   14.1530   33.0350 N.3   487  VAL487     -0.1231
     89  CA        44.8860   14.1150   32.6620 C.3   487  VAL487      0.1692
     90  C         45.1660   14.9860   31.4480 C.2   487  VAL487      0.2591
     91  O         46.3270   15.3120   31.1820 O.2   487  VAL487     -0.2718
     92  CB        45.3770   12.6730   32.3900 C.3   487  VAL487      0.0266
     93  CG1       45.1060   11.7570   33.5860 C.3   487  VAL487      0.0020
     94  CG2       44.7630   12.1290   31.1060 C.3   487  VAL487      0.0020
     95  N         44.1340   15.3890   30.7070 N.am  488  ARG488     -0.1980
     96  CA        44.3260   16.2520   29.5440 C.3   488  ARG488      0.1597
     97  C         44.1910   17.7390   29.8570 C.2   488  ARG488      0.2287
     98  O         44.3250   18.5560   28.9410 O.2   488  ARG488     -0.2864
     99  CB        43.3220   15.8910   28.4440 C.3   488  ARG488      0.0334
    100  CG        43.3240   14.4210   28.0370 C.3   488  ARG488      0.0492
    101  CD        42.2740   14.1500   26.9480 C.3   488  ARG488      0.2205
    102  NE        42.4020   15.1250   25.8650 N.pl3 488  ARG488     -0.0865
    103  CZ        43.2970   15.0370   24.8810 C.cat 488  ARG488      0.5346
    104  NH1       44.1290   14.0010   24.8330 N.pl3 488  ARG488      0.1354
    105  NH2       43.3620   15.9770   23.9380 N.pl3 488  ARG488      0.1354
    106  N         48.7460    9.5250   37.3040 N.3   583  TYR583     -0.1241
    107  CA        48.9230    9.2220   35.8880 C.3   583  TYR583      0.1605
    108  C         50.3710    9.3860   35.4380 C.2   583  TYR583      0.2264
    109  O         50.8820    8.5640   34.6600 O.2   583  TYR583     -0.2867
    110  CB        48.0120   10.1230   35.0640 C.3   583  TYR583      0.0534
    111  CG        48.1420    9.9590   33.5620 C.ar  583  TYR583     -0.0201
    112  CD1       47.4410    8.9600   32.8930 C.ar  583  TYR583     -0.0009
    113  CD2       48.9190   10.8310   32.8140 C.ar  583  TYR583     -0.0009
    114  CE1       47.5300    8.8240   31.5150 C.ar  583  TYR583      0.0417
    115  CE2       49.0230   10.7030   31.4390 C.ar  583  TYR583      0.0417
    116  CZ        48.3140    9.7000   30.8000 C.ar  583  TYR583      0.1957
    117  OH        48.3990    9.5660   29.4350 O.3   583  TYR583     -0.2866
    118  N         53.1940    7.0060   30.4450 N.3   588  LEU588     -0.1231
    119  CA        52.4880    6.7580   29.1920 C.3   588  LEU588      0.1693
    120  C         52.7170    7.9210   28.2380 C.2   588  LEU588      0.2592
    121  O         52.5380    9.0870   28.6130 O.2   588  LEU588     -0.2718
    122  CB        50.9860    6.5740   29.4430 C.3   588  LEU588      0.0284
    123  CG        50.5990    5.4610   30.4110 C.3   588  LEU588      0.0019
    124  CD1       49.0390    5.3710   30.5710 C.3   588  LEU588      0.0001
    125  CD2       51.1510    4.1010   29.9460 C.3   588  LEU588      0.0001
    126  N         53.1110    7.6040   26.9940 N.am  589  ALA589     -0.1966
    127  CA        53.4190    8.7130   26.1050 C.3   589  ALA589      0.1713
    128  C         52.1210    9.3370   25.5990 C.2   589  ALA589      0.2458
    129  O         51.1680    8.6140   25.2850 O.2   589  ALA589     -0.2730
    130  CB        54.2810    8.2490   24.9260 C.3   589  ALA589      0.0333
    131  N         52.0520   10.6720   25.5250 N.am  590  PRO590     -0.2716
    132  CA        50.8020   11.3250   25.0780 C.3   590  PRO590      0.1536
    133  C         50.5140   11.2120   23.5910 C.2   590  PRO590      0.2599
    134  O         49.3510   11.3730   23.2000 O.2   590  PRO590     -0.2715
    135  CB        51.0110   12.7900   25.4800 C.3   590  PRO590      0.0310
    136  CG        52.5150   12.9540   25.4970 C.3   590  PRO590      0.0237
    137  CD        53.0210   11.6490   26.0550 C.3   590  PRO590      0.0939
    138  N         51.5030   10.9610   22.7370 N.am  591  TYR591     -0.1960
    139  CA        51.2550   10.8230   21.3070 C.3   591  TYR591      0.1771
    140  C         51.6870    9.4410   20.8360 C.2   591  TYR591      0.2619
    141  O         52.7190    8.9230   21.2790 O.2   591  TYR591     -0.2715
    142  CB        51.9980   11.9060   20.5090 C.3   591  TYR591      0.0574
    143  CG        51.6940   13.2880   21.0070 C.ar  591  TYR591     -0.0198
    144  CD1       50.5210   13.9300   20.6380 C.ar  591  TYR591     -0.0009
    145  CD2       52.5640   13.9440   21.8640 C.ar  591  TYR591     -0.0009
    146  CE1       50.2330   15.2170   21.1060 C.ar  591  TYR591      0.0417
    147  CE2       52.2910   15.2180   22.3390 C.ar  591  TYR591      0.0417
    148  CZ        51.1250   15.8460   21.9530 C.ar  591  TYR591      0.1957
    149  OH        50.8500   17.1080   22.4210 O.3   591  TYR591     -0.2866
    150  N         50.9060    8.8590   19.9190 N.am  592  LYS592     -0.1977
    151  CA        51.2050    7.5620   19.3210 C.3   592  LYS592      0.1596
    152  C         51.4060    7.7080   17.8190 C.2   592  LYS592      0.2287
    153  O         50.7950    8.5630   17.1740 O.2   592  LYS592     -0.2864
    154  CB        50.0660    6.5340   19.5280 C.3   592  LYS592      0.0298
    155  CG        49.4690    6.4330   20.9440 C.3   592  LYS592      0.0038
    156  CD        50.5130    6.1700   22.0020 C.3   592  LYS592      0.0206
    157  CE        49.8600    6.0420   23.3910 C.3   592  LYS592      0.1093
    158  NZ        50.8430    5.9140   24.5290 N.3   592  LYS592     -0.1314
@<TRIPOS>BOND
     1     1     2    1
     2    24    23    1
     3    22    23   ar
     4    22    20   ar
     5     2     3    1
     6     2     5    1
     7     4     3    2
     8   153   152    2
     9    23    21   ar
    10    20    18   ar
    11   152   151    1
    12     7     9   ar
    13     7     6   ar
    14     5     6    1
    15     9    11   ar
    16    21    19   ar
    17    13    14    1
    18     6     8   ar
    19    18    19   ar
    20    18    17    1
    21   151   154    1
    22   151   150    1
    23    17    14    1
    24   154   155    1
    25    11    12    1
    26    11    10   ar
    27    14    15    1
    28     8    10   ar
    29   150   140   am
    30   142   143    1
    31   142   139    1
    32    32    30   am
    33   144   143   ar
    34   144   146   ar
    35   140   141    2
    36   140   139    1
    37    25    15   am
    38    25    26    1
    39   155   156    1
    40   143   145   ar
    41    15    16    2
    42   146   148   ar
    43   139   138    1
    44    30    29    1
    45    30    31    2
    46    29    26    1
    47    68    67    2
    48   145   147   ar
    49   148   147   ar
    50   148   149    1
    51    26    27    1
    52   156   157    1
    53    27    28    2
    54    67    66    1
    55   138   133   am
    56    69    66    1
    57    69    70    1
    58   134   133    2
    59    72    70   ar
    60   157   158    1
    61    66    65    1
    62   133   132    1
    63    70    71   ar
    64   105   103    1
    65    33    34    1
    66   104   103    1
    67   103   102    2
    68   130   127    1
    69   132   135    1
    70   132   131    1
    71   129   128    2
    72   135   136    1
    73   136   137    1
    74   131   128   am
    75   131   137    1
    76   128   127    1
    77   102   101    1
    78    37    34    1
    79    34    35    1
    80   127   126    1
    81   101   100    1
    82   126   120   am
    83    35    36    2
    84   100    99    1
    85   120   121    2
    86   120   119    1
    87    99    96    1
    88    45    43   am
    89    98    97    2
    90    86    85    2
    91   119   122    1
    92   119   118    1
    93    42    43    1
    94    42    39    1
    95    78    77    1
    96   117   116    1
    97   122   123    1
    98    96    97    1
    99    96    95    1
   100    43    44    2
   101    87    85   am
   102    85    84    1
   103   125   123    1
   104    38    39    1
   105    39    40    1
   106   123   124    1
   107    77    79    1
   108    77    74    1
   109    95    90   am
   110    84    81    1
   111   116   115   ar
   112   116   114   ar
   113    94    92    1
   114    91    90    2
   115    75    76    2
   116    75    74    1
   117   115   113   ar
   118    90    89    1
   119    64    62   am
   120   114   112   ar
   121    74    73    1
   122    40    41    2
   123    50    51    1
   124    50    47    1
   125    81    82    1
   126    81    80    1
   127    53    51   ar
   128    53    55   ar
   129    51    52   ar
   130    55    56   ar
   131    92    89    1
   132    92    93    1
   133    82    83    2
   134    52    54   ar
   135    62    63    2
   136    62    61    1
   137    56    54   ar
   138    89    88    1
   139   113   111   ar
   140   112   111   ar
   141    46    47    1
   142    47    48    1
   143   111   110    1
   144    61    58    1
   145    57    48   am
   146    57    58    1
   147    48    49    2
   148    58    59    1
   149   109   108    2
   150   110   107    1
   151   108   107    1
   152    59    60    2
   153   107   106    1
