@<TRIPOS>MOLECULE
tmp/5nadA00.pdb
 225 211 0 0 0
SMALL
GASTEIGER

@<TRIPOS>ATOM
      1  N         -6.6480   35.4120   55.6060 N.3    14  LYS14      -0.1245
      2  CA        -6.8500   36.8010   55.1340 C.3    14  LYS14       0.1561
      3  C         -6.7950   36.9630   53.6150 C.2    14  LYS14       0.2260
      4  O         -6.2630   36.0930   52.8940 O.2    14  LYS14      -0.2867
      5  CB        -5.7900   37.7520   55.6700 C.3    14  LYS14       0.0271
      6  CG        -4.3860   37.3200   55.3170 C.3    14  LYS14       0.0035
      7  CD        -3.4240   38.4750   55.1250 C.3    14  LYS14       0.0206
      8  CE        -2.0200   37.8950   55.2770 C.3    14  LYS14       0.1093
      9  NZ        -0.8890   38.7260   54.7600 N.3    14  LYS14      -0.1314
     10  N         -5.5120   38.7380   50.1430 N.3    16  ILE16      -0.1231
     11  CA        -4.1210   38.9790   49.7170 C.3    16  ILE16       0.1692
     12  C         -3.9850   39.4960   48.2960 C.2    16  ILE16       0.2592
     13  O         -2.9080   39.4870   47.6910 O.2    16  ILE16      -0.2718
     14  CB        -3.2870   37.6970   49.8590 C.3    16  ILE16       0.0266
     15  CG1       -3.7500   36.6290   48.8650 C.3    16  ILE16       0.0019
     16  CG2       -3.4070   37.1670   51.2800 C.3    16  ILE16       0.0020
     17  CD1       -2.9260   35.3540   48.8910 C.3    16  ILE16       0.0001
     18  N         -5.0870   39.9610   47.7650 N.am   17  GLY17      -0.1957
     19  CA        -5.1250   40.3480   46.3750 C.3    17  GLY17       0.1869
     20  C         -6.5840   40.5340   46.0570 C.2    17  GLY17       0.2309
     21  O         -7.4620   39.8520   46.6210 O.2    17  GLY17      -0.2863
     22  N         -8.4770   37.0250   46.1600 N.3    24  VAL24      -0.1245
     23  CA        -7.6280   35.9330   46.6070 C.3    24  VAL24       0.1561
     24  C         -7.5040   35.9380   48.1330 C.2    24  VAL24       0.2260
     25  O         -7.3260   36.9900   48.7140 O.2    24  VAL24      -0.2867
     26  CB        -6.2050   36.1120   46.0880 C.3    24  VAL24       0.0252
     27  CG1       -5.6140   37.3820   46.6680 C.3    24  VAL24       0.0019
     28  CG2       -5.3410   34.9130   46.4390 C.3    24  VAL24       0.0019
     29  N         -5.3420   34.0170   51.4470 N.3    26  GLN26      -0.1245
     30  CA        -4.5820   33.0470   52.2370 C.3    26  GLN26       0.1566
     31  C         -5.5780   32.3370   53.1470 C.2    26  GLN26       0.2260
     32  O         -6.5190   32.9660   53.5410 O.2    26  GLN26      -0.2867
     33  CB        -3.5320   33.7880   53.0370 C.3    26  GLN26       0.0367
     34  CG        -2.5990   32.9390   53.8740 C.3    26  GLN26       0.0905
     35  CD        -1.5900   33.8270   54.5720 C.2    26  GLN26       0.2608
     36  OE1       -1.9440   34.8860   55.1000 O.2    26  GLN26      -0.2717
     37  NE2       -0.3300   33.4430   54.5360 N.am   26  GLN26      -0.0878
     38  N         -3.7350   29.4750   48.9690 N.3    36  ALA36      -0.1245
     39  CA        -4.4370   30.6290   48.4030 C.3    36  ALA36       0.1562
     40  C         -5.6970   30.1120   47.7970 C.2    36  ALA36       0.2260
     41  O         -5.7750   28.9570   47.4930 O.2    36  ALA36      -0.2867
     42  CB        -3.6010   31.2940   47.3450 C.3    36  ALA36       0.0290
     43  N         -8.6170   31.5500   45.0350 N.3    38  LYS38      -0.1245
     44  CA        -9.1140   32.6400   44.2110 C.3    38  LYS38       0.1561
     45  C        -10.5770   32.3730   44.1000 C.2    38  LYS38       0.2260
     46  O        -10.9880   31.2480   43.9130 O.2    38  LYS38      -0.2867
     47  CB        -8.4830   32.6750   42.8480 C.3    38  LYS38       0.0271
     48  CG        -8.9550   33.8510   42.0350 C.3    38  LYS38       0.0035
     49  CD        -8.2650   33.8910   40.6790 C.3    38  LYS38       0.0206
     50  CE        -8.7480   35.0540   39.8410 C.3    38  LYS38       0.1093
     51  NZ        -8.0570   35.0700   38.5200 N.3    38  LYS38      -0.1314
     52  N         -8.3910   30.6960   31.4510 N.3    56  GLU56      -0.1245
     53  CA        -7.3160   30.6930   32.4450 C.3    56  GLU56       0.1567
     54  C         -7.2840   29.3440   33.2050 C.2    56  GLU56       0.2260
     55  O         -6.2250   28.7800   33.4410 O.2    56  GLU56      -0.2867
     56  CB        -7.5070   31.8730   33.4050 C.3    56  GLU56       0.0388
     57  CG        -6.3040   32.2660   34.2450 C.3    56  GLU56       0.1160
     58  CD        -6.6710   33.2260   35.3900 C.2    56  GLU56       0.3649
     59  OE1       -7.6310   32.9310   36.1680 O.co2  56  GLU56      -0.2457
     60  OE2       -5.9910   34.2860   35.5140 O.co2  56  GLU56      -0.2457
     61  N         -4.1700   26.9220   33.1200 N.3    60  LEU60      -0.1245
     62  CA        -3.5350   26.6560   34.3900 C.3    60  LEU60       0.1561
     63  C         -3.5940   25.1600   34.6350 C.2    60  LEU60       0.2260
     64  O         -2.6680   24.5280   35.1040 O.2    60  LEU60      -0.2867
     65  CB        -4.2610   27.3680   35.4970 C.3    60  LEU60       0.0270
     66  CG        -3.5870   27.2320   36.8700 C.3    60  LEU60       0.0019
     67  CD1       -2.1100   27.6240   36.8680 C.3    60  LEU60       0.0001
     68  CD2       -4.3750   28.0660   37.8700 C.3    60  LEU60       0.0001
     69  N          2.5410   28.3150   39.2560 N.3    71  ILE71      -0.1245
     70  CA         1.8820   28.1340   40.4750 C.3    71  ILE71       0.1561
     71  C          1.0170   26.8530   40.4560 C.2    71  ILE71       0.2260
     72  O          0.4250   26.5210   39.4420 O.2    71  ILE71      -0.2867
     73  CB         1.1420   29.4300   40.7310 C.3    71  ILE71       0.0252
     74  CG1        0.6200   29.4220   42.1330 C.3    71  ILE71       0.0019
     75  CG2        0.0910   29.6470   39.6320 C.3    71  ILE71       0.0019
     76  CD1        0.2290   30.7940   42.5530 C.3    71  ILE71       0.0001
     77  N        -10.7270   28.6400   43.0110 N.3    85  MET85      -0.1245
     78  CA        -9.5460   27.8990   42.7290 C.3    85  MET85       0.1570
     79  C         -8.7010   27.7800   43.9910 C.2    85  MET85       0.2261
     80  O         -8.2440   28.7880   44.5250 O.2    85  MET85      -0.2867
     81  CB        -8.7220   28.6640   41.7070 C.3    85  MET85       0.0387
     82  CG        -9.4730   29.0530   40.4510 C.3    85  MET85       0.0595
     83  SD        -8.2760   29.5810   39.2020 S.3    85  MET85      -0.1393
     84  CE        -9.2150   30.9020   38.4170 C.3    85  MET85       0.0692
     85  N         -5.1760   27.0720   45.3110 N.3    87  MET87      -0.1230
     86  CA        -3.8020   27.0580   44.7750 C.3    87  MET87       0.1702
     87  C         -2.7340   26.9860   45.8570 C.2    87  MET87       0.2592
     88  O         -3.0520   26.7890   47.0130 O.2    87  MET87      -0.2718
     89  CB        -3.5920   28.2960   43.9330 C.3    87  MET87       0.0401
     90  CG        -4.7420   28.4960   42.9640 C.3    87  MET87       0.0596
     91  SD        -4.6170   29.9700   41.9700 S.3    87  MET87      -0.1393
     92  CE        -3.1760   29.4920   41.0450 C.3    87  MET87       0.0692
     93  N         -1.4770   27.1070   45.4410 N.am   88  GLU88      -0.1966
     94  CA        -0.2820   27.1330   46.2750 C.3    88  GLU88       0.1733
     95  C         -0.2360   28.5200   46.9220 C.2    88  GLU88       0.2616
     96  O         -0.6630   29.4920   46.2960 O.2    88  GLU88      -0.2715
     97  CB         0.9110   27.0300   45.3190 C.3    88  GLU88       0.0429
     98  CG         2.2390   26.4760   45.7920 C.3    88  GLU88       0.1163
     99  CD         3.2800   26.3960   44.6390 C.2    88  GLU88       0.3649
    100  OE1        2.8790   26.3640   43.4400 O.co2  88  GLU88      -0.2457
    101  OE2        4.5120   26.3540   44.9130 O.co2  88  GLU88      -0.2457
    102  N          0.2820   28.6180   48.1540 N.am   89  CYS89      -0.1954
    103  CA         0.5660   29.9130   48.7840 C.3    89  CYS89       0.1843
    104  C          2.0490   30.1350   48.8230 C.2    89  CYS89       0.2626
    105  O          2.8290   29.3060   49.2990 O.2    89  CYS89      -0.2714
    106  CB        -0.0040   30.0470   50.2220 C.3    89  CYS89       0.0997
    107  SG         0.0600   31.7580   50.8820 S.3    89  CYS89      -0.0797
    108  N          2.4470   31.2760   48.3150 N.am   90  GLY90      -0.1940
    109  CA         3.8440   31.5800   48.2910 C.3    90  GLY90       0.2014
    110  C          4.1210   32.2930   49.5670 C.2    90  GLY90       0.2639
    111  O          3.2230   32.8830   50.1440 O.2    90  GLY90      -0.2714
    112  N          5.3710   32.2340   49.9950 N.am   91  ASN91      -0.1958
    113  CA         5.8440   33.0830   51.0600 C.3    91  ASN91       0.1819
    114  C          5.5740   34.5270   50.7060 C.2    91  ASN91       0.2621
    115  O          4.8000   35.2040   51.3690 O.2    91  ASN91      -0.2715
    116  CB         7.3330   32.8470   51.2940 C.3    91  ASN91       0.1195
    117  CG         7.6120   31.4330   51.7620 C.2    91  ASN91       0.2630
    118  OD1        6.7150   30.7570   52.2510 O.2    91  ASN91      -0.2716
    119  ND2        8.8370   30.9690   51.5960 N.am   91  ASN91      -0.0877
    120  N          6.1890   34.9990   49.6430 N.am   92  ILE92      -0.1963
    121  CA         6.1210   36.4070   49.3360 C.3    92  ILE92       0.1727
    122  C          6.1330   36.5990   47.8340 C.2    92  ILE92       0.2616
    123  O          6.8300   35.8620   47.1180 O.2    92  ILE92      -0.2715
    124  CB         7.3640   37.1470   49.8850 C.3    92  ILE92       0.0290
    125  CG1        7.7020   36.7150   51.3170 C.3    92  ILE92       0.0022
    126  CG2        7.1710   38.6650   49.8320 C.3    92  ILE92       0.0023
    127  CD1        9.0570   37.2030   51.8190 C.3    92  ILE92       0.0001
    128  N          5.4310   37.6300   47.3610 N.am   93  ASP93      -0.1971
    129  CA         5.5590   38.0040   45.9480 C.3    93  ASP93       0.1709
    130  C          6.8650   38.6900   45.7410 C.2    93  ASP93       0.2293
    131  O          7.5510   39.0450   46.6750 O.2    93  ASP93      -0.2864
    132  CB         4.4010   38.8500   45.3980 C.3    93  ASP93       0.1436
    133  CG         4.3570   40.2290   45.9550 C.2    93  ASP93       0.3671
    134  OD1        5.0340   40.4330   46.9730 O.co2  93  ASP93      -0.2456
    135  OD2        3.6300   41.0920   45.3880 O.co2  93  ASP93      -0.2456
    136  N          5.3540   41.8840   35.1800 N.3   134  LYS134     -0.1245
    137  CA         5.8530   42.8030   36.1700 C.3   134  LYS134      0.1561
    138  C          6.2480   41.9270   37.3260 C.2   134  LYS134      0.2260
    139  O          5.9800   40.7370   37.3280 O.2   134  LYS134     -0.2867
    140  CB         4.7710   43.7770   36.6270 C.3   134  LYS134      0.0271
    141  CG         3.9350   44.3400   35.4830 C.3   134  LYS134      0.0035
    142  CD         2.8930   45.3390   35.9550 C.3   134  LYS134      0.0206
    143  CE         1.9950   44.7680   37.0470 C.3   134  LYS134      0.1093
    144  NZ         1.4500   43.4110   36.7390 N.3   134  LYS134     -0.1314
    145  N          5.0960   41.7190   40.3420 N.3   136  ALA136     -0.1231
    146  CA         3.9740   41.1080   41.0460 C.3   136  ALA136      0.1694
    147  C          3.6370   39.7190   40.4850 C.2   136  ALA136      0.2592
    148  O          3.2140   38.8530   41.2480 O.2   136  ALA136     -0.2718
    149  CB         2.7420   42.0040   40.9730 C.3   136  ALA136      0.0304
    150  N          3.8220   39.4920   39.1740 N.am  137  ASN137     -0.1974
    151  CA         3.3850   38.2160   38.5480 C.3   137  ASN137      0.1688
    152  C          4.1810   36.9910   38.9580 C.2   137  ASN137      0.2292
    153  O          3.8130   35.8670   38.5940 O.2   137  ASN137     -0.2864
    154  CB         3.4320   38.3020   37.0350 C.3   137  ASN137      0.1181
    155  CG         2.6680   39.4790   36.5210 C.2   137  ASN137      0.2629
    156  OD1        3.2350   40.3930   35.9090 O.2   137  ASN137     -0.2716
    157  ND2        1.3930   39.5050   36.8110 N.am  137  ASN137     -0.0877
    158  N          6.6620   35.1200   42.2520 N.3   139  LEU139     -0.1245
    159  CA         6.2770   34.6830   43.5460 C.3   139  LEU139      0.1561
    160  C          7.2640   33.6850   44.0790 C.2   139  LEU139      0.2260
    161  O          7.5740   32.7100   43.4080 O.2   139  LEU139     -0.2867
    162  CB         4.9330   34.0010   43.4410 C.3   139  LEU139      0.0270
    163  CG         4.3450   33.5930   44.7650 C.3   139  LEU139      0.0019
    164  CD1        3.5090   34.7520   45.2710 C.3   139  LEU139      0.0001
    165  CD2        3.5000   32.3310   44.5940 C.3   139  LEU139      0.0001
    166  N          2.6530   33.2330   38.3700 N.3   148  ILE148     -0.1231
    167  CA         1.3750   33.0770   39.0720 C.3   148  ILE148      0.1692
    168  C          0.2670   33.0640   38.0590 C.2   148  ILE148      0.2592
    169  O         -0.7470   32.4710   38.2730 O.2   148  ILE148     -0.2718
    170  CB         1.0900   34.3420   39.9120 C.3   148  ILE148      0.0266
    171  CG1        2.0550   34.5010   41.0420 C.3   148  ILE148      0.0019
    172  CG2       -0.2430   34.3070   40.5990 C.3   148  ILE148      0.0020
    173  CD1        1.7930   35.8220   41.7390 C.3   148  ILE148      0.0001
    174  N          0.4100   33.8190   36.9820 N.am  149  ASP149     -0.1960
    175  CA        -0.7200   34.0770   36.0660 C.3   149  ASP149      0.1840
    176  C         -0.2420   34.1250   34.6170 C.2   149  ASP149      0.2622
    177  O          0.9590   34.1430   34.3720 O.2   149  ASP149     -0.2715
    178  CB        -1.4430   35.3910   36.4500 C.3   149  ASP149      0.1450
    179  CG        -0.5230   36.6280   36.4570 C.2   149  ASP149      0.3671
    180  OD1        0.7420   36.5000   36.4890 O.co2 149  ASP149     -0.2456
    181  OD2       -1.1150   37.7460   36.4500 O.co2 149  ASP149     -0.2456
    182  N         -1.1570   34.1720   33.6570 N.am  150  PHE150     -0.1974
    183  CA        -0.7500   34.0950   32.2520 C.3   150  PHE150      0.1639
    184  C         -1.0570   35.2740   31.3840 C.2   150  PHE150      0.2290
    185  O         -0.6380   35.2770   30.2260 O.2   150  PHE150     -0.2864
    186  CB        -1.4400   32.9310   31.6200 C.3   150  PHE150      0.0560
    187  CG        -1.3570   31.7120   32.4220 C.ar  150  PHE150     -0.0200
    188  CD1       -0.1330   31.1840   32.7200 C.ar  150  PHE150     -0.0042
    189  CD2       -2.4970   31.1030   32.8820 C.ar  150  PHE150     -0.0042
    190  CE1       -0.0320   30.0490   33.4700 C.ar  150  PHE150     -0.0003
    191  CE2       -2.4080   29.9520   33.6190 C.ar  150  PHE150     -0.0003
    192  CZ        -1.1670   29.4310   33.9240 C.ar  150  PHE150     -0.0000
    193  N         -6.3110   40.9800   35.5430 N.3   155  GLN155     -0.1231
    194  CA        -5.7570   40.4250   36.7420 C.3   155  GLN155      0.1698
    195  C         -5.8690   41.3160   37.9430 C.2   155  GLN155      0.2592
    196  O         -6.1790   42.4850   37.8650 O.2   155  GLN155     -0.2718
    197  CB        -4.3140   39.9680   36.5310 C.3   155  GLN155      0.0381
    198  CG        -4.0460   38.5150   36.9260 C.3   155  GLN155      0.0905
    199  CD        -5.2010   37.5930   36.6410 C.2   155  GLN155      0.2608
    200  OE1       -6.1670   37.5520   37.3850 O.2   155  GLN155     -0.2717
    201  NE2       -5.1030   36.8460   35.5620 N.am  155  GLN155     -0.0878
    202  N         -5.6350   40.6710   39.0430 N.am  156  MET156     -0.1965
    203  CA        -5.7530   41.3130   40.2900 C.3   156  MET156      0.1736
    204  C         -4.5300   42.1550   40.3670 C.2   156  MET156      0.2616
    205  O         -3.7340   42.1820   39.4430 O.2   156  MET156     -0.2715
    206  CB        -5.7010   40.2650   41.3790 C.3   156  MET156      0.0427
    207  CG        -6.8820   39.3230   41.4080 C.3   156  MET156      0.0599
    208  SD        -6.6000   38.1210   42.6870 S.3   156  MET156     -0.1393
    209  CE        -8.2040   37.3340   42.7660 C.3   156  MET156      0.0692
    210  N         -4.3960   42.8550   41.5060 N.am  157  GLN157     -0.1964
    211  CA        -3.1610   43.4840   41.8750 C.3   157  GLN157      0.1718
    212  C         -3.1300   43.2020   43.3340 C.2   157  GLN157      0.2458
    213  O         -4.1630   43.1090   43.9500 O.2   157  GLN157     -0.2730
    214  CB        -3.2210   44.9720   41.6180 C.3   157  GLN157      0.0407
    215  CG        -4.0840   45.3430   40.4310 C.3   157  GLN157      0.0908
    216  CD        -3.9570   46.8030   40.0580 C.2   157  GLN157      0.2608
    217  OE1       -4.1050   47.6910   40.9020 O.2   157  GLN157     -0.2717
    218  NE2       -3.6790   47.0610   38.7870 N.am  157  GLN157     -0.0878
    219  N         -1.9640   43.0300   43.9030 N.am  158  PRO158     -0.2727
    220  CA        -1.9300   42.6980   45.3480 C.3   158  PRO158      0.1402
    221  C         -2.7750   43.6110   46.2630 C.2   158  PRO158      0.2269
    222  O         -3.2470   44.6500   45.8130 O.2   158  PRO158     -0.2865
    223  CB        -0.4500   42.8320   45.6960 C.3   158  PRO158      0.0296
    224  CG         0.2450   42.4770   44.4210 C.3   158  PRO158      0.0237
    225  CD        -0.6320   42.9470   43.2870 C.3   158  PRO158      0.0939
@<TRIPOS>BOND
     1   185   184    2
     2   184   183    1
     3    52    53    1
     4   186   183    1
     5   186   187    1
     6   183   182    1
     7   187   188   ar
     8   187   189   ar
     9    53    54    1
    10    53    56    1
    11   188   190   ar
    12   189   191   ar
    13    61    62    1
    14    54    55    2
    15    56    57    1
    16   190   192   ar
    17   191   192   ar
    18   182   176   am
    19    57    58    1
    20   177   176    2
    21    62    63    1
    22    62    65    1
    23   176   175    1
    24    63    64    2
    25   136   137    1
    26    58    60   ar
    27    58    59   ar
    28   141   142    1
    29   141   140    1
    30    65    66    1
    31   193   194    1
    32   201   199   am
    33   156   155    2
    34   142   143    1
    35   175   178    1
    36   175   174    1
    37   137   140    1
    38   137   138    1
    39   178   179    1
    40   181   179   ar
    41   179   180   ar
    42   155   157   am
    43   155   154    1
    44   197   194    1
    45   197   198    1
    46   199   198    1
    47   199   200    2
    48   144   143    1
    49   194   195    1
    50    67    66    1
    51    66    68    1
    52   174   168   am
    53   154   151    1
    54   138   139    2
    55   196   195    2
    56   195   202   am
    57   168   169    2
    58   168   167    1
    59   166   167    1
    60    84    83    1
    61    51    50    1
    62   151   152    1
    63   151   150    1
    64   153   152    2
    65   218   216   am
    66   202   203    1
    67   167   170    1
    68   150   147   am
    69    83    82    1
    70    69    70    1
    71    72    71    2
    72   205   204    2
    73    75    73    1
    74    50    49    1
    75   170   172    1
    76   170   171    1
    77   216   215    1
    78   216   217    2
    79   203   204    1
    80   203   206    1
    81   145   146    1
    82   204   210   am
    83   215   214    1
    84    82    81    1
    85    71    70    1
    86    70    73    1
    87   147   146    1
    88   147   148    2
    89    49    48    1
    90    73    74    1
    91   149   146    1
    92   171   173    1
    93    92    91    1
    94   206   207    1
    95   207   208    1
    96   210   211    1
    97   214   211    1
    98    81    78    1
    99   211   212    1
   100    91    90    1
   101    48    47    1
   102    74    76    1
   103   158   159    1
   104   208   209    1
   105    78    77    1
   106    78    79    1
   107    47    44    1
   108    90    89    1
   109   225   219    1
   110   225   224    1
   111   212   219   am
   112   212   213    2
   113   161   160    2
   114   100    99   ar
   115   162   159    1
   116   162   163    1
   117   159   160    1
   118   219   220    1
   119    46    45    2
   120    89    86    1
   121    79    80    2
   122    45    44    1
   123    44    43    1
   124   224   223    1
   125   165   163    1
   126    99   101   ar
   127    99    98    1
   128   163   164    1
   129    86    85    1
   130    86    87    1
   131    97    98    1
   132    97    94    1
   133   220   223    1
   134   220   221    1
   135   135   133   ar
   136   132   129    1
   137   132   133    1
   138    93    87   am
   139    93    94    1
   140   130   129    1
   141   130   131    2
   142   222   221    2
   143    87    88    2
   144   129   128    1
   145   133   134   ar
   146    20    19    1
   147    20    21    2
   148    26    28    1
   149    26    23    1
   150    26    27    1
   151    22    23    1
   152    94    95    1
   153    96    95    2
   154    19    18    1
   155    23    24    1
   156    95   102   am
   157   123   122    2
   158    42    39    1
   159   128   122   am
   160    41    40    2
   161    13    12    2
   162    18    12   am
   163    40    39    1
   164   122   121    1
   165    24    25    2
   166   102   103    1
   167   109   108    1
   168   109   110    1
   169    12    11    1
   170   108   104   am
   171    39    38    1
   172   103   104    1
   173   103   106    1
   174   104   105    2
   175    15    17    1
   176    15    14    1
   177   121   120    1
   178   121   124    1
   179   110   112   am
   180   110   111    2
   181   120   114   am
   182    11    14    1
   183    11    10    1
   184   126   124    1
   185    14    16    1
   186   124   125    1
   187   112   113    1
   188   106   107    1
   189   114   113    1
   190   114   115    2
   191   113   116    1
   192   116   117    1
   193   125   127    1
   194    29    30    1
   195   119   117   am
   196   117   118    2
   197    30    33    1
   198    30    31    1
   199     4     3    2
   200    33    34    1
   201    31    32    2
   202     3     2    1
   203    34    35    1
   204    37    35   am
   205    35    36    2
   206     9     8    1
   207     7     8    1
   208     7     6    1
   209     2     1    1
   210     2     5    1
   211     6     5    1
