@<TRIPOS>MOLECULE
tmp/5naeA01.pdb
 206 194 0 0 0
SMALL
GASTEIGER

@<TRIPOS>ATOM
      1  N         14.1840  -38.6980   55.3450 N.3    48  ASN48      -0.1225
      2  CA        13.6140  -37.3750   55.6320 C.3    48  ASN48       0.1785
      3  C         12.3170  -37.1860   54.8850 C.2    48  ASN48       0.2597
      4  O         12.1970  -37.5760   53.7190 O.2    48  ASN48      -0.2718
      5  CB        14.5750  -36.2670   55.1990 C.3    48  ASN48       0.1169
      6  CG        15.6430  -35.9990   56.2010 C.2    48  ASN48       0.2627
      7  OD1       16.8270  -36.1910   55.9230 O.2    48  ASN48      -0.2716
      8  ND2       15.2450  -35.5540   57.3950 N.am   48  ASN48      -0.0877
      9  N         11.3850  -36.4890   55.5300 N.am   49  LEU49      -0.1966
     10  CA        10.0860  -36.1500   54.9720 C.3    49  LEU49       0.1728
     11  C          9.8880  -34.6340   55.0710 C.2    49  LEU49       0.2616
     12  O         10.3130  -33.9990   56.0570 O.2    49  LEU49      -0.2715
     13  CB         8.9880  -36.8180   55.8020 C.3    49  LEU49       0.0311
     14  CG         9.0610  -38.3420   56.0250 C.3    49  LEU49       0.0022
     15  CD1        8.5590  -38.7090   57.3910 C.3    49  LEU49       0.0001
     16  CD2        8.2390  -39.0480   55.0350 C.3    49  LEU49       0.0001
     17  N          9.1760  -34.0780   54.0960 N.am   50  ALA50      -0.1977
     18  CA         8.8110  -32.6730   54.0850 C.3    50  ALA50       0.1597
     19  C          7.4000  -32.5560   54.6880 C.2    50  ALA50       0.2287
     20  O          6.4300  -33.0780   54.1300 O.2    50  ALA50      -0.2864
     21  CB         8.8480  -32.1190   52.6570 C.3    50  ALA50       0.0319
     22  N         13.0950  -23.5930   47.4210 N.3    78  ARG78      -0.1245
     23  CA        13.6910  -24.5570   46.5160 C.3    78  ARG78       0.1563
     24  C         15.0490  -24.0490   46.0110 C.2    78  ARG78       0.2260
     25  O         15.0910  -23.0550   45.2790 O.2    78  ARG78      -0.2867
     26  CB        12.7100  -24.7550   45.3450 C.3    78  ARG78       0.0307
     27  CG        13.1730  -25.6270   44.2200 C.3    78  ARG78       0.0489
     28  CD        12.3430  -25.3660   42.9840 C.3    78  ARG78       0.2205
     29  NE        11.1190  -26.1630   42.9310 N.pl3  78  ARG78      -0.0865
     30  CZ        10.2510  -26.1230   41.9260 C.cat  78  ARG78       0.5346
     31  NH1        9.1670  -26.8880   41.9480 N.pl3  78  ARG78       0.1354
     32  NH2       10.4650  -25.3280   40.8840 N.pl3  78  ARG78       0.1354
     33  N          9.5490  -20.4150   48.8470 N.3    92  TYR92      -0.1241
     34  CA         8.3010  -21.1660   48.7150 C.3    92  TYR92       0.1605
     35  C          7.0940  -20.3150   49.0030 C.2    92  TYR92       0.2264
     36  O          6.0360  -20.5290   48.4190 O.2    92  TYR92      -0.2867
     37  CB         8.2870  -22.4040   49.6510 C.3    92  TYR92       0.0534
     38  CG         8.9990  -23.6120   49.0970 C.ar   92  TYR92      -0.0201
     39  CD1        8.8370  -23.9920   47.7680 C.ar   92  TYR92      -0.0009
     40  CD2        9.7720  -24.4280   49.9190 C.ar   92  TYR92      -0.0009
     41  CE1        9.4880  -25.1110   47.2500 C.ar   92  TYR92       0.0417
     42  CE2       10.4490  -25.5370   49.4070 C.ar   92  TYR92       0.0417
     43  CZ        10.2800  -25.8900   48.0800 C.ar   92  TYR92       0.1957
     44  OH        10.9080  -26.9930   47.5700 O.3    92  TYR92      -0.2866
     45  N          8.3180  -25.2070   54.6270 N.3   100  ILE100     -0.1245
     46  CA         8.1500  -26.6480   54.8300 C.3   100  ILE100      0.1561
     47  C          9.2290  -27.0920   55.7870 C.2   100  ILE100      0.2260
     48  O         10.2610  -26.4330   55.9110 O.2   100  ILE100     -0.2867
     49  CB         8.0620  -27.5060   53.5440 C.3   100  ILE100      0.0252
     50  CG1        9.1940  -27.2180   52.5760 C.3   100  ILE100      0.0019
     51  CG2        6.6990  -27.3250   52.9010 C.3   100  ILE100      0.0019
     52  CD1        9.2960  -28.3160   51.3310 C.3   100  ILE100      0.0001
     53  N         14.1070  -45.1460   42.7310 N.3   187  TYR187     -0.1241
     54  CA        14.8250  -44.1600   43.5230 C.3   187  TYR187      0.1605
     55  C         15.8950  -44.8130   44.3560 C.2   187  TYR187      0.2264
     56  O         15.7500  -45.9660   44.7690 O.2   187  TYR187     -0.2867
     57  CB        13.9040  -43.2290   44.3560 C.3   187  TYR187      0.0534
     58  CG        13.2730  -43.8830   45.5650 C.ar  187  TYR187     -0.0201
     59  CD1       13.9180  -43.8860   46.7990 C.ar  187  TYR187     -0.0009
     60  CD2       12.0340  -44.5060   45.4740 C.ar  187  TYR187     -0.0009
     61  CE1       13.3490  -44.5010   47.9100 C.ar  187  TYR187      0.0417
     62  CE2       11.4390  -45.0930   46.5890 C.ar  187  TYR187      0.0417
     63  CZ        12.1130  -45.1090   47.7970 C.ar  187  TYR187      0.1957
     64  OH        11.5510  -45.6850   48.8980 O.3   187  TYR187     -0.2866
     65  N         18.5920  -43.7400   47.7210 N.3   189  GLU189     -0.1245
     66  CA        18.9960  -42.7940   48.7760 C.3   189  GLU189      0.1567
     67  C         20.5120  -42.7990   48.9450 C.2   189  GLU189      0.2260
     68  O         21.1340  -43.8600   48.9660 O.2   189  GLU189     -0.2867
     69  CB        18.3290  -43.1350   50.1080 C.3   189  GLU189      0.0388
     70  CG        16.8520  -42.8470   50.0870 C.3   189  GLU189      0.1160
     71  CD        16.0810  -43.5060   51.2090 C.2   189  GLU189      0.3649
     72  OE1       14.8700  -43.2200   51.2830 O.co2 189  GLU189     -0.2457
     73  OE2       16.6450  -44.3220   51.9790 O.co2 189  GLU189     -0.2457
     74  N         15.1810  -26.9280   50.4170 N.3   207  LEU207     -0.1245
     75  CA        15.0420  -28.2100   49.7450 C.3   207  LEU207      0.1561
     76  C         15.8640  -28.0440   48.4620 C.2   207  LEU207      0.2260
     77  O         15.6480  -27.0960   47.7080 O.2   207  LEU207     -0.2867
     78  CB        13.5690  -28.5080   49.4230 C.3   207  LEU207      0.0270
     79  CG        13.2770  -29.9290   48.9460 C.3   207  LEU207      0.0019
     80  CD1       11.9210  -30.3460   49.3510 C.3   207  LEU207      0.0001
     81  CD2       13.3550  -30.0230   47.3980 C.3   207  LEU207      0.0001
     82  N         17.4100  -29.1610   44.7140 N.3   209  ILE209     -0.1245
     83  CA        17.0990  -29.9140   43.4960 C.3   209  ILE209      0.1561
     84  C         18.2370  -29.8010   42.4800 C.2   209  ILE209      0.2260
     85  O         18.7370  -28.7010   42.2100 O.2   209  ILE209     -0.2867
     86  CB        15.7400  -29.5000   42.8310 C.3   209  ILE209      0.0252
     87  CG1       14.5420  -29.5520   43.8100 C.3   209  ILE209      0.0019
     88  CG2       15.4460  -30.3820   41.6080 C.3   209  ILE209      0.0019
     89  CD1       13.3060  -28.8640   43.2650 C.3   209  ILE209      0.0001
     90  N         16.6490  -36.7650   38.0460 N.3   216  MET216     -0.1245
     91  CA        17.0110  -35.6630   38.9410 C.3   216  MET216      0.1570
     92  C         17.4170  -36.1930   40.3080 C.2   216  MET216      0.2261
     93  O         17.1090  -37.3340   40.6580 O.2   216  MET216     -0.2867
     94  CB        15.8090  -34.7020   39.1170 C.3   216  MET216      0.0387
     95  CG        14.6050  -35.3380   39.8230 C.3   216  MET216      0.0595
     96  SD        13.3660  -34.0900   40.2620 S.3   216  MET216     -0.1393
     97  CE        12.1810  -35.1240   41.0470 C.3   216  MET216      0.0692
     98  N         17.3240  -34.8370   44.5500 N.3   218  ILE218     -0.1245
     99  CA        16.7950  -33.8740   45.5360 C.3   218  ILE218      0.1561
    100  C         17.5530  -34.1350   46.8350 C.2   218  ILE218      0.2260
    101  O         18.0420  -35.2540   47.0520 O.2   218  ILE218     -0.2867
    102  CB        15.2500  -33.9630   45.7260 C.3   218  ILE218      0.0252
    103  CG1       14.8260  -35.3110   46.3780 C.3   218  ILE218      0.0019
    104  CG2       14.5050  -33.7220   44.4030 C.3   218  ILE218      0.0019
    105  CD1       13.5700  -35.2610   47.0020 C.3   218  ILE218      0.0001
    106  N         17.2300  -33.2580   51.2100 N.3   220  LEU220     -0.1245
    107  CA        16.5470  -32.6920   52.3790 C.3   220  LEU220      0.1561
    108  C         17.5530  -32.6840   53.5620 C.2   220  LEU220      0.2260
    109  O         18.2990  -33.6340   53.7770 O.2   220  LEU220     -0.2867
    110  CB        15.2890  -33.5220   52.7420 C.3   220  LEU220      0.0270
    111  CG        13.9790  -33.1640   51.9970 C.3   220  LEU220      0.0019
    112  CD1       13.9880  -33.6370   50.5620 C.3   220  LEU220      0.0001
    113  CD2       12.7840  -33.7680   52.6890 C.3   220  LEU220      0.0001
    114  N         18.1140  -38.0520   47.2910 N.3   230  THR230     -0.1218
    115  CA        17.3500  -39.0730   46.5800 C.3   230  THR230      0.1862
    116  C         17.5640  -38.8840   45.0790 C.2   230  THR230      0.2287
    117  O         17.2750  -37.8120   44.5560 O.2   230  THR230     -0.2866
    118  CB        15.8580  -39.0980   46.9580 C.3   230  THR230      0.1770
    119  OG1       15.7200  -39.2130   48.3880 O.3   230  THR230     -0.2211
    120  CG2       15.1140  -40.2230   46.2470 C.3   230  THR230      0.0375
    121  N         16.2830  -39.9120   41.4370 N.3   232  PHE232     -0.1241
    122  CA        15.1170  -40.4250   40.6950 C.3   232  PHE232      0.1605
    123  C         15.5990  -40.6970   39.2830 C.2   232  PHE232      0.2264
    124  O         16.0670  -39.7900   38.6180 O.2   232  PHE232     -0.2867
    125  CB        13.9620  -39.4090   40.7080 C.3   232  PHE232      0.0534
    126  CG        13.3360  -39.2510   42.0820 C.ar  232  PHE232     -0.0203
    127  CD1       12.5080  -40.2320   42.6000 C.ar  232  PHE232     -0.0042
    128  CD2       13.6000  -38.1310   42.8620 C.ar  232  PHE232     -0.0042
    129  CE1       11.9160  -40.0800   43.8600 C.ar  232  PHE232     -0.0003
    130  CE2       13.0180  -37.9830   44.1300 C.ar  232  PHE232     -0.0003
    131  CZ        12.1790  -38.9540   44.6190 C.ar  232  PHE232     -0.0000
    132  N          7.9930  -46.6520   42.6240 N.3   286  LEU286     -0.1245
    133  CA         6.9990  -45.5810   42.7250 C.3   286  LEU286      0.1561
    134  C          5.7740  -45.9880   41.9210 C.2   286  LEU286      0.2260
    135  O          5.8870  -46.6360   40.8690 O.2   286  LEU286     -0.2867
    136  CB         7.5720  -44.2660   42.1570 C.3   286  LEU286      0.0270
    137  CG         8.8850  -43.7760   42.7530 C.3   286  LEU286      0.0019
    138  CD1        9.3140  -42.4810   42.0750 C.3   286  LEU286      0.0001
    139  CD2        8.7850  -43.5690   44.2810 C.3   286  LEU286      0.0001
    140  N          5.8420  -39.4950   44.5880 N.3   312  PRO312     -0.2102
    141  CA         6.3480  -38.6260   45.6560 C.3   312  PRO312      0.1504
    142  C          6.6220  -37.1700   45.3400 C.2   312  PRO312      0.2576
    143  O          7.0570  -36.4400   46.2350 O.2   312  PRO312     -0.2718
    144  CB         7.6660  -39.2990   46.0070 C.3   312  PRO312      0.0282
    145  CG         8.1480  -39.8520   44.7090 C.3   312  PRO312      0.0208
    146  CD         6.9150  -40.3620   44.0410 C.3   312  PRO312      0.0893
    147  N          6.4180  -36.7560   44.0930 N.am  313  PHE313     -0.1963
    148  CA         6.9030  -35.4660   43.5880 C.3   313  PHE313      0.1771
    149  C          6.2550  -34.2000   44.1660 C.2   313  PHE313      0.2620
    150  O          6.7800  -33.1110   43.8990 O.2   313  PHE313     -0.2715
    151  CB         6.8930  -35.4400   42.0590 C.3   313  PHE313      0.0574
    152  CG         7.5760  -36.6880   41.5180 C.ar  313  PHE313     -0.0200
    153  CD1        8.9170  -36.9770   41.8440 C.ar  313  PHE313     -0.0042
    154  CD2        6.8640  -37.6160   40.7700 C.ar  313  PHE313     -0.0042
    155  CE1        9.5390  -38.1490   41.3620 C.ar  313  PHE313     -0.0003
    156  CE2        7.4850  -38.7750   40.2890 C.ar  313  PHE313     -0.0003
    157  CZ         8.8050  -39.0490   40.6250 C.ar  313  PHE313     -0.0000
    158  N          5.2110  -34.3140   44.9970 N.am  314  HIS314     -0.1959
    159  CA         4.6650  -33.1280   45.6550 C.3   314  HIS314      0.1787
    160  C          4.9700  -33.1250   47.1640 C.2   314  HIS314      0.2620
    161  O          4.6260  -32.1610   47.8380 O.2   314  HIS314     -0.2715
    162  CB         3.1510  -32.9480   45.3980 C.3   314  HIS314      0.0785
    163  CG         2.7360  -31.4970   45.2760 C.ar  314  HIS314      0.0821
    164  ND1        3.0480  -30.5530   46.2670 N.ar  314  HIS314     -0.2267
    165  CD2        2.0460  -30.8800   44.2900 C.ar  314  HIS314      0.1154
    166  CE1        2.5620  -29.4000   45.8310 C.ar  314  HIS314      0.1986
    167  NE2        1.9410  -29.5460   44.6460 N.ar  314  HIS314     -0.2212
    168  N          5.6040  -34.1810   47.6840 N.am  315  GLY315     -0.1954
    169  CA         5.8480  -34.3030   49.1280 C.3   315  GLY315      0.1869
    170  C          4.5490  -34.2430   49.9030 C.2   315  GLY315      0.2309
    171  O          4.4440  -33.5470   50.9190 O.2   315  GLY315     -0.2863
    172  N          3.8370  -32.4880   39.2380 N.3   363  ASN363     -0.1240
    173  CA         4.9490  -31.7500   39.8420 C.3   363  ASN363      0.1653
    174  C          6.3430  -32.2400   39.4050 C.2   363  ASN363      0.2266
    175  O          7.3090  -31.5090   39.5990 O.2   363  ASN363     -0.2867
    176  CB         4.8410  -31.7000   41.3650 C.3   363  ASN363      0.1155
    177  CG         5.4070  -30.4110   41.9180 C.2   363  ASN363      0.2627
    178  OD1        5.0810  -29.3010   41.4470 O.2   363  ASN363     -0.2716
    179  ND2        6.3670  -30.5290   42.8330 N.am  363  ASN363     -0.0877
    180  N          9.7880  -29.7840   38.7370 N.3   367  MET367     -0.1245
    181  CA        11.0680  -29.9260   39.4330 C.3   367  MET367      0.1570
    182  C         12.2630  -30.2410   38.5320 C.2   367  MET367      0.2261
    183  O         13.3640  -29.7560   38.7800 O.2   367  MET367     -0.2867
    184  CB        10.9730  -31.0540   40.4760 C.3   367  MET367      0.0387
    185  CG        10.0170  -30.7670   41.6020 C.3   367  MET367      0.0595
    186  SD         9.9180  -32.2180   42.6800 S.3   367  MET367     -0.1393
    187  CE        11.4440  -32.1330   43.4480 C.3   367  MET367      0.0692
    188  N          0.9430  -24.3610   44.1290 N.3   395  TYR395     -0.1241
    189  CA         1.8780  -24.9240   45.1120 C.3   395  TYR395      0.1605
    190  C          1.5340  -24.4420   46.5260 C.2   395  TYR395      0.2264
    191  O          1.5560  -25.2510   47.4570 O.2   395  TYR395     -0.2867
    192  CB         3.3670  -24.6220   44.7640 C.3   395  TYR395      0.0534
    193  CG         4.3250  -25.3420   45.6950 C.ar  395  TYR395     -0.0201
    194  CD1        4.7380  -26.6470   45.4290 C.ar  395  TYR395     -0.0009
    195  CD2        4.7570  -24.7500   46.8770 C.ar  395  TYR395     -0.0009
    196  CE1        5.5600  -27.3450   46.3190 C.ar  395  TYR395      0.0417
    197  CE2        5.5670  -25.4400   47.7800 C.ar  395  TYR395      0.0417
    198  CZ         5.9830  -26.7330   47.4900 C.ar  395  TYR395      0.1957
    199  OH         6.7760  -27.4110   48.4010 O.3   395  TYR395     -0.2866
    200  N          0.4250  -26.7630   49.6110 N.3   399  THR399     -0.1218
    201  CA         1.4150  -26.8380   50.6800 C.3   399  THR399      0.1862
    202  C          1.1130  -26.0220   51.9480 C.2   399  THR399      0.2287
    203  O          1.3750  -26.5160   53.0420 O.2   399  THR399     -0.2866
    204  CB         2.7790  -26.4560   50.0900 C.3   399  THR399      0.1770
    205  OG1        2.9910  -27.1820   48.8660 O.3   399  THR399     -0.2211
    206  CG2        3.9150  -26.7490   51.0210 C.3   399  THR399      0.0375
@<TRIPOS>BOND
     1    90    91    1
     2   182   183    2
     3   182   181    1
     4   124   123    2
     5   180   181    1
     6    91    94    1
     7    91    92    1
     8    94    95    1
     9   172   173    1
    10   123   122    1
    11   174   175    2
    12   174   173    1
    13   181   184    1
    14    95    96    1
    15   173   176    1
    16    96    97    1
    17   156   157   ar
    18   156   154   ar
    19    92    93    2
    20   184   185    1
    21   157   155   ar
    22   122   125    1
    23   122   121    1
    24   125   126    1
    25   154   152   ar
    26   135   134    2
    27    32    30    1
    28   155   153   ar
    29   176   177    1
    30   178   177    2
    31   152   153   ar
    32   152   151    1
    33   185   186    1
    34    88    86    1
    35   177   179   am
    36   134   133    1
    37    30    31    1
    38    30    29    2
    39   151   148    1
    40   138   137    1
    41   126   127   ar
    42   126   128   ar
    43   136   133    1
    44   136   137    1
    45    85    84    2
    46    84    83    1
    47   127   129   ar
    48   132   133    1
    49   186   187    1
    50    53    54    1
    51   137   139    1
    52    86    83    1
    53    86    87    1
    54   128   130   ar
    55    29    28    1
    56    28    27    1
    57    89    87    1
    58    83    82    1
    59    54    57    1
    60    54    55    1
    61   148   147    1
    62   148   149    1
    63   129   131   ar
    64   150   149    2
    65   146   140    1
    66   146   145    1
    67   147   142   am
    68   188   189    1
    69   130   131   ar
    70   149   158   am
    71    27    26    1
    72   165   167   ar
    73   165   163   ar
    74    57    58    1
    75    55    56    2
    76   104   102    1
    77    98    99    1
    78   117   116    2
    79   140   141    1
    80   167   166   ar
    81   145   144    1
    82   192   189    1
    83   192   193    1
    84   158   159    1
    85   116   115    1
    86   189   190    1
    87   163   162    1
    88   163   164   ar
    89    25    24    2
    90   142   141    1
    91   142   143    2
    92    26    23    1
    93   162   159    1
    94   194   193   ar
    95   194   196   ar
    96    60    58   ar
    97    60    62   ar
    98    99   102    1
    99    99   100    1
   100    58    59   ar
   101   159   160    1
   102   141   144    1
   103   193   195   ar
   104   102   103    1
   105   166   164   ar
   106    24    23    1
   107   120   118    1
   108   196   198   ar
   109   103   105    1
   110    23    22    1
   111   190   191    2
   112   115   118    1
   113   115   114    1
   114    62    63   ar
   115    59    61   ar
   116   100   101    2
   117   195   197   ar
   118   118   119    1
   119   160   168   am
   120   160   161    2
   121    41    39   ar
   122    41    43   ar
   123    81    79    1
   124   198   197   ar
   125   198   199    1
   126    44    43    1
   127   168   169    1
   128    77    76    2
   129    65    66    1
   130    39    38   ar
   131    63    61   ar
   132    63    64    1
   133    43    42   ar
   134    36    35    2
   135    76    75    1
   136    34    33    1
   137    34    35    1
   138    34    37    1
   139    66    67    1
   140    66    69    1
   141   205   204    1
   142    67    68    2
   143    79    80    1
   144    79    78    1
   145    38    37    1
   146    38    40   ar
   147   169   170    1
   148    42    40   ar
   149    78    75    1
   150   200   201    1
   151    75    74    1
   152   170   171    2
   153    70    69    1
   154    70    71    1
   155   204   201    1
   156   204   206    1
   157   112   111    1
   158   201   202    1
   159    71    72   ar
   160    71    73   ar
   161   106   107    1
   162    52    50    1
   163   202   203    2
   164   111   113    1
   165   111   110    1
   166   107   110    1
   167   107   108    1
   168    50    49    1
   169    21    18    1
   170    51    49    1
   171    49    46    1
   172   108   109    2
   173     4     3    2
   174    18    17    1
   175    18    19    1
   176    17    11   am
   177    20    19    2
   178    45    46    1
   179    46    47    1
   180     3     9   am
   181     3     2    1
   182    10    11    1
   183    10     9    1
   184    10    13    1
   185    16    14    1
   186    11    12    2
   187     5     2    1
   188     5     6    1
   189     1     2    1
   190    47    48    2
   191    13    14    1
   192     7     6    2
   193    14    15    1
   194     6     8   am
