@<TRIPOS>MOLECULE
tmp/5nagB01.pdb
 199 188 0 0 0
SMALL
GASTEIGER

@<TRIPOS>ATOM
      1  N        -32.0370   -8.6640   10.8380 N.3    48  ASN48      -0.1225
      2  CA       -31.1940   -7.5820   10.3710 C.3    48  ASN48       0.1785
      3  C        -30.0040   -7.4380   11.2890 C.2    48  ASN48       0.2597
      4  O        -30.0470   -7.8580   12.4430 O.2    48  ASN48      -0.2718
      5  CB       -31.9860   -6.2610   10.2390 C.3    48  ASN48       0.1169
      6  CG       -32.7320   -6.1700    8.9250 C.2    48  ASN48       0.2627
      7  OD1      -33.2100   -7.1770    8.3890 O.2    48  ASN48      -0.2716
      8  ND2      -32.7820   -4.9940    8.3150 N.am   48  ASN48      -0.0877
      9  N        -28.9240   -6.9010   10.7460 N.am   49  LEU49      -0.1966
     10  CA       -27.6890   -6.6510   11.4570 C.3    49  LEU49       0.1728
     11  C        -27.3550   -5.1780   11.3230 C.2    49  LEU49       0.2616
     12  O        -27.6740   -4.5500   10.3020 O.2    49  LEU49      -0.2715
     13  CB       -26.5390   -7.4590   10.8700 C.3    49  LEU49       0.0311
     14  CG       -26.6830   -9.0040   10.8950 C.3    49  LEU49       0.0022
     15  CD1      -27.0790   -9.4590    9.5590 C.3    49  LEU49       0.0001
     16  CD2      -25.3230   -9.6600   11.1500 C.3    49  LEU49       0.0001
     17  N        -26.6360   -4.6660   12.3180 N.am   50  ALA50      -0.1977
     18  CA       -26.1500   -3.2860   12.3350 C.3    50  ALA50       0.1597
     19  C        -24.7470   -3.2520   11.7370 C.2    50  ALA50       0.2287
     20  O        -23.7640   -3.6940   12.3560 O.2    50  ALA50      -0.2864
     21  CB       -26.1140   -2.7420   13.7560 C.3    50  ALA50       0.0319
     22  N        -29.3750    6.5850   18.3220 N.3    78  ARG78      -0.1245
     23  CA       -29.9300    5.5840   19.2100 C.3    78  ARG78       0.1563
     24  C        -31.1760    6.1520   19.8780 C.2    78  ARG78       0.2260
     25  O        -31.1230    7.2390   20.4690 O.2    78  ARG78      -0.2867
     26  CB       -28.8550    5.1980   20.2460 C.3    78  ARG78       0.0307
     27  CG       -29.2300    4.1250   21.2370 C.3    78  ARG78       0.0489
     28  CD       -28.5170    4.4740   22.5300 C.3    78  ARG78       0.2205
     29  NE       -27.5540    3.4650   22.9440 N.pl3  78  ARG78      -0.0865
     30  CZ       -26.7030    3.6110   23.9520 C.cat  78  ARG78       0.5346
     31  NH1      -25.8760    2.6300   24.2720 N.pl3  78  ARG78       0.1354
     32  NH2      -26.6680    4.7460   24.6440 N.pl3  78  ARG78       0.1354
     33  N        -25.7900    9.9170   16.4190 N.3    92  TYR92      -0.1241
     34  CA       -24.4510    9.3410   16.4050 C.3    92  TYR92       0.1605
     35  C        -23.3780   10.3820   16.1530 C.2    92  TYR92       0.2264
     36  O        -22.2940   10.2770   16.7320 O.2    92  TYR92      -0.2867
     37  CB       -24.3490    8.1990   15.3950 C.3    92  TYR92       0.0534
     38  CG       -25.1370    6.9960   15.8380 C.ar   92  TYR92      -0.0201
     39  CD1      -25.0190    6.5000   17.1350 C.ar   92  TYR92      -0.0009
     40  CD2      -26.0270    6.3640   14.9740 C.ar   92  TYR92      -0.0009
     41  CE1      -25.7630    5.4080   17.5580 C.ar   92  TYR92       0.0417
     42  CE2      -26.7740    5.2660   15.3900 C.ar   92  TYR92       0.0417
     43  CZ       -26.6450    4.8000   16.6820 C.ar   92  TYR92       0.1957
     44  OH       -27.3720    3.7190   17.0810 O.3    92  TYR92      -0.2866
     45  N        -25.2080    4.2480   11.4030 N.3   100  ILE100     -0.1245
     46  CA       -25.1080    2.7730   11.3800 C.3   100  ILE100      0.1561
     47  C        -26.1980    2.3180   10.4150 C.2   100  ILE100      0.2260
     48  O        -27.1870    3.0230   10.2440 O.2   100  ILE100     -0.2867
     49  CB       -25.2910    2.1200   12.7740 C.3   100  ILE100      0.0252
     50  CG1      -24.3030    2.7040   13.7860 C.3   100  ILE100      0.0019
     51  CG2      -25.1100    0.6090   12.7140 C.3   100  ILE100      0.0019
     52  CD1      -24.6370    2.2940   15.2330 C.3   100  ILE100      0.0001
     53  N        -31.7190  -15.1960   24.3730 N.3   187  TYR187     -0.1241
     54  CA       -32.4130  -14.1640   23.6200 C.3   187  TYR187      0.1605
     55  C        -33.6150  -14.7110   22.8670 C.2   187  TYR187      0.2264
     56  O        -33.6490  -15.8860   22.5170 O.2   187  TYR187     -0.2867
     57  CB       -31.4780  -13.3700   22.7090 C.3   187  TYR187      0.0534
     58  CG       -31.0020  -14.1120   21.4780 C.ar  187  TYR187     -0.0201
     59  CD1      -31.7680  -14.1410   20.3110 C.ar  187  TYR187     -0.0009
     60  CD2      -29.7700  -14.7610   21.4670 C.ar  187  TYR187     -0.0009
     61  CE1      -31.3140  -14.8070   19.1700 C.ar  187  TYR187      0.0417
     62  CE2      -29.2870  -15.3750   20.3220 C.ar  187  TYR187      0.0417
     63  CZ       -30.0550  -15.3860   19.1730 C.ar  187  TYR187      0.1957
     64  OH       -29.5570  -16.0210   18.0670 O.3   187  TYR187     -0.2866
     65  N        -36.3660  -13.5470   19.6220 N.3   189  GLU189     -0.1245
     66  CA       -36.7100  -12.6000   18.5570 C.3   189  GLU189      0.1567
     67  C        -38.1980  -12.4500   18.4680 C.2   189  GLU189      0.2260
     68  O        -38.9340  -13.4330   18.5110 O.2   189  GLU189     -0.2867
     69  CB       -36.1320  -13.0620   17.2350 C.3   189  GLU189      0.0388
     70  CG       -34.6270  -12.9080   17.2260 C.3   189  GLU189      0.1160
     71  CD       -33.9120  -13.6550   16.1230 C.2   189  GLU189      0.3649
     72  OE1      -32.7080  -13.3890   15.9250 O.co2 189  GLU189     -0.2457
     73  OE2      -34.5650  -14.4470   15.4080 O.co2 189  GLU189     -0.2457
     74  N        -31.7400    3.1060   15.8470 N.3   207  LEU207     -0.1245
     75  CA       -31.5440    1.8190   16.5190 C.3   207  LEU207      0.1561
     76  C        -32.2620    2.0250   17.8750 C.2   207  LEU207      0.2260
     77  O        -31.9370    2.9730   18.5970 O.2   207  LEU207     -0.2867
     78  CB       -30.0450    1.5810   16.7430 C.3   207  LEU207      0.0270
     79  CG       -29.6590    0.2560   17.4080 C.3   207  LEU207      0.0019
     80  CD1      -28.2820   -0.1890   16.9480 C.3   207  LEU207      0.0001
     81  CD2      -29.6180    0.4090   18.9450 C.3   207  LEU207      0.0001
     82  N        -33.4620    0.9810   21.8390 N.3   209  ILE209     -0.1245
     83  CA       -33.1150    0.1940   23.0220 C.3   209  ILE209      0.1561
     84  C        -34.1340    0.4570   24.1170 C.2   209  ILE209      0.2260
     85  O        -34.5050    1.6150   24.3430 O.2   209  ILE209     -0.2867
     86  CB       -31.6680    0.4280   23.5480 C.3   209  ILE209      0.0252
     87  CG1      -30.6290    0.1810   22.4170 C.3   209  ILE209      0.0019
     88  CG2      -31.3770   -0.4920   24.7610 C.3   209  ILE209      0.0019
     89  CD1      -29.2070    0.6080   22.7510 C.3   209  ILE209      0.0001
     90  N        -33.2540   -6.5270   28.7620 N.3   216  MET216     -0.1245
     91  CA       -33.4720   -5.3930   27.8690 C.3   216  MET216      0.1570
     92  C        -33.9770   -5.8870   26.5120 C.2   216  MET216      0.2261
     93  O        -33.8990   -7.0800   26.2240 O.2   216  MET216     -0.2867
     94  CB       -32.1500   -4.6160   27.6620 C.3   216  MET216      0.0387
     95  CG       -31.0180   -5.4970   27.1380 C.3   216  MET216      0.0595
     96  SD       -29.6560   -4.5630   26.4070 S.3   216  MET216     -0.1393
     97  CE       -30.3790   -4.1680   24.7750 C.3   216  MET216      0.0692
     98  N        -33.8330   -4.6990   22.1990 N.3   218  ILE218     -0.1245
     99  CA       -33.2560   -3.8540   21.1640 C.3   218  ILE218      0.1561
    100  C        -34.1070   -4.0800   19.9310 C.2   218  ILE218      0.2260
    101  O        -34.6500   -5.1690   19.7960 O.2   218  ILE218     -0.2867
    102  CB       -31.7540   -4.1590   20.9450 C.3   218  ILE218      0.0252
    103  CG1      -31.1200   -3.2310   19.9060 C.3   218  ILE218      0.0019
    104  CG2      -31.5050   -5.6450   20.5880 C.3   218  ILE218      0.0019
    105  CD1      -29.5980   -3.2580   19.8660 C.3   218  ILE218      0.0001
    106  N        -34.1720   -3.4020   15.5290 N.3   220  LEU220     -0.1245
    107  CA       -33.5280   -2.8620   14.3390 C.3   220  LEU220      0.1561
    108  C        -34.5840   -2.7850   13.2360 C.2   220  LEU220      0.2260
    109  O        -35.4150   -3.6930   13.1090 O.2   220  LEU220     -0.2867
    110  CB       -32.3440   -3.7300   13.8560 C.3   220  LEU220      0.0270
    111  CG       -30.9360   -3.5180   14.4780 C.3   220  LEU220      0.0019
    112  CD1      -30.9490   -3.4410   15.9680 C.3   220  LEU220      0.0001
    113  CD2      -30.0280   -4.6740   14.0830 C.3   220  LEU220      0.0001
    114  N        -35.2440   -7.8750   19.7660 N.3   230  THR230     -0.1218
    115  CA       -34.5940   -8.9850   20.4700 C.3   230  THR230      0.1862
    116  C        -34.6690   -8.7090   21.9430 C.2   230  THR230      0.2287
    117  O        -34.2200   -7.6410   22.3880 O.2   230  THR230     -0.2866
    118  CB       -33.1320   -9.2200   20.0310 C.3   230  THR230      0.1770
    119  OG1      -33.0500   -9.3470   18.6120 O.3   230  THR230     -0.2211
    120  CG2      -32.5190  -10.4580   20.7130 C.3   230  THR230      0.0375
    121  N        -33.2830   -9.7610   25.6010 N.3   232  PHE232     -0.1241
    122  CA       -32.1500  -10.4210   26.2650 C.3   232  PHE232      0.1605
    123  C        -32.6020  -10.6020   27.7060 C.2   232  PHE232      0.2264
    124  O        -32.9180   -9.6190   28.3610 O.2   232  PHE232     -0.2867
    125  CB       -30.8730   -9.5640   26.2040 C.3   232  PHE232      0.0534
    126  CG       -30.3190   -9.5030   24.8090 C.ar  232  PHE232     -0.0203
    127  CD1      -29.5960  -10.5680   24.2840 C.ar  232  PHE232     -0.0042
    128  CD2      -30.5650   -8.4050   23.9950 C.ar  232  PHE232     -0.0042
    129  CE1      -29.0850  -10.5110   22.9720 C.ar  232  PHE232     -0.0003
    130  CE2      -30.0630   -8.3540   22.6870 C.ar  232  PHE232     -0.0003
    131  CZ       -29.3140   -9.4010   22.1920 C.ar  232  PHE232     -0.0000
    132  N        -25.8320  -17.3900   24.2330 N.3   286  LEU286     -0.1245
    133  CA       -24.7240  -16.4560   24.0090 C.3   286  LEU286      0.1561
    134  C        -23.4820  -16.9410   24.6860 C.2   286  LEU286      0.2260
    135  O        -23.5810  -17.5490   25.7500 O.2   286  LEU286     -0.2867
    136  CB       -25.0910  -15.0640   24.5810 C.3   286  LEU286      0.0270
    137  CG       -26.4290  -14.4810   24.1020 C.3   286  LEU286      0.0019
    138  CD1      -26.7250  -13.1760   24.8010 C.3   286  LEU286      0.0001
    139  CD2      -26.4270  -14.3450   22.5580 C.3   286  LEU286      0.0001
    140  N        -23.2060  -10.5730   21.7270 N.3   312  PRO312     -0.2102
    141  CA       -23.6750   -9.6620   20.6600 C.3   312  PRO312      0.1504
    142  C        -23.8030   -8.2050   21.0250 C.2   312  PRO312      0.2576
    143  O        -24.2210   -7.4080   20.1810 O.2   312  PRO312     -0.2718
    144  CB       -25.0720  -10.1950   20.3550 C.3   312  PRO312      0.0282
    145  CG       -25.5500  -10.8360   21.6250 C.3   312  PRO312      0.0208
    146  CD       -24.3110  -11.3830   22.2990 C.3   312  PRO312      0.0893
    147  N        -23.5250   -7.8660   22.3000 N.am  313  PHE313     -0.1963
    148  CA       -23.8750   -6.5640   22.8600 C.3   313  PHE313      0.1771
    149  C        -23.2070   -5.3300   22.2380 C.2   313  PHE313      0.2620
    150  O        -23.6500   -4.2250   22.5500 O.2   313  PHE313     -0.2715
    151  CB       -23.7060   -6.5610   24.3730 C.3   313  PHE313      0.0574
    152  CG       -24.3820   -7.7560   25.0210 C.ar  313  PHE313     -0.0200
    153  CD1      -25.7370   -8.0090   24.8140 C.ar  313  PHE313     -0.0042
    154  CD2      -23.6660   -8.6210   25.8430 C.ar  313  PHE313     -0.0042
    155  CE1      -26.3540   -9.1310   25.3890 C.ar  313  PHE313     -0.0003
    156  CE2      -24.2870   -9.7250   26.4360 C.ar  313  PHE313     -0.0003
    157  CZ       -25.6250   -9.9760   26.1990 C.ar  313  PHE313     -0.0000
    158  N        -22.1890   -5.4780   21.3770 N.am  314  HIS314     -0.1959
    159  CA       -21.6340   -4.2980   20.7100 C.3   314  HIS314      0.1787
    160  C        -22.0360   -4.2080   19.2220 C.2   314  HIS314      0.2620
    161  O        -21.6780   -3.2180   18.5550 O.2   314  HIS314     -0.2715
    162  CB       -20.1100   -4.2010   20.8560 C.3   314  HIS314      0.0785
    163  CG       -19.6170   -2.7890   21.0480 C.ar  314  HIS314      0.0821
    164  ND1      -19.9100   -1.7900   20.1360 N.ar  314  HIS314     -0.2267
    165  CD2      -18.8570   -2.2600   22.0430 C.ar  314  HIS314      0.1154
    166  CE1      -19.3450   -0.6850   20.6090 C.ar  314  HIS314      0.1986
    167  NE2      -18.6860   -0.9220   21.7450 N.ar  314  HIS314     -0.2212
    168  N        -22.7860   -5.2030   18.7180 N.am  315  GLY315     -0.1954
    169  CA       -23.1830   -5.2500   17.3100 C.3   315  GLY315      0.1869
    170  C        -21.9360   -5.2220   16.4480 C.2   315  GLY315      0.2309
    171  O        -21.8700   -4.4710   15.4720 O.2   315  GLY315     -0.2863
    172  N        -20.3340   -3.7510   27.0460 N.3   363  ASN363     -0.1240
    173  CA       -21.4000   -2.9050   26.4850 C.3   363  ASN363      0.1653
    174  C        -22.8080   -3.2610   26.9760 C.2   363  ASN363      0.2266
    175  O        -23.6980   -2.4020   26.8930 O.2   363  ASN363     -0.2867
    176  CB       -21.3620   -2.8500   24.9510 C.3   363  ASN363      0.1155
    177  CG       -22.0030   -1.5800   24.4240 C.2   363  ASN363      0.2627
    178  OD1      -21.6610   -0.4610   24.8580 O.2   363  ASN363     -0.2716
    179  ND2      -22.9360   -1.7000   23.4810 N.am  363  ASN363     -0.0877
    180  N        -25.6020   -0.2860   27.7920 N.3   367  MET367     -0.1245
    181  CA       -26.9090   -0.2280   27.1560 C.3   367  MET367      0.1570
    182  C        -28.0460   -0.3520   28.1420 C.2   367  MET367      0.2261
    183  O        -29.0580    0.3170   27.9490 O.2   367  MET367     -0.2867
    184  CB       -27.0860   -1.3630   26.1430 C.3   367  MET367      0.0387
    185  CG       -26.2950   -1.2060   24.8810 C.3   367  MET367      0.0595
    186  SD       -26.8900   -2.4630   23.6880 S.3   367  MET367     -0.1393
    187  CE       -26.3450   -3.8920   24.4600 C.3   367  MET367      0.0692
    188  N        -17.3900    4.1770   22.2900 N.3   398  TYR398     -0.1241
    189  CA       -18.4040    3.7170   21.3460 C.3   398  TYR398      0.1605
    190  C        -18.1090    4.2240   19.9160 C.2   398  TYR398      0.2264
    191  O        -18.2080    3.4430   18.9670 O.2   398  TYR398     -0.2867
    192  CB       -19.8270    4.0840   21.7940 C.3   398  TYR398      0.0534
    193  CG       -20.8650    3.5290   20.8330 C.ar  398  TYR398     -0.0201
    194  CD1      -21.3120    2.2110   20.9400 C.ar  398  TYR398     -0.0009
    195  CD2      -21.3360    4.2920   19.7680 C.ar  398  TYR398     -0.0009
    196  CE1      -22.2190    1.6780   20.0230 C.ar  398  TYR398      0.0417
    197  CE2      -22.2400    3.7690   18.8460 C.ar  398  TYR398      0.0417
    198  CZ       -22.6950    2.4700   18.9900 C.ar  398  TYR398      0.1957
    199  OH       -23.5930    1.9520   18.0780 O.3   398  TYR398     -0.2866
@<TRIPOS>BOND
     1     8     6   am
     2     7     6    2
     3     6     5    1
     4    15    14    1
     5     5     2    1
     6    48    47    2
     7    12    11    2
     8     2     1    1
     9     2     3    1
    10    47    46    1
    11     9     3   am
    12     9    10    1
    13    13    14    1
    14    13    10    1
    15    14    16    1
    16     3     4    2
    17    11    10    1
    18    11    17   am
    19    46    45    1
    20    46    49    1
    21    19    18    1
    22    19    20    2
    23    17    18    1
    24    18    21    1
    25    51    49    1
    26    49    50    1
    27   109   108    2
    28   108   107    1
    29    50    52    1
    30   110   107    1
    31   110   111    1
    32   113   111    1
    33   107   106    1
    34   111   112    1
    35    40    42   ar
    36    40    38   ar
    37    42    43   ar
    38    37    38    1
    39    37    34    1
    40    73    71   ar
    41   171   170    2
    42    38    39   ar
    43    74    75    1
    44    72    71   ar
    45    71    70    1
    46    35    34    1
    47    35    36    2
    48    34    33    1
    49   170   169    1
    50    75    78    1
    51    75    76    1
    52    43    44    1
    53    43    41   ar
    54    78    79    1
    55    80    79    1
    56    39    41   ar
    57    70    69    1
    58    69    66    1
    59   169   168    1
    60    79    81    1
    61    76    77    2
    62    64    63    1
    63   199   198    1
    64    22    23    1
    65    67    68    2
    66    67    66    1
    67   161   160    2
    68    66    65    1
    69   119   118    1
    70   168   160   am
    71   197   198   ar
    72   197   195   ar
    73   191   190    2
    74   198   196   ar
    75    61    63   ar
    76    61    59   ar
    77    63    62   ar
    78    23    24    1
    79    23    26    1
    80   160   159    1
    81   114   115    1
    82   195   193   ar
    83   101   100    2
    84   105   103    1
    85    24    25    2
    86   103   102    1
    87   190   189    1
    88   100    99    1
    89   196   194   ar
    90   118   115    1
    91   118   120    1
    92   164   166   ar
    93   164   163   ar
    94   143   142    2
    95    26    27    1
    96    59    58   ar
    97    62    60   ar
    98   144   141    1
    99   144   145    1
   100   115   116    1
   101   104   102    1
   102   166   167   ar
   103   141   142    1
   104   141   140    1
   105   159   162    1
   106   159   158    1
   107   193   194   ar
   108   193   192    1
   109   162   163    1
   110   102    99    1
   111   142   147   am
   112   163   165   ar
   113    99    98    1
   114    27    28    1
   115   189   192    1
   116   189   188    1
   117   158   149   am
   118    60    58   ar
   119    58    57    1
   120   145   146    1
   121   140   146    1
   122   167   165   ar
   123    82    83    1
   124   116   117    2
   125   131   130   ar
   126   131   129   ar
   127   149   150    2
   128   149   148    1
   129   147   148    1
   130    87    89    1
   131    87    86    1
   132    56    55    2
   133    28    29    1
   134   139   137    1
   135   130   128   ar
   136    57    54    1
   137   148   151    1
   138    55    54    1
   139    29    30    2
   140   129   127   ar
   141    83    86    1
   142    83    84    1
   143   179   177   am
   144    86    88    1
   145    54    53    1
   146   186   187    1
   147   186   185    1
   148    30    31    1
   149    30    32    1
   150   128   126   ar
   151   133   132    1
   152   133   136    1
   153   133   134    1
   154   137   136    1
   155   137   138    1
   156    84    85    2
   157   127   126   ar
   158   151   152    1
   159   177   178    2
   160   177   176    1
   161   134   135    2
   162    97    96    1
   163   126   125    1
   164   153   152   ar
   165   153   155   ar
   166   185   184    1
   167   176   173    1
   168   152   154   ar
   169   155   157   ar
   170   121   122    1
   171   154   156   ar
   172   184   181    1
   173   157   156   ar
   174   125   122    1
   175    93    92    2
   176   122   123    1
   177    96    95    1
   178   173   174    1
   179   173   172    1
   180    92    91    1
   181   175   174    2
   182    95    94    1
   183   181   180    1
   184   181   182    1
   185    94    91    1
   186   123   124    2
   187    91    90    1
   188   183   182    2
