@<TRIPOS>MOLECULE
tmp/5nahA01.pdb
 207 196 0 0 0
SMALL
GASTEIGER

@<TRIPOS>ATOM
      1  N         17.4890  -41.5200   56.4150 N.3    47  ILE47      -0.1231
      2  CA        16.6170  -41.0170   55.3690 C.3    47  ILE47       0.1692
      3  C         16.0030  -39.6980   55.8900 C.2    47  ILE47       0.2592
      4  O         15.5750  -39.6260   57.0380 O.2    47  ILE47      -0.2718
      5  CB        15.5940  -42.0240   54.7200 C.3    47  ILE47       0.0266
      6  CG1       14.1600  -41.8130   55.1780 C.3    47  ILE47       0.0019
      7  CG2       15.9810  -43.5060   54.8580 C.3    47  ILE47       0.0020
      8  CD1       13.4520  -40.9230   54.4030 C.3    47  ILE47       0.0001
      9  N         15.9770  -38.6800   55.0480 N.am   48  ASN48      -0.1960
     10  CA        15.3760  -37.3860   55.3980 C.3    48  ASN48       0.1819
     11  C         14.1160  -37.2110   54.6160 C.2    48  ASN48       0.2621
     12  O         14.0610  -37.5700   53.4410 O.2    48  ASN48      -0.2715
     13  CB        16.3050  -36.2280   55.0360 C.3    48  ASN48       0.1195
     14  CG        17.4700  -36.1090   55.9460 C.2    48  ASN48       0.2630
     15  OD1       18.6130  -36.3600   55.5410 O.2    48  ASN48      -0.2716
     16  ND2       17.1980  -35.7470   57.2010 N.am   48  ASN48      -0.0877
     17  N         13.1410  -36.5540   55.2290 N.am   49  LEU49      -0.1963
     18  CA        11.8680  -36.2270   54.5970 C.3    49  LEU49       0.1728
     19  C         11.6120  -34.7470   54.7400 C.2    49  LEU49       0.2616
     20  O         11.9960  -34.1460   55.7440 O.2    49  LEU49      -0.2715
     21  CB        10.7050  -36.9670   55.2830 C.3    49  LEU49       0.0311
     22  CG        10.8610  -38.4820   55.3590 C.3    49  LEU49       0.0022
     23  CD1       11.2400  -38.8480   56.7230 C.3    49  LEU49       0.0001
     24  CD2        9.5950  -39.1810   54.9710 C.3    49  LEU49       0.0001
     25  N         10.8960  -34.1820   53.7660 N.am   50  ALA50      -0.1977
     26  CA        10.4960  -32.7880   53.7780 C.3    50  ALA50       0.1597
     27  C          9.0640  -32.6710   54.3680 C.2    50  ALA50       0.2287
     28  O          8.0720  -33.0420   53.7470 O.2    50  ALA50      -0.2864
     29  CB        10.5610  -32.1950   52.3740 C.3    50  ALA50       0.0319
     30  N         14.6200  -23.4680   47.5300 N.3    78  ARG78      -0.1245
     31  CA        15.1470  -24.4770   46.6250 C.3    78  ARG78       0.1563
     32  C         16.4670  -23.9180   46.0650 C.2    78  ARG78       0.2260
     33  O         16.5090  -22.7820   45.5740 O.2    78  ARG78      -0.2867
     34  CB        14.1010  -24.7230   45.5090 C.3    78  ARG78       0.0307
     35  CG        14.5110  -25.6410   44.3770 C.3    78  ARG78       0.0489
     36  CD        13.7100  -25.3230   43.1270 C.3    78  ARG78       0.2205
     37  NE        12.5580  -26.1930   42.9330 N.pl3  78  ARG78      -0.0865
     38  CZ        11.7630  -26.1460   41.8680 C.cat  78  ARG78       0.5346
     39  NH1       10.7330  -26.9730   41.7660 N.pl3  78  ARG78       0.1354
     40  NH2       11.9810  -25.2560   40.9060 N.pl3  78  ARG78       0.1354
     41  N         11.0410  -20.3930   49.0060 N.3    92  TYR92      -0.1241
     42  CA         9.7980  -21.1650   48.8810 C.3    92  TYR92       0.1605
     43  C          8.5440  -20.3440   49.1410 C.2    92  TYR92       0.2264
     44  O          7.4830  -20.6520   48.5860 O.2    92  TYR92      -0.2867
     45  CB         9.8250  -22.4260   49.7650 C.3    92  TYR92       0.0534
     46  CG        10.4830  -23.6400   49.1370 C.ar   92  TYR92      -0.0201
     47  CD1       10.1710  -24.0360   47.8400 C.ar   92  TYR92      -0.0009
     48  CD2       11.3330  -24.4610   49.8830 C.ar   92  TYR92      -0.0009
     49  CE1       10.7440  -25.1760   47.2750 C.ar   92  TYR92       0.0417
     50  CE2       11.9400  -25.5780   49.3160 C.ar   92  TYR92       0.0417
     51  CZ        11.6210  -25.9490   48.0230 C.ar   92  TYR92       0.1957
     52  OH        12.1880  -27.0710   47.4780 O.3    92  TYR92      -0.2866
     53  N          9.8550  -25.3510   54.5860 N.3   100  ILE100     -0.1245
     54  CA         9.6530  -26.7740   54.7480 C.3   100  ILE100      0.1561
     55  C         10.7680  -27.2230   55.6570 C.2   100  ILE100      0.2260
     56  O         11.7620  -26.5090   55.8160 O.2   100  ILE100     -0.2867
     57  CB         9.4850  -27.5760   53.4380 C.3   100  ILE100      0.0252
     58  CG1       10.6670  -27.4040   52.4770 C.3   100  ILE100      0.0019
     59  CG2        8.1290  -27.1800   52.7780 C.3   100  ILE100      0.0019
     60  CD1       10.6230  -28.3340   51.2150 C.3   100  ILE100      0.0001
     61  N         15.4960  -45.1970   42.2330 N.3   186  TYR186     -0.1241
     62  CA        16.1940  -44.2220   43.0510 C.3   186  TYR186      0.1605
     63  C         17.3010  -44.8660   43.8530 C.2   186  TYR186      0.2264
     64  O         17.2320  -46.0470   44.1780 O.2   186  TYR186     -0.2867
     65  CB        15.2350  -43.3840   43.9240 C.3   186  TYR186      0.0534
     66  CG        14.6970  -44.1180   45.1350 C.ar  186  TYR186     -0.0201
     67  CD1       15.3380  -44.0290   46.3670 C.ar  186  TYR186     -0.0009
     68  CD2       13.5250  -44.8680   45.0550 C.ar  186  TYR186     -0.0009
     69  CE1       14.8530  -44.7080   47.4850 C.ar  186  TYR186      0.0417
     70  CE2       13.0140  -45.5280   46.1720 C.ar  186  TYR186      0.0417
     71  CZ        13.6930  -45.4590   47.3790 C.ar  186  TYR186      0.1957
     72  OH        13.1970  -46.0940   48.4850 O.3   186  TYR186     -0.2866
     73  N         20.0110  -43.8030   47.2360 N.3   188  GLU188     -0.1245
     74  CA        20.4030  -42.8600   48.2800 C.3   188  GLU188      0.1567
     75  C         21.8990  -42.8380   48.4360 C.2   188  GLU188      0.2260
     76  O         22.5520  -43.8930   48.4710 O.2   188  GLU188     -0.2867
     77  CB        19.7420  -43.2150   49.6110 C.3   188  GLU188      0.0388
     78  CG        18.2460  -43.1480   49.5200 C.3   188  GLU188      0.1160
     79  CD        17.5350  -43.7710   50.6900 C.2   188  GLU188      0.3649
     80  OE1       16.3510  -43.4260   50.8750 O.co2 188  GLU188     -0.2457
     81  OE2       18.1510  -44.5640   51.4400 O.co2 188  GLU188     -0.2457
     82  N         16.6330  -26.8850   50.2660 N.3   206  LEU206     -0.1245
     83  CA        16.4470  -28.1610   49.5880 C.3   206  LEU206      0.1561
     84  C         17.2440  -27.9940   48.2990 C.2   206  LEU206      0.2260
     85  O         17.0200  -27.0320   47.5670 O.2   206  LEU206     -0.2867
     86  CB        14.9590  -28.3850   49.2630 C.3   206  LEU206      0.0270
     87  CG        14.6030  -29.7480   48.6570 C.3   206  LEU206      0.0019
     88  CD1       13.2210  -30.1910   49.1150 C.3   206  LEU206      0.0001
     89  CD2       14.6260  -29.6920   47.1260 C.3   206  LEU206      0.0001
     90  N         18.6560  -29.1440   44.4900 N.3   208  ILE208     -0.1245
     91  CA        18.3090  -29.9360   43.3100 C.3   208  ILE208      0.1561
     92  C         19.3940  -29.7820   42.2610 C.2   208  ILE208      0.2260
     93  O         19.8740  -28.6700   42.0350 O.2   208  ILE208     -0.2867
     94  CB        16.9090  -29.5760   42.6990 C.3   208  ILE208      0.0252
     95  CG1       15.7620  -29.7570   43.7180 C.3   208  ILE208      0.0019
     96  CG2       16.6020  -30.4590   41.4670 C.3   208  ILE208      0.0019
     97  CD1       14.4840  -29.0010   43.3370 C.3   208  ILE208      0.0001
     98  N         17.8620  -36.7250   37.7670 N.3   215  MET215     -0.1245
     99  CA        18.2120  -35.6220   38.6580 C.3   215  MET215      0.1570
    100  C         18.6420  -36.1450   40.0110 C.2   215  MET215      0.2261
    101  O         18.3740  -37.3050   40.3480 O.2   215  MET215     -0.2867
    102  CB        16.9970  -34.6630   38.8560 C.3   215  MET215      0.0387
    103  CG        15.7770  -35.3440   39.4720 C.3   215  MET215      0.0595
    104  SD        14.4700  -34.1790   39.9320 S.3   215  MET215     -0.1393
    105  CE        13.4940  -35.2020   40.9110 C.3   215  MET215      0.0692
    106  N         18.5550  -34.8160   44.2700 N.3   217  ILE217     -0.1245
    107  CA        18.0260  -33.8910   45.2790 C.3   217  ILE217      0.1561
    108  C         18.8300  -34.1720   46.5560 C.2   217  ILE217      0.2260
    109  O         19.3280  -35.3010   46.7410 O.2   217  ILE217     -0.2867
    110  CB        16.5130  -34.0750   45.4840 C.3   217  ILE217      0.0252
    111  CG1       16.1810  -35.4810   46.0150 C.3   217  ILE217      0.0019
    112  CG2       15.7300  -33.7460   44.1960 C.3   217  ILE217      0.0019
    113  CD1       15.0020  -35.5200   46.7690 C.3   217  ILE217      0.0001
    114  N         18.7310  -33.3750   50.9040 N.3   219  LEU219     -0.1245
    115  CA        18.0580  -32.7960   52.0690 C.3   219  LEU219      0.1561
    116  C         19.0610  -32.7610   53.2270 C.2   219  LEU219      0.2260
    117  O         19.7920  -33.7300   53.4410 O.2   219  LEU219     -0.2867
    118  CB        16.8240  -33.6240   52.4710 C.3   219  LEU219      0.0270
    119  CG        15.4680  -33.2680   51.7670 C.3   219  LEU219      0.0019
    120  CD1       15.5110  -33.5460   50.2990 C.3   219  LEU219      0.0001
    121  CD2       14.3180  -34.1030   52.3670 C.3   219  LEU219      0.0001
    122  N         19.4000  -38.0860   46.9530 N.3   229  THR229     -0.1218
    123  CA        18.6720  -39.0910   46.2110 C.3   229  THR229      0.1862
    124  C         18.8910  -38.8820   44.7210 C.2   229  THR229      0.2287
    125  O         18.6190  -37.7980   44.2180 O.2   229  THR229     -0.2866
    126  CB        17.1900  -39.1500   46.5340 C.3   229  THR229      0.1770
    127  OG1       17.0000  -39.2120   47.9450 O.3   229  THR229     -0.2211
    128  CG2       16.5170  -40.3630   45.8600 C.3   229  THR229      0.0375
    129  N         17.5410  -39.9100   41.0680 N.3   231  PHE231     -0.1241
    130  CA        16.3800  -40.4460   40.3470 C.3   231  PHE231      0.1605
    131  C         16.8350  -40.6720   38.9250 C.2   231  PHE231      0.2264
    132  O         17.2680  -39.7270   38.2620 O.2   231  PHE231     -0.2867
    133  CB        15.1980  -39.4730   40.3800 C.3   231  PHE231      0.0534
    134  CG        14.6240  -39.3330   41.7630 C.ar  231  PHE231     -0.0203
    135  CD1       13.8240  -40.3430   42.3080 C.ar  231  PHE231     -0.0042
    136  CD2       14.9260  -38.2220   42.5470 C.ar  231  PHE231     -0.0042
    137  CE1       13.2870  -40.2140   43.5980 C.ar  231  PHE231     -0.0003
    138  CE2       14.3710  -38.0780   43.8230 C.ar  231  PHE231     -0.0003
    139  CZ        13.5560  -39.0800   44.3410 C.ar  231  PHE231     -0.0000
    140  N          9.5250  -46.7470   42.2750 N.3   285  LEU285     -0.1245
    141  CA         8.5010  -45.7130   42.4500 C.3   285  LEU285      0.1561
    142  C          7.2300  -46.1390   41.7290 C.2   285  LEU285      0.2260
    143  O          7.2990  -46.8600   40.7290 O.2   285  LEU285     -0.2867
    144  CB         8.9830  -44.3780   41.8720 C.3   285  LEU285      0.0270
    145  CG        10.3660  -43.8880   42.3850 C.3   285  LEU285      0.0019
    146  CD1       10.7730  -42.6260   41.6570 C.3   285  LEU285      0.0001
    147  CD2       10.3560  -43.6890   43.9260 C.3   285  LEU285      0.0001
    148  N          7.3440  -39.5870   44.3920 N.3   311  PRO311     -0.2102
    149  CA         7.8610  -38.7000   45.4430 C.3   311  PRO311      0.1504
    150  C          8.0760  -37.2460   45.0900 C.2   311  PRO311      0.2576
    151  O          8.5430  -36.4940   45.9450 O.2   311  PRO311     -0.2718
    152  CB         9.2300  -39.3110   45.7350 C.3   311  PRO311      0.0282
    153  CG         9.6620  -39.9360   44.4790 C.3   311  PRO311      0.0208
    154  CD         8.4060  -40.4900   43.8750 C.3   311  PRO311      0.0893
    155  N          7.8110  -36.8610   43.8330 N.am  312  PHE312     -0.1963
    156  CA         8.2710  -35.5850   43.2940 C.3   312  PHE312      0.1771
    157  C          7.6320  -34.3270   43.8790 C.2   312  PHE312      0.2620
    158  O          8.1590  -33.2420   43.6000 O.2   312  PHE312     -0.2715
    159  CB         8.1970  -35.6060   41.7740 C.3   312  PHE312      0.0574
    160  CG         8.9320  -36.8260   41.2530 C.ar  312  PHE312     -0.0200
    161  CD1       10.2870  -37.0140   41.5260 C.ar  312  PHE312     -0.0042
    162  CD2        8.2620  -37.8050   40.5420 C.ar  312  PHE312     -0.0042
    163  CE1       10.9610  -38.1560   41.0650 C.ar  312  PHE312     -0.0003
    164  CE2        8.9430  -38.9290   40.0580 C.ar  312  PHE312     -0.0003
    165  CZ        10.2790  -39.1130   40.3640 C.ar  312  PHE312     -0.0000
    166  N          6.6020  -34.4450   44.7510 N.am  313  HIS313     -0.1959
    167  CA         6.0690  -33.2620   45.4310 C.3   313  HIS313      0.1787
    168  C          6.4270  -33.2420   46.9300 C.2   313  HIS313      0.2620
    169  O          6.0570  -32.2940   47.6060 O.2   313  HIS313     -0.2715
    170  CB         4.5430  -33.1010   45.2310 C.3   313  HIS313      0.0785
    171  CG         4.1040  -31.6690   45.0950 C.ar  313  HIS313      0.0821
    172  ND1        4.3820  -30.7190   46.0750 N.ar  313  HIS313     -0.2267
    173  CD2        3.4380  -31.0660   44.0820 C.ar  313  HIS313      0.1154
    174  CE1        3.8810  -29.5760   45.6280 C.ar  313  HIS313      0.1986
    175  NE2        3.3010  -29.7320   44.4330 N.ar  313  HIS313     -0.2212
    176  N          7.1480  -34.2570   47.4280 N.am  314  GLY314     -0.1954
    177  CA         7.4710  -34.3590   48.8500 C.3   314  GLY314      0.1869
    178  C          6.1970  -34.3240   49.6780 C.2   314  GLY314      0.2309
    179  O          6.1200  -33.5980   50.6760 O.2   314  GLY314     -0.2863
    180  N          4.9600  -32.5790   39.1150 N.3   362  ASN362     -0.1240
    181  CA         6.0830  -31.8540   39.7010 C.3   362  ASN362      0.1653
    182  C          7.4730  -32.3310   39.2320 C.2   362  ASN362      0.2266
    183  O          8.4280  -31.5730   39.3760 O.2   362  ASN362     -0.2867
    184  CB         5.9920  -31.8200   41.2160 C.3   362  ASN362      0.1155
    185  CG         6.6360  -30.5800   41.8130 C.2   362  ASN362      0.2627
    186  OD1        6.3020  -29.4450   41.4570 O.2   362  ASN362     -0.2716
    187  ND2        7.6000  -30.7530   42.7090 N.am  362  ASN362     -0.0877
    188  N         10.8380  -29.7310   38.3770 N.3   366  MET366     -0.1245
    189  CA        12.1030  -29.8080   39.1060 C.3   366  MET366      0.1570
    190  C         13.3110  -30.0800   38.2150 C.2   366  MET366      0.2261
    191  O         14.3720  -29.4880   38.4300 O.2   366  MET366     -0.2867
    192  CB        12.0380  -30.9330   40.1500 C.3   366  MET366      0.0387
    193  CG        11.1210  -30.6480   41.2990 C.3   366  MET366      0.0595
    194  SD        11.1260  -32.0240   42.4740 S.3   366  MET366     -0.1393
    195  CE        12.7440  -31.9360   43.0860 C.3   366  MET366      0.0692
    196  N          2.3800  -24.6950   44.0380 N.3   394  TYR394     -0.1241
    197  CA         3.3340  -25.2600   44.9930 C.3   394  TYR394      0.1605
    198  C          3.0150  -24.7270   46.4000 C.2   394  TYR394      0.2264
    199  O          2.9700  -25.5130   47.3490 O.2   394  TYR394     -0.2867
    200  CB         4.8010  -25.0010   44.5840 C.3   394  TYR394      0.0534
    201  CG         5.7670  -25.5600   45.6100 C.ar  394  TYR394     -0.0201
    202  CD1        6.1880  -26.8880   45.5510 C.ar  394  TYR394     -0.0009
    203  CD2        6.1640  -24.8000   46.7060 C.ar  394  TYR394     -0.0009
    204  CE1        7.0190  -27.4290   46.5360 C.ar  394  TYR394      0.0417
    205  CE2        6.9780  -25.3320   47.7030 C.ar  394  TYR394      0.0417
    206  CZ         7.4120  -26.6440   47.6100 C.ar  394  TYR394      0.1957
    207  OH         8.2060  -27.1360   48.6180 O.3   394  TYR394     -0.2866
@<TRIPOS>BOND
     1    98    99    1
     2   190   191    2
     3   190   189    1
     4   132   131    2
     5   188   189    1
     6    99   102    1
     7    99   100    1
     8   102   103    1
     9   131   130    1
    10   189   192    1
    11   180   181    1
    12   182   183    2
    13   182   181    1
    14   103   104    1
    15   181   184    1
    16   104   105    1
    17   100   101    2
    18   164   165   ar
    19   164   162   ar
    20   192   193    1
    21   130   133    1
    22   130   129    1
    23   165   163   ar
    24   133   134    1
    25   162   160   ar
    26   143   142    2
    27    40    38    1
    28   163   161   ar
    29   184   185    1
    30   160   161   ar
    31   160   159    1
    32   193   194    1
    33   186   185    2
    34    96    94    1
    35   146   145    1
    36   142   141    1
    37   134   135   ar
    38   134   136   ar
    39    39    38    1
    40   159   156    1
    41   185   187   am
    42    38    37    2
    43   144   145    1
    44   144   141    1
    45    93    92    2
    46    61    62    1
    47    92    91    1
    48   140   141    1
    49   135   137   ar
    50   145   147    1
    51   194   195    1
    52   136   138   ar
    53    94    91    1
    54    94    95    1
    55    37    36    1
    56    62    63    1
    57    62    65    1
    58    36    35    1
    59   156   155    1
    60   156   157    1
    61    91    90    1
    62    97    95    1
    63   137   139   ar
    64   158   157    2
    65   138   139   ar
    66   155   150   am
    67    63    64    2
    68   154   148    1
    69   154   153    1
    70   157   166   am
    71    65    66    1
    72   196   197    1
    73   173   175   ar
    74   173   171   ar
    75   112   110    1
    76   125   124    2
    77   106   107    1
    78    35    34    1
    79   148   149    1
    80   175   174   ar
    81   153   152    1
    82   200   197    1
    83   200   201    1
    84   124   123    1
    85   166   167    1
    86   197   198    1
    87    68    66   ar
    88    68    70   ar
    89   150   149    1
    90   150   151    2
    91   171   170    1
    92   171   172   ar
    93    66    67   ar
    94   170   167    1
    95   107   110    1
    96   107   108    1
    97   167   168    1
    98   149   152    1
    99   110   111    1
   100    34    31    1
   101   202   201   ar
   102   202   204   ar
   103    33    32    2
   104   201   203   ar
   105   174   172   ar
   106   128   126    1
   107   111   113    1
   108    32    31    1
   109    70    71   ar
   110   123   126    1
   111   123   122    1
   112    67    69   ar
   113   198   199    2
   114   126   127    1
   115   204   206   ar
   116   108   109    2
   117    31    30    1
   118   203   205   ar
   119   168   176   am
   120   168   169    2
   121    89    87    1
   122    73    74    1
   123    49    47   ar
   124    49    51   ar
   125    71    69   ar
   126    71    72    1
   127   176   177    1
   128    52    51    1
   129    85    84    2
   130   206   205   ar
   131   206   207    1
   132    47    46   ar
   133    51    50   ar
   134    74    75    1
   135    74    77    1
   136    84    83    1
   137    75    76    2
   138    44    43    2
   139    87    88    1
   140    87    86    1
   141   177   178    1
   142    42    41    1
   143    42    43    1
   144    42    45    1
   145    46    45    1
   146    46    48   ar
   147    86    83    1
   148    50    48   ar
   149    78    77    1
   150    78    79    1
   151    83    82    1
   152   178   179    2
   153   120   119    1
   154    79    80   ar
   155    79    81   ar
   156   114   115    1
   157    60    58    1
   158   119   121    1
   159   119   118    1
   160   115   118    1
   161   115   116    1
   162    29    26    1
   163    58    57    1
   164    59    57    1
   165   116   117    2
   166    57    54    1
   167    12    11    2
   168    28    27    2
   169    25    26    1
   170    25    19   am
   171    26    27    1
   172     8     6    1
   173    53    54    1
   174    18    19    1
   175    18    17    1
   176    18    21    1
   177    11    17   am
   178    11    10    1
   179     5     7    1
   180     5     6    1
   181     5     2    1
   182    19    20    2
   183    54    55    1
   184    24    22    1
   185    13    10    1
   186    13    14    1
   187     9    10    1
   188     9     3   am
   189    21    22    1
   190    22    23    1
   191     2     3    1
   192     2     1    1
   193    15    14    2
   194    55    56    2
   195     3     4    2
   196    14    16   am
