@<TRIPOS>MOLECULE
tmp/5nauA00.pdb
 200 200 0 0 0
SMALL
GASTEIGER

@<TRIPOS>ATOM
      1  N        107.6130  135.1860  179.8750 N.3    67  TYR67      -0.1241
      2  CA       108.1640  134.8940  181.1940 C.3    67  TYR67       0.1605
      3  C        109.6450  135.1870  181.2460 C.2    67  TYR67       0.2264
      4  O        110.3840  134.7770  180.3350 O.2    67  TYR67      -0.2867
      5  CB       107.9170  133.4460  181.5850 C.3    67  TYR67       0.0534
      6  CG       108.4580  133.0680  182.9710 C.ar   67  TYR67      -0.0201
      7  CD1      107.6590  133.1880  184.1260 C.ar   67  TYR67      -0.0009
      8  CD2      109.7290  132.5570  183.1230 C.ar   67  TYR67      -0.0009
      9  CE1      108.1500  132.8190  185.3860 C.ar   67  TYR67       0.0417
     10  CE2      110.2360  132.2020  184.3860 C.ar   67  TYR67       0.0417
     11  CZ       109.4380  132.3280  185.5190 C.ar   67  TYR67       0.1957
     12  OH       109.9580  131.9890  186.7630 O.3    67  TYR67      -0.2866
     13  N        113.0450  134.7210  183.6260 N.3    69  ASP69      -0.1239
     14  CA       113.6280  133.8960  184.7070 C.3    69  ASP69       0.1674
     15  C        114.2660  134.8250  185.7420 C.2    69  ASP69       0.2266
     16  O        115.1780  135.5650  185.4200 O.2    69  ASP69      -0.2867
     17  CB       114.6720  132.9340  184.1120 C.3    69  ASP69       0.1410
     18  CG       115.4370  132.0970  185.1660 C.2    69  ASP69       0.3668
     19  OD1      115.4160  132.4560  186.3550 O.co2  69  ASP69      -0.2456
     20  OD2      116.1090  131.1090  184.7770 O.co2  69  ASP69      -0.2456
     21  N        121.7780  131.8950  183.7150 N.3    78  SER78      -0.1217
     22  CA       120.3500  131.9120  183.4910 C.3    78  SER78       0.1889
     23  C        119.9650  133.1540  182.7140 C.2    78  SER78       0.2288
     24  O        118.9870  133.1600  181.9540 O.2    78  SER78      -0.2866
     25  CB       119.5630  131.9010  184.8250 C.3    78  SER78       0.2089
     26  OG       119.9790  132.9370  185.7210 O.3    78  SER78      -0.2183
     27  N        119.8100  133.6390  178.7950 N.3    81  TRP81      -0.1241
     28  CA       118.6220  133.1970  178.0840 C.3    81  TRP81       0.1605
     29  C        117.4640  134.1570  178.0850 C.2    81  TRP81       0.2264
     30  O        116.4620  133.9330  177.3930 O.2    81  TRP81      -0.2867
     31  CB       118.1890  131.8550  178.6170 C.3    81  TRP81       0.0550
     32  CG       119.3010  130.9060  178.6080 C.ar   81  TRP81       0.0003
     33  CD1      120.0040  130.4580  179.6870 C.ar   81  TRP81       0.0946
     34  CD2      119.8900  130.2730  177.4720 C.ar   81  TRP81       0.0152
     35  NE1      120.9650  129.5600  179.3010 N.ar   81  TRP81      -0.2442
     36  CE2      120.9120  129.4240  177.9430 C.ar   81  TRP81       0.0810
     37  CE3      119.6430  130.3190  176.0940 C.ar   81  TRP81       0.0012
     38  CZ2      121.6800  128.6470  177.0930 C.ar   81  TRP81       0.0191
     39  CZ3      120.4120  129.5280  175.2520 C.ar   81  TRP81       0.0001
     40  CH2      121.4150  128.7210  175.7510 C.ar   81  TRP81       0.0015
     41  N        114.9400  128.4040  170.5170 N.3   114  GLY114     -0.1210
     42  CA       114.1920  127.5900  171.5200 C.3   114  GLY114      0.1956
     43  C        113.6860  128.4650  172.6830 C.2   114  GLY114      0.2612
     44  O        113.7450  129.7320  172.6150 O.2   114  GLY114     -0.2717
     45  N        113.1940  127.7970  173.7450 N.am  115  GLY115     -0.1956
     46  CA       112.5280  128.4800  174.8640 C.3   115  GLY115      0.1869
     47  C        111.2620  127.8340  175.2860 C.2   115  GLY115      0.2309
     48  O        110.4170  128.5160  175.8670 O.2   115  GLY115     -0.2863
     49  N        107.4870  129.2280  175.2490 N.3   118  TYR118     -0.1227
     50  CA       106.9870  130.2070  176.2450 C.3   118  TYR118      0.1736
     51  C        107.9360  131.3430  176.3650 C.2   118  TYR118      0.2596
     52  O        107.6350  132.3890  176.9870 O.2   118  TYR118     -0.2718
     53  CB       106.7890  129.4990  177.6410 C.3   118  TYR118      0.0548
     54  CG       108.0870  129.1860  178.4000 C.ar  118  TYR118     -0.0200
     55  CD1      108.7140  130.1510  179.1390 C.ar  118  TYR118     -0.0009
     56  CD2      108.6770  127.9350  178.3410 C.ar  118  TYR118     -0.0009
     57  CE1      109.9000  129.8900  179.8460 C.ar  118  TYR118      0.0417
     58  CE2      109.8420  127.6380  179.0410 C.ar  118  TYR118      0.0417
     59  CZ       110.4570  128.6500  179.7910 C.ar  118  TYR118      0.1957
     60  OH       111.6440  128.4480  180.4610 O.3   118  TYR118     -0.2866
     61  N        109.1190  131.1720  175.7750 N.am  119  SER119     -0.1952
     62  CA       110.0540  132.2480  175.7800 C.3   119  SER119      0.1924
     63  C        110.9990  132.1300  174.6210 C.2   119  SER119      0.2314
     64  O        110.9680  131.1480  173.8650 O.2   119  SER119     -0.2863
     65  CB       110.8910  132.1160  177.0870 C.3   119  SER119      0.2116
     66  OG       111.4950  130.8370  177.2360 O.3   119  SER119     -0.2180
     67  N        123.2750  133.7270  170.2530 N.3   127  TYR127     -0.1241
     68  CA       122.6730  133.5460  168.9130 C.3   127  TYR127      0.1605
     69  C        123.2210  134.6310  167.9310 C.2   127  TYR127      0.2264
     70  O        122.6910  134.7740  166.8460 O.2   127  TYR127     -0.2867
     71  CB       121.1530  133.6990  168.9210 C.3   127  TYR127      0.0534
     72  CG       120.3720  132.8070  169.8190 C.ar  127  TYR127     -0.0201
     73  CD1      120.8410  131.5860  170.1970 C.ar  127  TYR127     -0.0009
     74  CD2      119.1660  133.2200  170.3000 C.ar  127  TYR127     -0.0009
     75  CE1      120.1230  130.7820  171.0180 C.ar  127  TYR127      0.0417
     76  CE2      118.3810  132.3850  171.0730 C.ar  127  TYR127      0.0417
     77  CZ       118.8810  131.1880  171.4690 C.ar  127  TYR127      0.1957
     78  OH       118.1350  130.3680  172.3020 O.3   127  TYR127     -0.2866
     79  N        117.3410  124.9910  168.0490 N.3   196  GLU196     -0.1231
     80  CA       117.5670  124.2080  169.2820 C.3   196  GLU196      0.1699
     81  C        116.3480  124.0640  170.1730 C.2   196  GLU196      0.2592
     82  O        115.5750  124.9860  170.3410 O.2   196  GLU196     -0.2718
     83  CB       118.7880  124.7050  170.0560 C.3   196  GLU196      0.0402
     84  CG       119.2650  123.7480  171.1890 C.3   196  GLU196      0.1161
     85  CD       118.5670  124.0210  172.5440 C.2   196  GLU196      0.3649
     86  OE1      117.8220  125.0310  172.5980 O.co2 196  GLU196     -0.2457
     87  OE2      118.7810  123.2510  173.5470 O.co2 196  GLU196     -0.2457
     88  N        116.1740  122.8690  170.7060 N.am  197  SER197     -0.1952
     89  CA       115.0660  122.5720  171.6150 C.3   197  SER197      0.1924
     90  C        113.7310  122.8470  170.9370 C.2   197  SER197      0.2314
     91  O        113.4200  122.1200  170.0200 O.2   197  SER197     -0.2863
     92  CB       115.1970  123.2840  172.9760 C.3   197  SER197      0.2116
     93  OG       114.2570  122.6810  173.9110 O.3   197  SER197     -0.2180
     94  N        101.3880  129.5530  183.9730 N.3   276  TRP276     -0.1241
     95  CA       101.7840  128.2910  184.5410 C.3   276  TRP276      0.1605
     96  C        100.6610  127.6430  185.3170 C.2   276  TRP276      0.2264
     97  O        100.6780  126.4420  185.4690 O.2   276  TRP276     -0.2867
     98  CB       102.9970  128.5040  185.3980 C.3   276  TRP276      0.0550
     99  CG       104.1030  129.0240  184.6200 C.ar  276  TRP276      0.0003
    100  CD1      104.5000  130.3170  184.5330 C.ar  276  TRP276      0.0946
    101  CD2      104.9680  128.2650  183.7730 C.ar  276  TRP276      0.0152
    102  NE1      105.6090  130.4190  183.6950 N.ar  276  TRP276     -0.2442
    103  CE2      105.8980  129.1640  183.2060 C.ar  276  TRP276      0.0810
    104  CE3      105.0640  126.9220  183.4700 C.ar  276  TRP276      0.0012
    105  CZ2      106.9080  128.7520  182.3220 C.ar  276  TRP276      0.0191
    106  CZ3      106.1100  126.4780  182.6100 C.ar  276  TRP276      0.0001
    107  CH2      107.0110  127.3980  182.0480 C.ar  276  TRP276      0.0015
    108  N        107.3580  118.2870  185.3170 N.3   284  ILE284     -0.1231
    109  CA       108.4290  119.0570  184.7830 C.3   284  ILE284      0.1692
    110  C        108.5530  118.8310  183.2280 C.2   284  ILE284      0.2592
    111  O        108.1120  117.8120  182.6960 O.2   284  ILE284     -0.2718
    112  CB       109.7710  118.7140  185.4260 C.3   284  ILE284      0.0266
    113  CG1      110.1070  117.2920  185.2160 C.3   284  ILE284      0.0019
    114  CG2      109.8080  119.0230  186.9180 C.3   284  ILE284      0.0020
    115  CD1      111.4830  116.9980  185.7710 C.3   284  ILE284      0.0001
    116  N        109.2360  119.7500  182.5650 N.am  285  PHE285     -0.1962
    117  CA       109.4170  119.7210  181.1110 C.3   285  PHE285      0.1771
    118  C        108.0520  119.7490  180.3930 C.2   285  PHE285      0.2619
    119  O        107.8080  118.9410  179.5150 O.2   285  PHE285     -0.2715
    120  CB       110.2590  118.4990  180.6790 C.3   285  PHE285      0.0574
    121  CG       111.2400  118.8050  179.5520 C.ar  285  PHE285     -0.0200
    122  CD1      110.8450  119.5420  178.4260 C.ar  285  PHE285     -0.0042
    123  CD2      112.4760  118.3160  179.5800 C.ar  285  PHE285     -0.0042
    124  CE1      111.7270  119.7940  177.3950 C.ar  285  PHE285     -0.0003
    125  CE2      113.3630  118.5780  178.5610 C.ar  285  PHE285     -0.0003
    126  CZ       112.9870  119.3320  177.4630 C.ar  285  PHE285     -0.0000
    127  N        107.1600  120.6010  180.8740 N.am  286  ARG286     -0.1963
    128  CA       105.8700  120.8330  180.3000 C.3   286  ARG286      0.1729
    129  C        105.5580  122.3090  180.3590 C.2   286  ARG286      0.2616
    130  O        105.8100  122.9800  181.3990 O.2   286  ARG286     -0.2715
    131  CB       104.7680  120.1350  181.0310 C.3   286  ARG286      0.0348
    132  CG       104.8020  118.6200  180.9670 C.3   286  ARG286      0.0492
    133  CD       104.6860  118.0850  179.5500 C.3   286  ARG286      0.2205
    134  NE       104.7720  116.6230  179.4420 N.pl3 286  ARG286     -0.0865
    135  CZ       105.8740  115.9040  179.2970 C.cat 286  ARG286      0.5346
    136  NH1      107.0750  116.4420  179.3400 N.pl3 286  ARG286      0.1354
    137  NH2      105.7590  114.5930  179.1860 N.pl3 286  ARG286      0.1354
    138  N        104.9950  122.8020  179.2320 N.am  287  PHE287     -0.1974
    139  CA       104.7850  124.2010  178.9900 C.3   287  PHE287      0.1639
    140  C        103.3620  124.3570  178.5400 C.2   287  PHE287      0.2290
    141  O        102.7790  123.5070  177.9060 O.2   287  PHE287     -0.2864
    142  CB       105.7810  124.7050  177.9310 C.3   287  PHE287      0.0560
    143  CG       107.1670  124.1740  178.1280 C.ar  287  PHE287     -0.0200
    144  CD1      107.9000  124.5570  179.2010 C.ar  287  PHE287     -0.0042
    145  CD2      107.7180  123.2480  177.2390 C.ar  287  PHE287     -0.0042
    146  CE1      109.1790  124.0380  179.4240 C.ar  287  PHE287     -0.0003
    147  CE2      108.9790  122.7380  177.4280 C.ar  287  PHE287     -0.0003
    148  CZ       109.7220  123.1290  178.5290 C.ar  287  PHE287     -0.0000
    149  N        118.7110  120.7470  183.3960 N.3   327  PHE327     -0.1227
    150  CA       118.0970  122.0450  183.5850 C.3   327  PHE327      0.1736
    151  C        116.7380  122.0010  184.2310 C.2   327  PHE327      0.2595
    152  O        116.3550  122.8840  185.0350 O.2   327  PHE327     -0.2718
    153  CB       117.8970  122.7480  182.2470 C.3   327  PHE327      0.0547
    154  CG       118.6790  123.9960  182.0840 C.ar  327  PHE327     -0.0202
    155  CD1      118.5470  125.0270  182.9880 C.ar  327  PHE327     -0.0042
    156  CD2      119.5080  124.1590  180.9810 C.ar  327  PHE327     -0.0042
    157  CE1      119.2500  126.2040  182.8350 C.ar  327  PHE327     -0.0003
    158  CE2      120.2200  125.3330  180.8100 C.ar  327  PHE327     -0.0003
    159  CZ       120.0960  126.3730  181.7480 C.ar  327  PHE327     -0.0000
    160  N        115.9840  120.9870  183.8500 N.am  328  PHE328     -0.1976
    161  CA       114.5670  120.9180  184.1760 C.3   328  PHE328      0.1639
    162  C        114.4140  120.3400  185.5760 C.2   328  PHE328      0.2290
    163  O        113.4780  120.6890  186.2570 O.2   328  PHE328     -0.2864
    164  CB       113.8100  120.0330  183.1140 C.3   328  PHE328      0.0560
    165  CG       113.9090  120.6120  181.7320 C.ar  328  PHE328     -0.0200
    166  CD1      114.9860  120.3040  180.9250 C.ar  328  PHE328     -0.0042
    167  CD2      113.0570  121.6210  181.3570 C.ar  328  PHE328     -0.0042
    168  CE1      115.1530  120.9170  179.7060 C.ar  328  PHE328     -0.0003
    169  CE2      113.2160  122.2360  180.1390 C.ar  328  PHE328     -0.0003
    170  CZ       114.2730  121.8970  179.3120 C.ar  328  PHE328     -0.0000
    171  N        115.2720  123.3700  188.0130 N.3   331  TYR331     -0.1227
    172  CA       114.2210  124.3320  188.1600 C.3   331  TYR331      0.1736
    173  C        112.9480  123.6900  188.7650 C.2   331  TYR331      0.2596
    174  O        112.2420  124.3260  189.4990 O.2   331  TYR331     -0.2718
    175  CB       113.9060  124.9990  186.8140 C.3   331  TYR331      0.0548
    176  CG       114.8540  126.1350  186.4900 C.ar  331  TYR331     -0.0200
    177  CD1      116.1760  125.8890  186.1410 C.ar  331  TYR331     -0.0009
    178  CD2      114.4610  127.4610  186.6320 C.ar  331  TYR331     -0.0009
    179  CE1      117.0700  126.9490  185.9060 C.ar  331  TYR331      0.0417
    180  CE2      115.3480  128.5100  186.3970 C.ar  331  TYR331      0.0417
    181  CZ       116.6460  128.2480  186.0310 C.ar  331  TYR331      0.1957
    182  OH       117.5100  129.2860  185.7720 O.3   331  TYR331     -0.2866
    183  N        112.6820  122.4240  188.5060 N.am  332  GLY332     -0.1957
    184  CA       111.3700  121.8980  188.7820 C.3   332  GLY332      0.1869
    185  C        111.2420  120.7760  189.7860 C.2   332  GLY332      0.2309
    186  O        110.1430  120.3620  190.1030 O.2   332  GLY332     -0.2863
    187  N        121.5180  120.9400  178.3260 N.3   437  HIS437     -0.1226
    188  CA       120.6420  121.3710  177.2630 C.3   437  HIS437      0.1752
    189  C        120.9740  122.8260  176.9130 C.2   437  HIS437      0.2596
    190  O        120.9980  123.6810  177.7670 O.2   437  HIS437     -0.2718
    191  CB       119.2490  121.1460  177.7970 C.3   437  HIS437      0.0759
    192  CG       118.1350  121.5820  176.9140 C.ar  437  HIS437      0.0818
    193  ND1      117.6000  120.7630  175.9320 N.ar  437  HIS437     -0.2268
    194  CD2      117.3620  122.6960  176.9500 C.ar  437  HIS437      0.1154
    195  CE1      116.5570  121.3670  175.3860 C.ar  437  HIS437      0.1986
    196  NE2      116.4020  122.5480  175.9780 N.ar  437  HIS437     -0.2212
    197  N        121.3620  123.0780  175.6730 N.am  438  GLY438     -0.1957
    198  CA       121.5740  124.4420  175.1400 C.3   438  GLY438      0.1869
    199  C        123.0200  124.8740  175.0590 C.2   438  GLY438      0.2309
    200  O        123.3370  125.9100  174.5130 O.2   438  GLY438     -0.2863
@<TRIPOS>BOND
     1    70    69    2
     2    69    68    1
     3    79    80    1
     4    68    71    1
     5    68    67    1
     6    71    72    1
     7    80    83    1
     8    80    81    1
     9    72    73   ar
    10    72    74   ar
    11    91    90    2
    12    83    84    1
    13    81    82    2
    14    81    88   am
    15    73    75   ar
    16    74    76   ar
    17    41    42    1
    18    88    89    1
    19    90    89    1
    20    75    77   ar
    21    76    77   ar
    22    84    85    1
    23    77    78    1
    24    42    43    1
    25    89    92    1
    26    85    86   ar
    27    85    87   ar
    28    44    43    2
    29    43    45   am
    30    92    93    1
    31    45    46    1
    32    64    63    2
    33   200   199    2
    34    63    62    1
    35    46    47    1
    36   199   198    1
    37   198   197    1
    38    49    50    1
    39    39    40   ar
    40    39    37   ar
    41    47    48    2
    42   195   193   ar
    43   195   196   ar
    44   197   189   am
    45    40    38   ar
    46    61    62    1
    47    61    51   am
    48    62    65    1
    49   193   192   ar
    50   196   194   ar
    51    37    34   ar
    52    50    51    1
    53    50    53    1
    54    51    52    2
    55   189   188    1
    56   189   190    2
    57   192   194   ar
    58   192   191    1
    59    65    66    1
    60    38    36   ar
    61   145   147   ar
    62   145   143   ar
    63   188   191    1
    64   188   187    1
    65    30    29    2
    66   124   126   ar
    67   124   122   ar
    68   147   148   ar
    69   126   125   ar
    70    34    36   ar
    71    34    32   ar
    72    53    54    1
    73   141   140    2
    74   142   143    1
    75   142   139    1
    76    36    35   ar
    77    28    29    1
    78    28    31    1
    79    28    27    1
    80   143   144   ar
    81    56    54   ar
    82    56    58   ar
    83    54    55   ar
    84   122   121   ar
    85   148   146   ar
    86   140   139    1
    87   125   123   ar
    88    32    31    1
    89    32    33   ar
    90   139   138    1
    91    58    59   ar
    92    55    57   ar
    93   137   135    1
    94   144   146   ar
    95   138   129   am
    96   135   136    1
    97   135   134    2
    98    35    33   ar
    99   170   168   ar
   100   170   169   ar
   101   134   133    1
   102   119   118    2
   103   133   132    1
   104   121   123   ar
   105   121   120    1
   106   168   166   ar
   107    59    57   ar
   108    59    60    1
   109     1     2    1
   110   169   167   ar
   111   128   129    1
   112   128   127    1
   113   128   131    1
   114     4     3    2
   115   129   130    2
   116   118   127   am
   117   118   117    1
   118   120   117    1
   119   158   156   ar
   120   158   159   ar
   121   166   165   ar
   122   132   131    1
   123   156   154   ar
   124   117   116    1
   125     2     3    1
   126     2     5    1
   127   167   165   ar
   128     5     6    1
   129   165   164    1
   130   159   157   ar
   131    24    23    2
   132   107   105   ar
   133   107   106   ar
   134   154   153    1
   135   154   155   ar
   136   153   150    1
   137   105   103   ar
   138   116   110   am
   139   106   104   ar
   140   111   110    2
   141    23    22    1
   142   157   155   ar
   143     6     8   ar
   144     6     7   ar
   145   164   161    1
   146     8    10   ar
   147   103   102   ar
   148   103   101   ar
   149   110   109    1
   150   149   150    1
   151   104   101   ar
   152    22    21    1
   153    22    25    1
   154   150   151    1
   155    13    14    1
   156   102   100   ar
   157   101    99   ar
   158   160   161    1
   159   160   151   am
   160    94    95    1
   161    17    14    1
   162    17    18    1
   163     7     9   ar
   164   161   162    1
   165   151   152    2
   166    10    11   ar
   167   100    99   ar
   168    95    96    1
   169    95    98    1
   170    99    98    1
   171    14    15    1
   172    20    18   ar
   173   109   108    1
   174   109   112    1
   175    25    26    1
   176    18    19   ar
   177   113   112    1
   178   113   115    1
   179    96    97    2
   180     9    11   ar
   181    16    15    2
   182   112   114    1
   183    11    12    1
   184   162   163    2
   185   182   181    1
   186   179   181   ar
   187   179   177   ar
   188   181   180   ar
   189   177   176   ar
   190   180   178   ar
   191   176   178   ar
   192   176   175    1
   193   175   172    1
   194   171   172    1
   195   172   173    1
   196   183   173   am
   197   183   184    1
   198   173   174    2
   199   184   185    1
   200   185   186    2
