@<TRIPOS>MOLECULE
tmp/5nb3Q04.pdb
 79 76 0 0 0
SMALL
GASTEIGER

@<TRIPOS>ATOM
      1  N        185.9620   88.8890   72.1200 N.3     3  ASP3       -0.1225
      2  CA       187.2000   88.1180   72.0270 C.3     3  ASP3        0.1805
      3  C        188.2140   88.5770   73.0820 C.2     3  ASP3        0.2598
      4  O        187.9350   89.4660   73.8800 O.2     3  ASP3       -0.2718
      5  CB       187.7220   88.1640   70.5840 C.3     3  ASP3        0.1424
      6  CG       188.1280   89.5540   70.1050 C.2     3  ASP3        0.3668
      7  OD1      188.8450   90.2710   70.8430 O.co2   3  ASP3       -0.2456
      8  OD2      187.7950   89.9420   68.9210 O.co2   3  ASP3       -0.2456
      9  N        189.4200   87.9760   73.1090 N.am    4  ALA4       -0.1966
     10  CA       190.3770   88.3690   74.1880 C.3     4  ALA4        0.1728
     11  C        190.7130   89.8630   74.1650 C.2     4  ALA4        0.2616
     12  O        190.8840   90.4870   75.2310 O.2     4  ALA4       -0.2715
     13  CB       191.6440   87.5440   74.1170 C.3     4  ALA4        0.0334
     14  N        190.7770   90.4430   72.9760 N.am    5  PHE5       -0.1974
     15  CA       191.1470   91.8660   72.8020 C.3     5  PHE5        0.1639
     16  C        189.9700   92.8230   73.1650 C.2     5  PHE5        0.2290
     17  O        190.1540   93.8610   73.8390 O.2     5  PHE5       -0.2864
     18  CB       191.6940   92.1460   71.3630 C.3     5  PHE5        0.0560
     19  CG       193.1010   91.5900   71.0880 C.ar    5  PHE5       -0.0200
     20  CD1      193.3230   90.2050   71.0060 C.ar    5  PHE5       -0.0042
     21  CD2      194.1910   92.4410   70.8870 C.ar    5  PHE5       -0.0042
     22  CE1      194.5970   89.6860   70.7890 C.ar    5  PHE5       -0.0003
     23  CE2      195.4710   91.9180   70.6450 C.ar    5  PHE5       -0.0003
     24  CZ       195.6690   90.5380   70.5860 C.ar    5  PHE5       -0.0000
     25  N        199.6770   87.2580   73.5020 N.3    28  PHE28      -0.1227
     26  CA       198.6060   86.5350   72.8470 C.3    28  PHE28       0.1736
     27  C        198.9420   86.4050   71.3590 C.2    28  PHE28       0.2595
     28  O        198.7420   85.3520   70.7850 O.2    28  PHE28      -0.2718
     29  CB       197.2430   87.2220   73.0990 C.3    28  PHE28       0.0547
     30  CG       196.0540   86.4900   72.5280 C.ar   28  PHE28      -0.0202
     31  CD1      195.8000   86.4670   71.1580 C.ar   28  PHE28      -0.0042
     32  CD2      195.1520   85.8570   73.3730 C.ar   28  PHE28      -0.0042
     33  CE1      194.6880   85.8030   70.6470 C.ar   28  PHE28      -0.0003
     34  CE2      194.0560   85.1870   72.8670 C.ar   28  PHE28      -0.0003
     35  CZ       193.8180   85.1640   71.5160 C.ar   28  PHE28      -0.0000
     36  N        199.4770   87.4720   70.7460 N.am   29  ILE29      -0.1980
     37  CA       199.8340   87.4170   69.3420 C.3    29  ILE29       0.1595
     38  C        200.9900   86.4150   69.0930 C.2    29  ILE29       0.2287
     39  O        200.9180   85.6340   68.1650 O.2    29  ILE29      -0.2864
     40  CB       200.1760   88.8020   68.7500 C.3    29  ILE29       0.0276
     41  CG1      198.9690   89.7590   68.8210 C.3    29  ILE29       0.0022
     42  CG2      200.6900   88.6550   67.3210 C.3    29  ILE29       0.0022
     43  CD1      197.7710   89.3660   68.0120 C.3    29  ILE29       0.0001
     44  N        199.7770   82.9850   68.8360 N.3    32  GLY32      -0.1225
     45  CA       198.7050   82.8200   67.8400 C.3    32  GLY32       0.1811
     46  C        198.7010   81.5460   66.9850 C.2    32  GLY32       0.2280
     47  O        197.6930   80.8670   66.8760 O.2    32  GLY32      -0.2866
     48  N        197.7200   78.5670   69.0590 N.3    35  ARG35      -0.1231
     49  CA       196.2710   78.5650   69.2560 C.3    35  ARG35       0.1694
     50  C        195.5370   77.9670   68.0300 C.2    35  ARG35       0.2591
     51  O        194.5650   77.1680   68.2210 O.2    35  ARG35      -0.2718
     52  CB       195.8050   79.9920   69.5450 C.3    35  ARG35       0.0321
     53  CG       194.3270   80.1320   69.7950 C.3    35  ARG35       0.0489
     54  CD       193.8970   81.5220   70.2450 C.3    35  ARG35       0.2205
     55  NE       194.5180   81.9550   71.4970 N.pl3  35  ARG35      -0.0865
     56  CZ       194.0720   81.6590   72.7220 C.cat  35  ARG35       0.5346
     57  NH1      192.8950   81.0330   72.9080 N.pl3  35  ARG35       0.1354
     58  NH2      194.7220   82.0840   73.8010 N.pl3  35  ARG35       0.1354
     59  N        195.9380   78.3700   66.8270 N.am   36  LEU36      -0.1980
     60  CA       195.3970   77.7960   65.5730 C.3    36  LEU36       0.1596
     61  C        195.6070   76.2740   65.5110 C.2    36  LEU36       0.2287
     62  O        194.6770   75.5020   65.1220 O.2    36  LEU36      -0.2864
     63  CB       195.8570   78.5320   64.3120 C.3    36  LEU36       0.0297
     64  CG       195.6070   80.0480   64.2730 C.3    36  LEU36       0.0022
     65  CD1      196.1980   80.7020   63.0450 C.3    36  LEU36       0.0001
     66  CD2      194.1080   80.3540   64.4170 C.3    36  LEU36       0.0001
     67  N        189.1450   79.6150   69.8660 N.3    95  LEU95      -0.1231
     68  CA       189.5730   80.4230   68.7530 C.3    95  LEU95       0.1693
     69  C        189.5830   81.9080   69.1170 C.2    95  LEU95       0.2591
     70  O        190.5060   82.6440   68.7520 O.2    95  LEU95      -0.2718
     71  CB       188.7200   80.1380   67.5240 C.3    95  LEU95       0.0284
     72  CG       189.1000   80.8020   66.1890 C.3    95  LEU95       0.0019
     73  CD1      190.4770   80.3660   65.7240 C.3    95  LEU95       0.0001
     74  CD2      188.0350   80.6880   65.1210 C.3    95  LEU95       0.0001
     75  N        188.5290   82.3570   69.8220 N.am   96  ALA96      -0.1980
     76  CA       188.3920   83.7640   70.2670 C.3    96  ALA96       0.1597
     77  C        189.2560   84.1810   71.4650 C.2    96  ALA96       0.2287
     78  O        189.5170   85.3880   71.6500 O.2    96  ALA96      -0.2864
     79  CB       186.9350   84.0970   70.6080 C.3    96  ALA96       0.0319
@<TRIPOS>BOND
     1    65    64    1
     2    64    63    1
     3    64    66    1
     4    63    60    1
     5    74    72    1
     6    62    61    2
     7    61    60    1
     8    60    59    1
     9    73    72    1
    10    72    71    1
    11    59    50   am
    12    47    46    2
    13    46    45    1
    14    42    40    1
    15    71    68    1
    16    45    44    1
    17    43    41    1
    18    50    51    2
    19    50    49    1
    20    39    38    2
    21    40    41    1
    22    40    37    1
    23    70    69    2
    24    68    69    1
    25    68    67    1
    26     8     6   ar
    27    48    49    1
    28    38    37    1
    29    69    75   am
    30    49    52    1
    31    37    36    1
    32    52    53    1
    33    53    54    1
    34    75    76    1
    35     6     5    1
    36     6     7   ar
    37    54    55    1
    38    76    79    1
    39    76    77    1
    40     5     2    1
    41    24    23   ar
    42    24    22   ar
    43    23    21   ar
    44    33    31   ar
    45    33    35   ar
    46    36    27   am
    47    28    27    2
    48    22    20   ar
    49    21    19   ar
    50    20    19   ar
    51    19    18    1
    52    31    30   ar
    53    27    26    1
    54    18    15    1
    55    77    78    2
    56    55    56    2
    57    35    34   ar
    58     2     1    1
    59     2     3    1
    60    30    29    1
    61    30    32   ar
    62    56    57    1
    63    56    58    1
    64    15    14    1
    65    15    16    1
    66    26    29    1
    67    26    25    1
    68    34    32   ar
    69    14    11   am
    70     3     9   am
    71     3     4    2
    72     9    10    1
    73    16    17    2
    74    13    10    1
    75    11    10    1
    76    11    12    2
