@<TRIPOS>MOLECULE
tmp/5nb6A00.pdb
 172 168 0 0 0
SMALL
GASTEIGER

@<TRIPOS>ATOM
      1  N         -3.9710  -21.3110   -9.3640 N.3    24  HIS24      -0.1226
      2  CA        -3.3860  -20.0600   -9.9270 C.3    24  HIS24       0.1752
      3  C         -3.0330  -19.1450   -8.7490 C.2    24  HIS24       0.2596
      4  O         -3.8760  -18.8190   -7.8840 O.2    24  HIS24      -0.2718
      5  CB        -4.3860  -19.3380  -10.8660 C.3    24  HIS24       0.0759
      6  CG        -3.9430  -17.9600  -11.2740 C.ar   24  HIS24       0.0818
      7  ND1       -3.2710  -17.6930  -12.4500 N.ar   24  HIS24      -0.2268
      8  CD2       -4.0770  -16.7720  -10.6390 C.ar   24  HIS24       0.1154
      9  CE1       -2.9670  -16.4070  -12.4970 C.ar   24  HIS24       0.1986
     10  NE2       -3.4940  -15.8080  -11.4370 N.ar   24  HIS24      -0.2212
     11  N         -1.7730  -18.7410   -8.7170 N.am   25  LEU25      -0.1966
     12  CA        -1.2630  -17.6900   -7.8460 C.3    25  LEU25       0.1728
     13  C         -1.0260  -16.3480   -8.5950 C.2    25  LEU25       0.2616
     14  O         -1.4470  -15.2200   -8.1740 O.2    25  LEU25      -0.2715
     15  CB         0.0640  -18.1980   -7.2020 C.3    25  LEU25       0.0311
     16  CG         0.5560  -17.3830   -5.9930 C.3    25  LEU25       0.0022
     17  CD1       -0.3920  -17.4000   -4.7950 C.3    25  LEU25       0.0001
     18  CD2        2.0160  -17.7320   -5.5870 C.3    25  LEU25       0.0001
     19  N         -0.2500  -16.4310   -9.6510 N.am   26  CYS26      -0.1968
     20  CA         0.1520  -15.1720  -10.3040 C.3    26  CYS26       0.1712
     21  C          0.1430  -15.4060  -11.7760 C.2    26  CYS26       0.2296
     22  O          0.2320  -16.5550  -12.2270 O.2    26  CYS26      -0.2864
     23  CB         1.5660  -14.8380   -9.8940 C.3    26  CYS26       0.0983
     24  SG         1.6620  -13.9900   -8.2540 S.3    26  CYS26      -0.0798
     25  N          7.0240  -11.2650   -5.1990 N.3    41  HIS41      -0.1241
     26  CA         6.2080  -11.7720   -4.1040 C.3    41  HIS41       0.1621
     27  C          5.3130  -12.9860   -4.4070 C.2    41  HIS41       0.2264
     28  O          4.6160  -13.5190   -3.5130 O.2    41  HIS41      -0.2867
     29  CB         5.4870  -10.6420   -3.3920 C.3    41  HIS41       0.0745
     30  CG         6.4060   -9.5140   -3.0580 C.ar   41  HIS41       0.0817
     31  ND1        7.6150   -9.7100   -2.4080 N.ar   41  HIS41      -0.2268
     32  CD2        6.3500   -8.1930   -3.3570 C.ar   41  HIS41       0.1154
     33  CE1        8.2260   -8.5450   -2.2710 C.ar   41  HIS41       0.1986
     34  NE2        7.4760   -7.6090   -2.8240 N.ar   41  HIS41      -0.2212
     35  N         -8.3800  -22.4610  -16.9070 N.3    56  LEU56      -0.1245
     36  CA        -7.5170  -23.0630  -15.9040 C.3    56  LEU56       0.1561
     37  C         -7.9270  -24.5280  -15.6280 C.2    56  LEU56       0.2260
     38  O         -7.0740  -25.3060  -15.3540 O.2    56  LEU56      -0.2867
     39  CB        -7.5680  -22.2650  -14.6300 C.3    56  LEU56       0.0270
     40  CG        -7.0170  -20.8410  -14.6100 C.3    56  LEU56       0.0019
     41  CD1       -7.3530  -20.3200  -13.2130 C.3    56  LEU56       0.0001
     42  CD2       -5.4540  -20.7030  -14.9330 C.3    56  LEU56       0.0001
     43  N         -5.5350  -14.0080  -14.9160 N.3   124  TRP124     -0.1227
     44  CA        -6.5980  -14.8110  -14.3130 C.3   124  TRP124      0.1737
     45  C         -6.8760  -14.3000  -12.8980 C.2   124  TRP124      0.2596
     46  O         -7.3690  -15.0310  -12.0290 O.2   124  TRP124     -0.2718
     47  CB        -6.2310  -16.2850  -14.2430 C.3   124  TRP124      0.0564
     48  CG        -6.2110  -17.0460  -15.5210 C.ar  124  TRP124      0.0003
     49  CD1       -7.2610  -17.7310  -16.1040 C.ar  124  TRP124      0.0946
     50  CD2       -5.0800  -17.2810  -16.3150 C.ar  124  TRP124      0.0152
     51  NE1       -6.8340  -18.2900  -17.2950 N.ar  124  TRP124     -0.2442
     52  CE2       -5.4920  -18.1250  -17.3910 C.ar  124  TRP124      0.0810
     53  CE3       -3.7360  -16.9040  -16.2230 C.ar  124  TRP124      0.0012
     54  CZ2       -4.6140  -18.5260  -18.3920 C.ar  124  TRP124      0.0191
     55  CZ3       -2.8410  -17.3320  -17.2100 C.ar  124  TRP124      0.0001
     56  CH2       -3.2930  -18.1400  -18.2720 C.ar  124  TRP124      0.0015
     57  N         -6.4580  -13.0680  -12.6730 N.am  125  GLY125     -0.1942
     58  CA        -6.7490  -12.2630  -11.4510 C.3   125  GLY125      0.2014
     59  C         -8.2370  -12.0570  -11.1400 C.2   125  GLY125      0.2638
     60  O         -9.1920  -12.3860  -11.9440 O.2   125  GLY125     -0.2714
     61  N         -8.4940  -11.5730   -9.9200 N.am  126  ILE126     -0.1977
     62  CA        -9.9170  -11.4560   -9.5230 C.3   126  ILE126      0.1596
     63  C        -10.6170  -10.4800  -10.5350 C.2   126  ILE126      0.2287
     64  O         -9.9780   -9.5360  -10.9910 O.2   126  ILE126     -0.2864
     65  CB       -10.0670  -10.9990   -8.0240 C.3   126  ILE126      0.0276
     66  CG1       -9.4260   -9.6180   -7.7820 C.3   126  ILE126      0.0022
     67  CG2       -9.5470  -12.0900   -6.9980 C.3   126  ILE126      0.0022
     68  CD1       -9.8880   -8.9420   -6.5200 C.3   126  ILE126      0.0001
     69  N        -13.1470  -15.4420   -8.9970 N.3   133  ARG133     -0.1231
     70  CA       -11.9700  -15.8930   -9.7600 C.3   133  ARG133      0.1679
     71  C        -12.3810  -16.3870  -11.1080 C.2   133  ARG133      0.2434
     72  O        -13.2170  -17.3220  -11.2100 O.2   133  ARG133     -0.2733
     73  CB       -11.1640  -16.9430   -8.9820 C.3   133  ARG133      0.0321
     74  CG       -11.0160  -16.6330   -7.4900 C.3   133  ARG133      0.0489
     75  CD       -10.0020  -17.5410   -6.8110 C.3   133  ARG133      0.2205
     76  NE       -10.6130  -18.7200   -6.1910 N.pl3 133  ARG133     -0.0865
     77  CZ       -10.7800  -19.8880   -6.7970 C.cat 133  ARG133      0.5346
     78  NH1      -10.3790  -20.0590   -8.0650 N.pl3 133  ARG133      0.1354
     79  NH2      -11.3410  -20.9000   -6.1400 N.pl3 133  ARG133      0.1354
     80  N        -11.7860  -15.8420  -12.1940 N.am  134  PRO134     -0.2729
     81  CA       -12.2470  -16.3810  -13.5080 C.3   134  PRO134      0.1401
     82  C        -11.6070  -17.7110  -13.8860 C.2   134  PRO134      0.2269
     83  O        -10.4120  -17.9360  -13.6630 O.2   134  PRO134     -0.2865
     84  CB       -11.7820  -15.3400  -14.5290 C.3   134  PRO134      0.0296
     85  CG       -10.5400  -14.6680  -13.8440 C.3   134  PRO134      0.0237
     86  CD       -10.6930  -14.8680  -12.3240 C.3   134  PRO134      0.0939
     87  N         -5.6660   -3.9180  -13.3330 N.3   164  SER164     -0.1202
     88  CA        -5.0430   -5.1010  -12.8530 C.3   164  SER164      0.2020
     89  C         -5.3690   -5.1730  -11.3410 C.2   164  SER164      0.2619
     90  O         -5.6290   -4.1500  -10.6730 O.2   164  SER164     -0.2717
     91  CB        -3.5370   -4.9650  -13.1400 C.3   164  SER164      0.2103
     92  OG        -2.9830   -3.8110  -12.4830 O.3   164  SER164     -0.2182
     93  N         -5.3500   -6.3880  -10.8010 N.am  165  CYS165     -0.1955
     94  CA        -5.6450   -6.5670   -9.3750 C.3   165  CYS165      0.1843
     95  C         -5.0240   -7.8830   -8.8760 C.2   165  CYS165      0.2625
     96  O         -4.1230   -8.4520   -9.5370 O.2   165  CYS165     -0.2714
     97  CB        -7.1560   -6.4750   -9.1380 C.3   165  CYS165      0.0997
     98  SG        -7.6290   -6.1480   -7.3730 S.3   165  CYS165     -0.0797
     99  N         -5.4530   -8.3380   -7.6940 N.am  166  LYS166     -0.1963
    100  CA        -4.9830   -9.5900   -7.0700 C.3   166  LYS166      0.1728
    101  C         -4.9930  -10.7650   -7.9810 C.2   166  LYS166      0.2616
    102  O         -6.0330  -11.0430   -8.6510 O.2   166  LYS166     -0.2715
    103  CB        -5.9310   -9.9500   -5.8960 C.3   166  LYS166      0.0311
    104  CG        -5.3730  -10.9030   -4.9360 C.3   166  LYS166      0.0038
    105  CD        -6.4010  -11.4250   -3.9130 C.3   166  LYS166      0.0206
    106  CE        -5.7160  -12.3460   -2.9100 C.3   166  LYS166      0.1093
    107  NZ        -6.1590  -11.9870   -1.5120 N.3   166  LYS166     -0.1314
    108  N         -3.8470  -11.4610   -8.0680 N.am  167  GLY167     -0.1955
    109  CA        -3.7450  -12.6450   -8.9610 C.3   167  GLY167      0.1869
    110  C         -3.3900  -12.2480  -10.3960 C.2   167  GLY167      0.2309
    111  O         -2.9510  -13.0300  -11.1070 O.2   167  GLY167     -0.2863
    112  N         -0.7670  -10.1400  -10.6370 N.3   169  SER169     -0.1217
    113  CA         0.6850   -9.8430  -10.3290 C.3   169  SER169      0.1889
    114  C          1.5170  -10.7420  -11.1810 C.2   169  SER169      0.2288
    115  O          1.1820  -11.9390  -11.3010 O.2   169  SER169     -0.2866
    116  CB         1.1660  -10.3320   -8.9470 C.3   169  SER169      0.2089
    117  OG         0.1630  -10.4950   -8.0380 O.3   169  SER169     -0.2183
    118  N          3.0990   -6.6620  -13.8530 N.3   183  VAL183     -0.1231
    119  CA         2.1640   -6.2350  -12.7590 C.3   183  VAL183      0.1692
    120  C          2.8820   -6.4430  -11.4290 C.2   183  VAL183      0.2593
    121  O          3.4480   -7.5070  -11.1940 O.2   183  VAL183     -0.2718
    122  CB         0.8600   -6.9880  -12.8070 C.3   183  VAL183      0.0266
    123  CG1       -0.1450   -6.5000  -11.6480 C.3   183  VAL183      0.0020
    124  CG2        0.1760   -6.6740  -14.1700 C.3   183  VAL183      0.0020
    125  N          2.9160   -5.4180  -10.5860 N.am  184  THR184     -0.1939
    126  CA         3.5700   -5.5410   -9.2910 C.3   184  THR184      0.2028
    127  C          2.7220   -6.4260   -8.3700 C.2   184  THR184      0.2643
    128  O          1.5580   -6.7520   -8.6940 O.2   184  THR184     -0.2714
    129  CB         3.7630   -4.1470   -8.6180 C.3   184  THR184      0.1808
    130  OG1        2.4960   -3.4710   -8.6180 O.3   184  THR184     -0.2208
    131  CG2        4.8380   -3.3930   -9.3720 C.3   184  THR184      0.0379
    132  N          3.3270   -6.8810   -7.2600 N.am  185  SER185     -0.1935
    133  CA         2.6960   -7.9860   -6.5480 C.3   185  SER185      0.2055
    134  C          2.3000   -7.5670   -5.1330 C.2   185  SER185      0.2644
    135  O          1.8970   -8.4040   -4.3050 O.2   185  SER185     -0.2714
    136  CB         3.5610   -9.2500   -6.5630 C.3   185  SER185      0.2130
    137  OG         4.7960   -9.0860   -5.9170 O.3   185  SER185     -0.2179
    138  N          2.4580   -6.2850   -4.8680 N.am  186  GLY186     -0.1939
    139  CA         2.0810   -5.7430   -3.5800 C.3   186  GLY186      0.2014
    140  C          0.5880   -5.4930   -3.5270 C.2   186  GLY186      0.2640
    141  O         -0.0620   -5.2140   -4.5790 O.2   186  GLY186     -0.2714
    142  N          0.0200   -5.6400   -2.3220 N.am  187  SER187     -0.1935
    143  CA        -1.3790   -5.2380   -2.0710 C.3   187  SER187      0.2055
    144  C         -1.6230   -3.8010   -2.4980 C.2   187  SER187      0.2642
    145  O         -0.7660   -2.8970   -2.2760 O.2   187  SER187     -0.2714
    146  CB        -1.6940   -5.2670   -0.5350 C.3   187  SER187      0.2130
    147  OG        -1.4660   -6.5470   -0.0640 O.3   187  SER187     -0.2179
    148  N         -2.8100   -3.5560   -3.0730 N.am  188  ARG188     -0.1977
    149  CA        -3.2390   -2.2000   -3.3970 C.3   188  ARG188      0.1597
    150  C         -4.7580   -2.1810   -3.6480 C.2   188  ARG188      0.2287
    151  O         -5.3140   -3.2100   -3.9940 O.2   188  ARG188     -0.2864
    152  CB        -2.4770   -1.6340   -4.6050 C.3   188  ARG188      0.0334
    153  CG        -2.3960   -2.6310   -5.7430 C.3   188  ARG188      0.0492
    154  CD        -1.8680   -2.0510   -7.0940 C.3   188  ARG188      0.2205
    155  NE        -2.6490   -0.9340   -7.5590 N.pl3 188  ARG188     -0.0865
    156  CZ        -3.6760   -1.0280   -8.4050 C.cat 188  ARG188      0.5346
    157  NH1       -4.0290   -2.2240   -8.8420 N.pl3 188  ARG188      0.1354
    158  NH2       -4.3490    0.0730   -8.8230 N.pl3 188  ARG188      0.1354
    159  N         -7.7410   -1.4950   -5.9180 N.3   190  CYS190     -0.1235
    160  CA        -7.8660   -1.7020   -7.3710 C.3   190  CYS190      0.1677
    161  C         -9.1160   -1.0070   -7.8660 C.2   190  CYS190      0.2270
    162  O        -10.1370   -0.9000   -7.1350 O.2   190  CYS190     -0.2867
    163  CB        -8.0780   -3.1920   -7.6570 C.3   190  CYS190      0.0956
    164  SG        -6.8460   -4.2750   -7.0420 S.3   190  CYS190     -0.0801
    165  N          0.2650   -0.2090  -10.8390 N.3   198  ILE198     -0.1245
    166  CA         1.7150   -0.0690  -10.9130 C.3   198  ILE198      0.1561
    167  C          2.3200   -1.2690  -11.5770 C.2   198  ILE198      0.2260
    168  O          1.9880   -2.4280  -11.2670 O.2   198  ILE198     -0.2867
    169  CB         2.3630    0.1250   -9.5200 C.3   198  ILE198      0.0252
    170  CG1        1.5650    1.1320   -8.6980 C.3   198  ILE198      0.0019
    171  CG2        3.8450    0.5040   -9.6500 C.3   198  ILE198      0.0019
    172  CD1        1.9990    1.1360   -7.2280 C.3   198  ILE198      0.0001
@<TRIPOS>BOND
     1    54    56   ar
     2    54    52   ar
     3    56    55   ar
     4    52    51   ar
     5    52    50   ar
     6    51    49   ar
     7    55    53   ar
     8    35    36    1
     9    50    53   ar
    10    50    48   ar
    11    49    48   ar
    12    36    37    1
    13    36    39    1
    14    37    38    2
    15    48    47    1
    16    42    40    1
    17    43    44    1
    18    39    40    1
    19    40    41    1
    20    84    85    1
    21    84    81    1
    22    44    47    1
    23    44    45    1
    24   124   122    1
    25    82    83    2
    26    82    81    1
    27   118   119    1
    28    85    86    1
    29    81    80    1
    30    87    88    1
    31    91    88    1
    32    91    92    1
    33    45    57   am
    34    45    46    2
    35    88    89    1
    36   122   119    1
    37   122   123    1
    38   119   120    1
    39    57    58    1
    40     9     7   ar
    41     9    10   ar
    42     7     6   ar
    43    86    80    1
    44    22    21    2
    45    80    71   am
    46    60    59    2
    47    21    20    1
    48   167   168    2
    49   167   166    1
    50    58    59    1
    51    10     8   ar
    52   120   121    2
    53   120   125   am
    54    89    93   am
    55    89    90    2
    56   115   114    2
    57     6     5    1
    58     6     8   ar
    59    72    71    2
    60   114   113    1
    61    59    61   am
    62    71    70    1
    63   111   110    2
    64    64    63    2
    65   166   165    1
    66   166   169    1
    67     5     2    1
    68    93    94    1
    69   112   113    1
    70   125   126    1
    71    63    62    1
    72   110   109    1
    73   113   116    1
    74    20    23    1
    75    20    19    1
    76     2     1    1
    77     2     3    1
    78    61    62    1
    79    23    24    1
    80    70    69    1
    81    70    73    1
    82    19    13   am
    83   171   169    1
    84    96    95    2
    85    62    65    1
    86   169   170    1
    87    94    97    1
    88    94    95    1
    89   131   129    1
    90   126   129    1
    91   126   127    1
    92    97    98    1
    93    73    74    1
    94   109   108    1
    95   116   117    1
    96    95    99   am
    97   157   156    1
    98   158   156    1
    99     3    11   am
   100     3     4    2
   101    11    12    1
   102   170   172    1
   103   128   127    2
   104   102   101    2
   105   129   130    1
   106    13    14    2
   107    13    12    1
   108   156   155    2
   109   127   132   am
   110   108   101   am
   111    78    77    1
   112    65    66    1
   113    65    67    1
   114   101   100    1
   115   161   160    1
   116   161   162    2
   117    12    15    1
   118    66    68    1
   119    99   100    1
   120   163   160    1
   121   163   164    1
   122   155   154    1
   123    74    75    1
   124    98   164    1
   125   160   159    1
   126   132   133    1
   127    15    16    1
   128   154   153    1
   129   100   103    1
   130    75    76    1
   131    77    76    2
   132    77    79    1
   133   136   133    1
   134   136   137    1
   135   133   134    1
   136    16    18    1
   137    16    17    1
   138   103   104    1
   139   153   152    1
   140    25    26    1
   141   134   138   am
   142   134   135    2
   143   104   105    1
   144   138   139    1
   145   152   149    1
   146   141   140    2
   147    27    26    1
   148    27    28    2
   149    26    29    1
   150   151   150    2
   151   105   106    1
   152   150   149    1
   153   139   140    1
   154   140   142   am
   155   149   148    1
   156    29    30    1
   157    32    30   ar
   158    32    34   ar
   159   148   144   am
   160    30    31   ar
   161   106   107    1
   162    34    33   ar
   163   144   145    2
   164   144   143    1
   165    31    33   ar
   166   142   143    1
   167   143   146    1
   168   146   147    1
