@<TRIPOS>MOLECULE
tmp/5nb7A00.pdb
 164 159 0 0 0
SMALL
GASTEIGER

@<TRIPOS>ATOM
      1  N         14.6770   10.7250   11.2470 N.3    24  HIS24      -0.1226
      2  CA        14.4050    9.6460   10.3780 C.3    24  HIS24       0.1752
      3  C         13.5830   10.0930    9.2040 C.2    24  HIS24       0.2596
      4  O         12.5230   10.6770    9.3090 O.2    24  HIS24      -0.2718
      5  CB        13.6640    8.5340   11.1820 C.3    24  HIS24       0.0759
      6  CG        13.2380    7.4180   10.2910 C.ar   24  HIS24       0.0818
      7  ND1       14.0610    6.3390   10.0660 N.ar   24  HIS24      -0.2268
      8  CD2       12.0860    7.2110    9.5620 C.ar   24  HIS24       0.1154
      9  CE1       13.4280    5.5410    9.2340 C.ar   24  HIS24       0.1986
     10  NE2       12.2300    6.0390    8.8960 N.ar   24  HIS24      -0.2212
     11  N         14.0960    9.7060    8.0080 N.am   25  LEU25      -0.1966
     12  CA        13.3630    9.8510    6.7080 C.3    25  LEU25       0.1728
     13  C         12.9180    8.5300    6.1370 C.2    25  LEU25       0.2616
     14  O         11.7830    8.4270    5.5730 O.2    25  LEU25      -0.2715
     15  CB        14.4410   10.2990    5.5680 C.3    25  LEU25       0.0311
     16  CG        15.1720   11.5740    5.7570 C.3    25  LEU25       0.0022
     17  CD1       16.2920   11.6990    4.7110 C.3    25  LEU25       0.0001
     18  CD2       14.1550   12.6400    5.4730 C.3    25  LEU25       0.0001
     19  N         13.7740    7.5450    6.0810 N.am   26  CYS26      -0.1968
     20  CA        13.5450    6.3110    5.3350 C.3    26  CYS26       0.1712
     21  C         14.2520    5.1670    5.9670 C.2    26  CYS26       0.2296
     22  O         15.2850    5.3730    6.6900 O.2    26  CYS26      -0.2864
     23  CB        14.1700    6.4490    3.9200 C.3    26  CYS26       0.0983
     24  SG        13.1580    7.4980    2.8240 S.3    26  CYS26      -0.0798
     25  N         13.8280    8.4940   -3.8760 N.3    41  HIS41      -0.1226
     26  CA        13.1490    9.7310   -3.4600 C.3    41  HIS41       0.1752
     27  C         13.4360   10.1720   -2.0180 C.2    41  HIS41       0.2596
     28  O         13.0370   11.2420   -1.6330 O.2    41  HIS41      -0.2718
     29  CB        11.6390    9.6740   -3.7130 C.3    41  HIS41       0.0759
     30  CG        11.2770    9.4850   -5.1300 C.ar   41  HIS41       0.0818
     31  ND1       11.4370    8.2930   -5.7900 N.ar   41  HIS41      -0.2268
     32  CD2       10.7440   10.3310   -6.0230 C.ar   41  HIS41       0.1154
     33  CE1       11.0260    8.4150   -7.0390 C.ar   41  HIS41       0.1986
     34  NE2       10.5380    9.6170   -7.1810 N.ar   41  HIS41      -0.2212
     35  N         14.1580    9.3500   -1.2980 N.am   42  CYS42      -0.1970
     36  CA        14.4190    9.6830    0.1130 C.3    42  CYS42       0.1712
     37  C         15.2220   10.9240    0.2780 C.2    42  CYS42       0.2296
     38  O         15.0530   11.6270    1.3230 O.2    42  CYS42      -0.2864
     39  CB        15.1390    8.5060    0.7250 C.3    42  CYS42       0.0983
     40  SG        14.0540    7.0740    1.0080 S.3    42  CYS42      -0.0798
     41  N         14.9470   13.6320   -1.4510 N.3    44  GLU44      -0.1196
     42  CA        14.2700   14.7580   -2.1600 C.3    44  GLU44       0.1783
     43  C         14.4200   16.0870   -1.4460 C.2    44  GLU44       0.2306
     44  O         14.4910   17.1700   -2.0610 O.2    44  GLU44      -0.2863
     45  CB        12.7470   14.4360   -2.3890 C.2    44  GLU44       0.0071
     46  CG        11.9050   14.1650   -1.0790 C.2    44  GLU44       0.0834
     47  CD        10.4530   13.6390   -1.3140 C.2    44  GLU44       0.3877
     48  OE1       10.1470   12.8280   -2.3070 O.co2  44  GLU44      -0.2406
     49  OE2        9.5630   14.0210   -0.4960 O.co2  44  GLU44      -0.2406
     50  N         10.7850    2.1980   10.8620 N.3   128  TRP128     -0.1241
     51  CA        10.4510    3.2430   11.7820 C.3   128  TRP128      0.1605
     52  C          9.3940    4.1540   11.1600 C.2   128  TRP128      0.2264
     53  O          9.1760    5.3000   11.6120 O.2   128  TRP128     -0.2867
     54  CB        11.6140    3.9740   12.3350 C.3   128  TRP128      0.0550
     55  CG        12.6440    3.2430   13.1160 C.ar  128  TRP128      0.0003
     56  CD1       12.6250    3.1270   14.5130 C.ar  128  TRP128      0.0946
     57  CD2       13.7830    2.5930   12.7060 C.ar  128  TRP128      0.0152
     58  NE1       13.7280    2.4830   14.9260 N.ar  128  TRP128     -0.2442
     59  CE2       14.4920    2.1140   13.8560 C.ar  128  TRP128      0.0810
     60  CE3       14.3400    2.3860   11.4040 C.ar  128  TRP128      0.0012
     61  CZ2       15.6070    1.3910   13.7750 C.ar  128  TRP128      0.0191
     62  CZ3       15.5080    1.6660   11.3100 C.ar  128  TRP128      0.0001
     63  CH2       16.1720    1.2370   12.5060 C.ar  128  TRP128      0.0015
     64  N          5.4840    5.4290    9.9780 N.3   130  ILE130     -0.1245
     65  CA         4.3240    5.7290   10.7410 C.3   130  ILE130      0.1561
     66  C          3.5120    4.4690   11.1490 C.2   130  ILE130      0.2260
     67  O          3.4460    3.4950   10.4140 O.2   130  ILE130     -0.2867
     68  CB         3.4220    6.8080   10.1460 C.3   130  ILE130      0.0252
     69  CG1        2.8040    6.3910    8.8330 C.3   130  ILE130      0.0019
     70  CG2        4.2410    8.0720    9.8870 C.3   130  ILE130      0.0019
     71  CD1        1.7860    7.3140    8.2890 C.3   130  ILE130      0.0001
     72  N         -0.3760    9.5370   11.6150 N.3   135  GLY135     -0.1225
     73  CA         1.0100    9.8300   11.3710 C.3   135  GLY135      0.1811
     74  C          1.9900    9.6340   12.5440 C.2   135  GLY135      0.2280
     75  O          3.1050   10.1770   12.5180 O.2   135  GLY135     -0.2866
     76  N          4.8730    8.6470   14.8180 N.3   137  ARG137     -0.1245
     77  CA         6.2380    8.1170   14.5210 C.3   137  ARG137      0.1563
     78  C          6.6530    7.2070   15.7040 C.2   137  ARG137      0.2260
     79  O          6.6640    7.7030   16.8780 O.2   137  ARG137     -0.2867
     80  CB         7.2640    9.2060   14.4310 C.3   137  ARG137      0.0307
     81  CG         7.1840   10.0780   13.1780 C.3   137  ARG137      0.0489
     82  CD         8.1620   11.2710   13.2410 C.3   137  ARG137      0.2205
     83  NE         9.5300   10.8800   13.6060 N.pl3 137  ARG137     -0.0865
     84  CZ        10.5950   10.9830   12.8030 C.cat 137  ARG137      0.5346
     85  NH1       10.4650   11.4660   11.5580 N.pl3 137  ARG137      0.1354
     86  NH2       11.8150   10.7890   13.3030 N.pl3 137  ARG137      0.1354
     87  N          3.4400   -1.7770    4.9960 N.3   178  SER178     -0.1202
     88  CA         4.4410   -0.7200    5.0550 C.3   178  SER178      0.2020
     89  C          3.8290    0.6470    4.7200 C.2   178  SER178      0.2619
     90  O          2.7490    0.7520    4.0880 O.2   178  SER178     -0.2717
     91  CB         5.6420   -1.0770    4.1520 C.3   178  SER178      0.2103
     92  OG         5.2510   -1.3020    2.7910 O.3   178  SER178     -0.2182
     93  N          4.4350    1.7240    5.2410 N.am  179  CYS179     -0.1955
     94  CA         3.8540    3.0300    5.0590 C.3   179  CYS179      0.1843
     95  C          4.9270    4.0990    4.9930 C.2   179  CYS179      0.2625
     96  O          6.1160    3.7940    4.9050 O.2   179  CYS179     -0.2714
     97  CB         2.7770    3.2280    6.1200 C.3   179  CYS179      0.0997
     98  SG         1.5260    4.5220    5.7760 S.3   179  CYS179     -0.0797
     99  N          4.4540    5.3490    5.0880 N.am  180  LYS180     -0.1963
    100  CA         5.3600    6.4990    5.0860 C.3   180  LYS180      0.1728
    101  C          6.4750    6.3370    6.0970 C.2   180  LYS180      0.2616
    102  O          6.2530    6.0150    7.3180 O.2   180  LYS180     -0.2715
    103  CB         4.5230    7.7400    5.4000 C.3   180  LYS180      0.0311
    104  CG         5.2600    9.0590    5.3660 C.3   180  LYS180      0.0038
    105  CD         4.3550   10.1700    5.3880 C.3   180  LYS180      0.0206
    106  CE         4.9920   11.3570    5.0130 C.3   180  LYS180      0.1093
    107  NZ         4.0880   12.4750    5.0240 N.3   180  LYS180     -0.1314
    108  N          7.7130    6.5770    5.6700 N.am  181  GLY181     -0.1955
    109  CA         8.8780    6.3480    6.4800 C.3   181  GLY181      0.1869
    110  C          9.4540    4.9740    6.5160 C.2   181  GLY181      0.2309
    111  O         10.5770    4.7850    6.9730 O.2   181  GLY181     -0.2863
    112  N          9.5520    3.5550    3.4960 N.3   183  SER183     -0.1217
    113  CA        10.2170    3.7530    2.1860 C.3   183  SER183      0.1889
    114  C         11.6950    3.5160    2.2700 C.2   183  SER183      0.2288
    115  O         12.3190    4.0520    3.2210 O.2   183  SER183     -0.2866
    116  CB         9.9210    5.1420    1.7300 C.3   183  SER183      0.2089
    117  OG        10.0730    6.1060    2.7070 O.3   183  SER183     -0.2183
    118  N         11.3180   -1.0620   -0.2430 N.3   197  VAL197     -0.1231
    119  CA        10.0460   -0.3850   -0.2020 C.3   197  VAL197      0.1692
    120  C         10.1740    0.8610   -1.1060 C.2   197  VAL197      0.2593
    121  O         11.1120    1.6850   -0.9630 O.2   197  VAL197     -0.2718
    122  CB         9.7090    0.0470    1.2540 C.3   197  VAL197      0.0266
    123  CG1        8.2930    0.6040    1.2690 C.3   197  VAL197      0.0020
    124  CG2        9.7580   -1.1310    2.2420 C.3   197  VAL197      0.0020
    125  N          9.1730    1.0580   -1.9690 N.am  198  THR198     -0.1939
    126  CA         9.2310    2.2600   -2.7900 C.3   198  THR198      0.2028
    127  C          8.9530    3.5060   -1.9930 C.2   198  THR198      0.2643
    128  O          8.3960    3.4780   -0.8630 O.2   198  THR198     -0.2714
    129  CB         8.2830    2.1380   -3.9850 C.3   198  THR198      0.1808
    130  OG1        6.9500    1.9190   -3.5550 O.3   198  THR198     -0.2208
    131  CG2        8.7760    1.0650   -4.9700 C.3   198  THR198      0.0379
    132  N          9.1650    4.6660   -2.5950 N.am  199  SER199     -0.1935
    133  CA         9.1960    5.9240   -1.8840 C.3   199  SER199      0.2055
    134  C          8.2680    6.9690   -2.4820 C.2   199  SER199      0.2644
    135  O          8.4130    8.1820   -2.1240 O.2   199  SER199     -0.2714
    136  CB        10.6240    6.4180   -1.6920 C.3   199  SER199      0.2130
    137  OG        11.2990    6.7250   -2.9510 O.3   199  SER199     -0.2179
    138  N          7.3220    6.5480   -3.3400 N.am  200  GLY200     -0.1939
    139  CA         6.2150    7.4090   -3.7490 C.3   200  GLY200      0.2014
    140  C          5.0710    7.4330   -2.7030 C.2   200  GLY200      0.2640
    141  O          4.8780    6.4490   -1.9330 O.2   200  GLY200     -0.2714
    142  N          4.2940    8.5040   -2.6980 N.am  201  SER201     -0.1935
    143  CA         3.1460    8.5860   -1.7720 C.3   201  SER201      0.2055
    144  C          2.1230    7.5640   -2.2030 C.2   201  SER201      0.2642
    145  O          1.9120    7.3370   -3.3990 O.2   201  SER201     -0.2714
    146  CB         2.5010    9.9380   -1.7850 C.3   201  SER201      0.2130
    147  OG         3.5560   10.8090   -1.3750 O.3   201  SER201     -0.2179
    148  N          1.4080    7.0040   -1.2180 N.am  202  ARG202     -0.1977
    149  CA         0.3720    5.9970   -1.3750 C.3   202  ARG202      0.1597
    150  C         -0.4800    5.8130   -0.1660 C.2   202  ARG202      0.2287
    151  O         -0.0360    6.1410    0.9570 O.2   202  ARG202     -0.2864
    152  CB         0.9990    4.6930   -1.7830 C.3   202  ARG202      0.0334
    153  CG         2.0410    4.1870   -0.7740 C.3   202  ARG202      0.0492
    154  CD         2.5910    2.8040   -1.0940 C.3   202  ARG202      0.2205
    155  NE         1.6510    1.7530   -0.9070 N.pl3 202  ARG202     -0.0865
    156  CZ         1.4210    1.1090    0.2660 C.cat 202  ARG202      0.5346
    157  NH1        2.0330    1.4820    1.3860 N.pl3 202  ARG202      0.1354
    158  NH2        0.4600    0.1720    0.3190 N.pl3 202  ARG202      0.1354
    159  N         -2.0310    3.5060    2.7230 N.3   204  CYS204     -0.1235
    160  CA        -1.4370    2.3600    3.4320 C.3   204  CYS204      0.1677
    161  C         -2.6350    1.6220    4.0310 C.2   204  CYS204      0.2270
    162  O         -3.6140    2.2390    4.5330 O.2   204  CYS204     -0.2867
    163  CB        -0.5000    2.7420    4.5870 C.3   204  CYS204      0.0956
    164  SG         0.7380    3.8730    3.9970 S.3   204  CYS204     -0.0801
@<TRIPOS>BOND
     1    34    33   ar
     2    34    32   ar
     3    33    31   ar
     4    32    30   ar
     5    31    30   ar
     6    30    29    1
     7   131   129    1
     8   129   130    1
     9   129   126    1
    10    25    26    1
    11   139   138    1
    12   139   140    1
    13    29    26    1
    14    26    27    1
    15   145   144    2
    16   138   134   am
    17   137   136    1
    18   126   127    1
    19   126   125    1
    20   140   142   am
    21   140   141    2
    22   142   143    1
    23   132   127   am
    24   132   133    1
    25   134   135    2
    26   134   133    1
    27    45    42    1
    28    45    46    2
    29    48    47   ar
    30   144   143    1
    31   144   148   am
    32    42    41    1
    33    42    43    1
    34    44    43    2
    35    27    28    2
    36    27    35   am
    37   127   128    2
    38   125   120   am
    39   133   136    1
    40   146   143    1
    41   146   147    1
    42   152   149    1
    43   152   153    1
    44   149   148    1
    45   149   150    1
    46    47    46    1
    47    47    49   ar
    48    35    36    1
    49   120   121    2
    50   120   119    1
    51   154   155    1
    52   154   153    1
    53   155   156    2
    54   118   119    1
    55   119   122    1
    56   150   151    2
    57    36    37    1
    58    36    39    1
    59   156   158    1
    60   156   157    1
    61    37    38    2
    62    39    40    1
    63    40    24    1
    64   122   123    1
    65   122   124    1
    66   116   113    1
    67   116   117    1
    68   113   114    1
    69   113   112    1
    70   114   115    2
    71   159   160    1
    72    92    91    1
    73    24    23    1
    74   160   161    1
    75   160   163    1
    76    23    20    1
    77   164   163    1
    78   164    98    1
    79   161   162    2
    80    90    89    2
    81    91    88    1
    82    17    16    1
    83    89    88    1
    84    89    93   am
    85    96    95    2
    86    95    94    1
    87    95    99   am
    88    87    88    1
    89   106   107    1
    90   106   105    1
    91    94    93    1
    92    94    97    1
    93   100    99    1
    94   100   103    1
    95   100   101    1
    96    20    21    1
    97    20    19    1
    98   104   105    1
    99   104   103    1
   100    18    16    1
   101    15    16    1
   102    15    12    1
   103    14    13    2
   104   108   101   am
   105   108   109    1
   106    98    97    1
   107    21    22    2
   108    19    13   am
   109   101   102    2
   110    13    12    1
   111   109   110    1
   112   110   111    2
   113    12    11    1
   114    11     3   am
   115    71    69    1
   116    69    68    1
   117    10     9   ar
   118    10     8   ar
   119     3     4    2
   120     3     2    1
   121     9     7   ar
   122     8     6   ar
   123    70    68    1
   124    64    65    1
   125     7     6   ar
   126    68    65    1
   127     6     5    1
   128     2     5    1
   129     2     1    1
   130    67    66    2
   131    65    66    1
   132    50    51    1
   133    52    53    2
   134    52    51    1
   135    62    60   ar
   136    62    63   ar
   137    73    72    1
   138    73    74    1
   139    60    57   ar
   140    85    84    1
   141    51    54    1
   142    54    55    1
   143    63    61   ar
   144    75    74    2
   145    57    55   ar
   146    57    59   ar
   147    84    86    1
   148    84    83    2
   149    55    56   ar
   150    81    82    1
   151    81    80    1
   152    82    83    1
   153    61    59   ar
   154    59    58   ar
   155    80    77    1
   156    56    58   ar
   157    77    76    1
   158    77    78    1
   159    78    79    2
