@<TRIPOS>MOLECULE
tmp/5nbdB00.pdb
 107 103 0 0 0
SMALL
GASTEIGER

@<TRIPOS>ATOM
      1  N        -41.4850   41.4340  -16.1770 N.3   125  THR125     -0.1203
      2  CA       -40.9280   41.0470  -14.8860 C.3   125  THR125      0.1994
      3  C        -41.2350   39.5920  -14.5530 C.2   125  THR125      0.2618
      4  O        -40.3740   38.8810  -14.0210 O.2   125  THR125     -0.2717
      5  CB       -41.4680   41.9650  -13.7860 C.3   125  THR125      0.1784
      6  OG1      -41.1080   43.3220  -14.0720 O.3   125  THR125     -0.2211
      7  CG2      -40.9070   41.5720  -12.4300 C.3   125  THR125      0.0376
      8  N        -42.4500   39.1330  -14.8630 N.am  126  GLN126     -0.1965
      9  CA       -42.8570   37.7830  -14.4840 C.3   126  GLN126      0.1733
     10  C        -41.9820   36.7150  -15.1330 C.2   126  GLN126      0.2616
     11  O        -41.7250   35.6730  -14.5210 O.2   126  GLN126     -0.2715
     12  CB       -44.3290   37.5680  -14.8400 C.3   126  GLN126      0.0408
     13  CG       -44.7010   37.9430  -16.2640 C.3   126  GLN126      0.0908
     14  CD       -46.1980   38.0800  -16.4530 C.2   126  GLN126      0.2608
     15  OE1      -46.6840   38.2170  -17.5760 O.2   126  GLN126     -0.2717
     16  NE2      -46.9390   38.0500  -15.3510 N.am  126  GLN126     -0.0878
     17  N        -41.5100   36.9520  -16.3530 N.am  127  LYS127     -0.1963
     18  CA       -40.5980   36.0370  -17.0270 C.3   127  LYS127      0.1728
     19  C        -39.1790   36.5850  -16.9440 C.2   127  LYS127      0.2616
     20  O        -38.9470   37.7650  -17.2290 O.2   127  LYS127     -0.2715
     21  CB       -41.0120   35.8250  -18.4850 C.3   127  LYS127      0.0311
     22  CG       -41.4400   37.0930  -19.2020 C.3   127  LYS127      0.0038
     23  CD       -41.8790   36.8180  -20.6330 C.3   127  LYS127      0.0206
     24  CE       -43.0890   35.9020  -20.6810 C.3   127  LYS127      0.1093
     25  NZ       -43.5480   35.6650  -22.0780 N.3   127  LYS127     -0.1314
     26  N        -38.2360   35.7300  -16.5530 N.am  128  ASN128     -0.1972
     27  CA       -36.8560   36.1570  -16.3820 C.3   128  ASN128      0.1688
     28  C        -36.2170   36.4750  -17.7350 C.2   128  ASN128      0.2292
     29  O        -36.7410   36.1410  -18.8000 O.2   128  ASN128     -0.2864
     30  CB       -36.0490   35.0840  -15.6530 C.3   128  ASN128      0.1181
     31  CG       -36.1910   33.7180  -16.2870 C.2   128  ASN128      0.2629
     32  OD1      -37.2550   33.3680  -16.7970 O.2   128  ASN128     -0.2716
     33  ND2      -35.1170   32.9380  -16.2640 N.am  128  ASN128     -0.0877
     34  N        -46.7070   41.6920   -6.4090 N.3   358  TYR358     -0.1241
     35  CA       -46.5640   41.2010   -7.7710 C.3   358  TYR358      0.1605
     36  C        -47.7470   40.2970   -8.1280 C.2   358  TYR358      0.2264
     37  O        -48.6960   40.1270   -7.3560 O.2   358  TYR358     -0.2867
     38  CB       -45.2280   40.4830   -7.9420 C.3   358  TYR358      0.0534
     39  CG       -44.0440   41.4220   -8.0400 C.ar  358  TYR358     -0.0201
     40  CD1      -43.7460   42.0740   -9.2300 C.ar  358  TYR358     -0.0009
     41  CD2      -43.2240   41.6530   -6.9440 C.ar  358  TYR358     -0.0009
     42  CE1      -42.6630   42.9320   -9.3250 C.ar  358  TYR358      0.0417
     43  CE2      -42.1410   42.5080   -7.0290 C.ar  358  TYR358      0.0417
     44  CZ       -41.8640   43.1440   -8.2200 C.ar  358  TYR358      0.1957
     45  OH       -40.7840   43.9930   -8.3000 O.3   358  TYR358     -0.2866
     46  N        -47.3580   37.0020   -6.0840 N.3   361  LYS361     -0.1231
     47  CA       -46.6480   37.1960   -4.8310 C.3   361  LYS361      0.1693
     48  C        -47.5330   37.9090   -3.8160 C.2   361  LYS361      0.2591
     49  O        -48.5150   38.5720   -4.1620 O.2   361  LYS361     -0.2718
     50  CB       -45.3570   37.9890   -5.0540 C.3   361  LYS361      0.0285
     51  CG       -44.4550   37.4120   -6.1330 C.3   361  LYS361      0.0035
     52  CD       -43.0100   37.8230   -5.9200 C.3   361  LYS361      0.0206
     53  CE       -42.1690   36.6460   -5.4520 C.3   361  LYS361      0.1093
     54  NZ       -42.0610   35.6000   -6.5050 N.3   361  LYS361     -0.1314
     55  N        -47.1680   37.7600   -2.5460 N.am  362  LYS362     -0.1980
     56  CA       -47.9250   38.3620   -1.4610 C.3   362  LYS362      0.1596
     57  C        -47.8220   39.8850   -1.5040 C.2   362  LYS362      0.2287
     58  O        -46.9110   40.4610   -2.1070 O.2   362  LYS362     -0.2864
     59  CB       -47.4350   37.8320   -0.1110 C.3   362  LYS362      0.0298
     60  CG       -45.9970   37.3220   -0.1160 C.3   362  LYS362      0.0038
     61  CD       -44.9870   38.4580   -0.1880 C.3   362  LYS362      0.0206
     62  CE       -43.5550   37.9350   -0.1820 C.3   362  LYS362      0.1093
     63  NZ       -43.2400   37.1350   -1.3990 N.3   362  LYS362     -0.1314
     64  N        -46.7700   43.1960   -0.3920 N.3   364  LEU364     -0.1245
     65  CA       -45.7020   43.7860    0.4020 C.3   364  LEU364      0.1561
     66  C        -46.0080   45.2220    0.8150 C.2   364  LEU364      0.2260
     67  O        -45.0920   45.9510    1.2100 O.2   364  LEU364     -0.2867
     68  CB       -44.3840   43.7350   -0.3720 C.3   364  LEU364      0.0270
     69  CG       -44.1580   42.4870   -1.2280 C.3   364  LEU364      0.0019
     70  CD1      -43.7350   42.8800   -2.6330 C.3   364  LEU364      0.0001
     71  CD2      -43.1340   41.5670   -0.5870 C.3   364  LEU364      0.0001
     72  N        -35.0530   43.7000   -1.0860 N.3   385  GLY385     -0.1210
     73  CA       -36.0310   42.7220   -1.5080 C.3   385  GLY385      0.1956
     74  C        -37.3070   42.6910   -0.6980 C.2   385  GLY385      0.2612
     75  O        -38.1180   41.7810   -0.8970 O.2   385  GLY385     -0.2717
     76  N        -37.5180   43.6540    0.2070 N.am  386  CYS386     -0.1956
     77  CA       -38.7430   43.7270    1.0030 C.3   386  CYS386      0.1843
     78  C        -39.8680   44.4460    0.2630 C.2   386  CYS386      0.2626
     79  O        -40.9950   43.9470    0.2140 O.2   386  CYS386     -0.2714
     80  CB       -38.4700   44.4240    2.3440 C.3   386  CYS386      0.0997
     81  SG       -38.4820   46.2370    2.2920 S.3   386  CYS386     -0.0797
     82  N        -39.5850   45.6160   -0.3080 N.am  387  GLY387     -0.1940
     83  CA       -40.5890   46.3350   -1.0690 C.3   387  GLY387      0.2014
     84  C        -40.2020   47.7510   -1.4460 C.2   387  GLY387      0.2639
     85  O        -41.0690   48.5570   -1.7950 O.2   387  GLY387     -0.2714
     86  N        -38.9090   48.0730   -1.3820 N.am  388  LYS388     -0.1963
     87  CA       -38.4600   49.4090   -1.7650 C.3   388  LYS388      0.1728
     88  C        -38.5040   49.5820   -3.2770 C.2   388  LYS388      0.2617
     89  O        -39.2360   50.4310   -3.7980 O.2   388  LYS388     -0.2715
     90  CB       -37.0490   49.6730   -1.2400 C.3   388  LYS388      0.0311
     91  CG       -36.8280   49.2820    0.2020 C.3   388  LYS388      0.0038
     92  CD       -36.1480   47.9250    0.3090 C.3   388  LYS388      0.0206
     93  CE       -34.7740   47.9360   -0.3350 C.3   388  LYS388      0.1093
     94  NZ       -34.7950   47.4230   -1.7340 N.3   388  LYS388     -0.1314
     95  N        -37.7140   48.7820   -4.0000 N.am  389  SER389     -0.1936
     96  CA       -37.7480   48.8300   -5.4570 C.3   389  SER389      0.2055
     97  C        -39.1350   48.4980   -5.9900 C.2   389  SER389      0.2643
     98  O        -39.5180   48.9780   -7.0610 O.2   389  SER389     -0.2714
     99  CB       -36.7100   47.8710   -6.0400 C.3   389  SER389      0.2130
    100  OG       -36.6450   47.9840   -7.4510 O.3   389  SER389     -0.2179
    101  N        -39.9030   47.6880   -5.2570 N.am  390  THR390     -0.1950
    102  CA       -41.2810   47.4150   -5.6510 C.3   390  THR390      0.1897
    103  C        -42.1410   48.6660   -5.5190 C.2   390  THR390      0.2313
    104  O        -42.9360   48.9830   -6.4110 O.2   390  THR390     -0.2863
    105  CB       -41.8570   46.2800   -4.8050 C.3   390  THR390      0.1794
    106  OG1      -40.8430   45.2980   -4.5640 O.3   390  THR390     -0.2208
    107  CG2      -43.0240   45.6240   -5.5270 C.3   390  THR390      0.0378
@<TRIPOS>BOND
     1    25    24    1
     2    24    23    1
     3    23    22    1
     4    22    21    1
     5    29    28    2
     6    21    18    1
     7    28    27    1
     8    15    14    2
     9    20    19    2
    10    18    19    1
    11    18    17    1
    12    19    26   am
    13    32    31    2
    14    26    27    1
    15    14    13    1
    16    14    16   am
    17    27    30    1
    18    17    10   am
    19    31    33   am
    20    31    30    1
    21    13    12    1
    22     1     2    1
    23    10    11    2
    24    10     9    1
    25     2     3    1
    26     2     5    1
    27     8     3   am
    28     8     9    1
    29    12     9    1
    30     3     4    2
    31     6     5    1
    32     5     7    1
    33    42    40   ar
    34    42    44   ar
    35    40    39   ar
    36    45    44    1
    37    44    43   ar
    38    36    35    1
    39    36    37    2
    40    39    38    1
    41    39    41   ar
    42    38    35    1
    43    35    34    1
    44   100    99    1
    45    98    97    2
    46    43    41   ar
    47    54    53    1
    48   104   103    2
    49    51    52    1
    50    51    50    1
    51    46    47    1
    52    99    96    1
    53    97    96    1
    54    97   101   am
    55    52    53    1
    56   102   103    1
    57   102   101    1
    58   102   105    1
    59   107   105    1
    60    96    95    1
    61    50    47    1
    62    47    48    1
    63   105   106    1
    64    49    48    2
    65    95    88   am
    66    48    55   am
    67    89    88    2
    68    88    87    1
    69    70    69    1
    70    55    56    1
    71    58    57    2
    72    85    84    2
    73    87    86    1
    74    87    90    1
    75    94    93    1
    76    73    72    1
    77    73    74    1
    78    57    56    1
    79    56    59    1
    80    84    86   am
    81    84    83    1
    82    63    62    1
    83    90    91    1
    84    69    71    1
    85    69    68    1
    86    83    82    1
    87    75    74    2
    88    74    76   am
    89    64    65    1
    90    68    65    1
    91    93    92    1
    92    82    78   am
    93    61    62    1
    94    61    60    1
    95    60    59    1
    96    91    92    1
    97    76    77    1
    98    79    78    2
    99    78    77    1
   100    65    66    1
   101    66    67    2
   102    77    80    1
   103    81    80    1
