@<TRIPOS>MOLECULE
tmp/5nbfA00.pdb
 123 119 0 0 0
SMALL
GASTEIGER

@<TRIPOS>ATOM
      1  N         12.4900  -17.2990   14.6230 N.3    13  MET13      -0.1245
      2  CA        12.4650  -16.5380   15.8610 C.3    13  MET13       0.1570
      3  C         11.4720  -17.1350   16.8360 C.2    13  MET13       0.2261
      4  O         10.5260  -17.8550   16.4620 O.2    13  MET13      -0.2867
      5  CB        12.1130  -15.0550   15.6470 C.3    13  MET13       0.0387
      6  CG        12.3500  -14.5500   14.2740 C.3    13  MET13       0.0595
      7  SD        11.8240  -12.8660   14.0720 S.3    13  MET13      -0.1393
      8  CE        13.2980  -12.1650   14.7640 C.3    13  MET13       0.0692
      9  N          9.1840  -15.7770   20.4170 N.3    15  TYR15      -0.1241
     10  CA         8.7510  -14.5700   21.0830 C.3    15  TYR15       0.1605
     11  C          9.0810  -14.6460   22.5650 C.2    15  TYR15       0.2264
     12  O          8.6650  -15.5490   23.2670 O.2    15  TYR15      -0.2867
     13  CB         7.2650  -14.3110   20.8540 C.3    15  TYR15       0.0534
     14  CG         6.8600  -12.9280   21.2350 C.ar   15  TYR15      -0.0201
     15  CD1        7.1810  -11.8510   20.4440 C.ar   15  TYR15      -0.0009
     16  CD2        6.1670  -12.6800   22.4010 C.ar   15  TYR15      -0.0009
     17  CE1        6.8040  -10.5720   20.7860 C.ar   15  TYR15       0.0417
     18  CE2        5.7670  -11.4300   22.7340 C.ar   15  TYR15       0.0417
     19  CZ         6.0920  -10.3720   21.9370 C.ar   15  TYR15       0.1957
     20  OH         5.6620   -9.0940   22.2880 O.3    15  TYR15      -0.2866
     21  N         10.7280  -10.3310   19.8260 N.3    22  TRP22      -0.1241
     22  CA        11.2010  -11.5140   19.1470 C.3    22  TRP22       0.1605
     23  C         12.6980  -11.6580   19.3520 C.2    22  TRP22       0.2264
     24  O         13.4490  -10.6720   19.3400 O.2    22  TRP22      -0.2867
     25  CB        10.9180  -11.3960   17.6480 C.3    22  TRP22       0.0550
     26  CG         9.4720  -11.5100   17.2800 C.ar   22  TRP22       0.0003
     27  CD1        8.6130  -10.4910   17.0310 C.ar   22  TRP22       0.0946
     28  CD2        8.7160  -12.6960   17.1860 C.ar   22  TRP22       0.0152
     29  NE1        7.3690  -10.9770   16.7590 N.ar   22  TRP22      -0.2442
     30  CE2        7.4080  -12.3390   16.8180 C.ar   22  TRP22       0.0810
     31  CE3        9.0260  -14.0540   17.3230 C.ar   22  TRP22       0.0012
     32  CZ2        6.4040  -13.3000   16.6380 C.ar   22  TRP22       0.0191
     33  CZ3        8.0560  -14.9920   17.1320 C.ar   22  TRP22       0.0001
     34  CH2        6.7460  -14.6100   16.7860 C.ar   22  TRP22       0.0015
     35  N         -3.4990  -23.3330   14.5240 N.3    68  LYS68      -0.1245
     36  CA        -3.8540  -22.0710   13.8810 C.3    68  LYS68       0.1561
     37  C         -2.5820  -21.4010   13.3930 C.2    68  LYS68       0.2260
     38  O         -1.7680  -20.9050   14.1960 O.2    68  LYS68      -0.2867
     39  CB        -4.6160  -21.1710   14.8350 C.3    68  LYS68       0.0271
     40  CG        -5.1710  -19.9470   14.1600 C.3    68  LYS68       0.0035
     41  CD        -5.9680  -19.0180   15.1230 C.3    68  LYS68       0.0206
     42  CE        -7.0950  -19.7000   15.8700 C.3    68  LYS68       0.1093
     43  NZ        -7.8710  -18.7120   16.6640 N.3    68  LYS68      -0.1314
     44  N         -0.8460  -18.5400   11.5260 N.3    70  ASN70      -0.1240
     45  CA        -1.1510  -17.1310   11.2980 C.3    70  ASN70       0.1653
     46  C         -0.2360  -16.5860   10.2130 C.2    70  ASN70       0.2266
     47  O          0.9790  -16.3940   10.4240 O.2    70  ASN70      -0.2867
     48  CB        -1.0330  -16.3290   12.6010 C.3    70  ASN70       0.1155
     49  CG        -1.2860  -14.8370   12.4170 C.2    70  ASN70       0.2627
     50  OD1       -0.4810  -13.9970   12.7720 O.2    70  ASN70      -0.2716
     51  ND2       -2.4050  -14.5210   11.8310 N.am   70  ASN70      -0.0877
     52  N          0.5860  -13.6920    9.1630 N.3    72  ALA72      -0.1231
     53  CA         0.4710  -12.2920    9.5480 C.3    72  ALA72       0.1694
     54  C          0.6910  -11.3740    8.3590 C.2    72  ALA72       0.2592
     55  O         -0.0470  -10.3980    8.1700 O.2    72  ALA72      -0.2718
     56  CB         1.4840  -11.9620   10.6490 C.3    72  ALA72       0.0304
     57  N          1.7030  -11.6710    7.5510 N.am   73  THR73      -0.1953
     58  CA         1.9720  -10.9430    6.3320 C.3    73  THR73       0.1897
     59  C          2.4240  -11.9430    5.2860 C.2    73  THR73       0.2313
     60  O          2.5390  -13.1480    5.5410 O.2    73  THR73      -0.2863
     61  CB         3.0800   -9.9200    6.5060 C.3    73  THR73       0.1794
     62  OG1        4.3260  -10.6240    6.5790 O.3    73  THR73      -0.2208
     63  CG2        2.8730   -9.0770    7.7360 C.3    73  THR73       0.0378
     64  N          5.9600  -12.9660    6.8720 N.3    76  PHE76      -0.1241
     65  CA         6.1280  -13.3550    8.2720 C.3    76  PHE76       0.1605
     66  C          4.9120  -14.1570    8.7050 C.2    76  PHE76       0.2264
     67  O          3.7720  -13.6370    8.6940 O.2    76  PHE76      -0.2867
     68  CB         6.3320  -12.1410    9.1970 C.3    76  PHE76       0.0534
     69  CG         6.6430  -12.5410   10.5970 C.ar   76  PHE76      -0.0203
     70  CD1        7.9250  -12.9180   10.9360 C.ar   76  PHE76      -0.0042
     71  CD2        5.6610  -12.5760   11.5950 C.ar   76  PHE76      -0.0042
     72  CE1        8.2140  -13.3210   12.2320 C.ar   76  PHE76      -0.0003
     73  CE2        5.9590  -12.9830   12.8610 C.ar   76  PHE76      -0.0003
     74  CZ         7.2380  -13.3350   13.1930 C.ar   76  PHE76      -0.0000
     75  N          3.5160  -17.1690   11.7080 N.3    78  GLN78      -0.1231
     76  CA         3.7600  -17.5200   13.1120 C.3    78  GLN78       0.1698
     77  C          2.6910  -18.4590   13.6330 C.2    78  GLN78       0.2592
     78  O          1.5880  -18.5650   13.0660 O.2    78  GLN78      -0.2718
     79  CB         3.8130  -16.2800   13.9830 C.3    78  GLN78       0.0381
     80  CG         2.5960  -15.4440   13.9100 C.3    78  GLN78       0.0905
     81  CD         2.7480  -14.2110   14.7740 C.2    78  GLN78       0.2608
     82  OE1        3.5140  -14.1810   15.7640 O.2    78  GLN78      -0.2717
     83  NE2        2.0310  -13.2090   14.4340 N.am   78  GLN78      -0.0878
     84  N          3.0140  -19.1790   14.6730 N.am   79  TRP79      -0.1962
     85  CA         2.0650  -20.0700   15.3210 C.3    79  TRP79       0.1771
     86  C          2.5090  -20.2890   16.7490 C.2    79  TRP79       0.2619
     87  O          3.6290  -19.9340   17.1320 O.2    79  TRP79      -0.2715
     88  CB         1.9250  -21.4050   14.6000 C.3    79  TRP79       0.0590
     89  CG         3.1720  -22.2600   14.6620 C.ar   79  TRP79       0.0006
     90  CD1        3.4430  -23.2720   15.5490 C.ar   79  TRP79       0.0946
     91  CD2        4.3070  -22.1870   13.7870 C.ar   79  TRP79       0.0152
     92  NE1        4.6560  -23.8330   15.2720 N.ar   79  TRP79      -0.2442
     93  CE2        5.2170  -23.1780   14.2030 C.ar   79  TRP79       0.0810
     94  CE3        4.6450  -21.3730   12.6980 C.ar   79  TRP79       0.0012
     95  CZ2        6.4600  -23.3620   13.5710 C.ar   79  TRP79       0.0191
     96  CZ3        5.8620  -21.5770   12.0760 C.ar   79  TRP79       0.0001
     97  CH2        6.7530  -22.5660   12.5120 C.ar   79  TRP79       0.0015
     98  N          1.7260  -21.1130   17.4900 N.am   80  ARG80      -0.1977
     99  CA         1.9080  -21.3690   18.9300 C.3    80  ARG80       0.1597
    100  C          1.9650  -22.8550   19.3040 C.2    80  ARG80       0.2287
    101  O          1.2680  -23.6930   18.7260 O.2    80  ARG80      -0.2864
    102  CB         0.7930  -20.7580   19.8110 C.3    80  ARG80       0.0334
    103  CG         0.5540  -19.3370   19.5130 C.3    80  ARG80       0.0492
    104  CD        -0.5060  -18.7750   20.4030 C.3    80  ARG80       0.2205
    105  NE        -1.7480  -19.5310   20.2260 N.pl3  80  ARG80      -0.0865
    106  CZ        -2.8880  -19.0690   19.7100 C.cat  80  ARG80       0.5346
    107  NH1       -3.9010  -19.9230   19.5830 N.pl3  80  ARG80       0.1354
    108  NH2       -3.0590  -17.7760   19.3940 N.pl3  80  ARG80       0.1354
    109  N          5.8070  -19.2460   21.1630 N.3    85  VAL85      -0.1245
    110  CA         5.3360  -18.6980   19.8890 C.3    85  VAL85       0.1561
    111  C          6.5340  -18.6620   18.9400 C.2    85  VAL85       0.2260
    112  O          7.5980  -18.1000   19.2740 O.2    85  VAL85      -0.2867
    113  CB         4.7310  -17.2830   20.0070 C.3    85  VAL85       0.0252
    114  CG1        4.1190  -16.8940   18.6660 C.3    85  VAL85       0.0019
    115  CG2        3.6910  -17.2140   21.0830 C.3    85  VAL85       0.0019
    116  N         10.4850  -15.4090    9.5030 N.3    89  ASN89      -0.1240
    117  CA        10.6480  -14.1960    8.7090 C.3    89  ASN89       0.1653
    118  C         11.3100  -14.6640    7.4060 C.2    89  ASN89       0.2266
    119  O         12.5350  -14.8750    7.3510 O.2    89  ASN89      -0.2867
    120  CB        11.4660  -13.1500    9.4570 C.3    89  ASN89       0.1155
    121  CG        11.0730  -11.7390    9.1030 C.2    89  ASN89       0.2627
    122  OD1       10.1340  -11.4970    8.3640 O.2    89  ASN89      -0.2716
    123  ND2       11.7740  -10.7840    9.6900 N.am   89  ASN89      -0.0877
@<TRIPOS>BOND
     1    59    60    2
     2    59    58    1
     3    58    61    1
     4    58    57    1
     5    61    62    1
     6    61    63    1
     7    64    65    1
     8   119   118    2
     9   118   117    1
    10    57    54   am
    11    55    54    2
    12    65    66    1
    13    65    68    1
    14    54    53    1
    15   122   121    2
    16    67    66    2
    17   117   120    1
    18   117   116    1
    19   121   120    1
    20   121   123   am
    21    52    53    1
    22    68    69    1
    23    53    56    1
    24    46    47    2
    25    46    45    1
    26    69    70   ar
    27    69    71   ar
    28    70    72   ar
    29    45    44    1
    30    45    48    1
    31    71    73   ar
    32    75    76    1
    33    51    49   am
    34    96    97   ar
    35    96    94   ar
    36    72    74   ar
    37    49    48    1
    38    49    50    2
    39    97    95   ar
    40    94    91   ar
    41    73    74   ar
    42    78    77    2
    43    76    77    1
    44    76    79    1
    45    37    36    1
    46    37    38    2
    47    95    93   ar
    48    77    84   am
    49    91    93   ar
    50    91    89   ar
    51    36    35    1
    52    36    39    1
    53    80    79    1
    54    80    81    1
    55     7     6    1
    56     7     8    1
    57    40    39    1
    58    40    41    1
    59    93    92   ar
    60     6     5    1
    61    83    81   am
    62    88    89    1
    63    88    85    1
    64     1     2    1
    65    89    90   ar
    66    84    85    1
    67    81    82    2
    68    41    42    1
    69    92    90   ar
    70    85    86    1
    71     5     2    1
    72     2     3    1
    73    42    43    1
    74     4     3    2
    75    32    34   ar
    76    32    30   ar
    77    86    87    2
    78    86    98   am
    79    29    30   ar
    80    29    27   ar
    81    34    33   ar
    82    30    28   ar
    83    27    26   ar
    84    33    31   ar
    85    28    26   ar
    86    28    31   ar
    87    26    25    1
    88    98    99    1
    89    25    22    1
    90   114   113    1
    91   101   100    2
    92    99   100    1
    93    99   102    1
    94   111   112    2
    95   111   110    1
    96    22    23    1
    97    22    21    1
    98    24    23    2
    99   108   106    1
   100   103   102    1
   101   103   104    1
   102   107   106    1
   103   106   105    2
   104   110   113    1
   105   110   109    1
   106   113   115    1
   107   105   104    1
   108     9    10    1
   109    15    17   ar
   110    15    14   ar
   111    17    19   ar
   112    13    10    1
   113    13    14    1
   114    10    11    1
   115    14    16   ar
   116    19    20    1
   117    19    18   ar
   118    16    18   ar
   119    11    12    2
