@<TRIPOS>MOLECULE
tmp/5nbkB00.pdb
 100 98 0 0 0
SMALL
GASTEIGER

@<TRIPOS>ATOM
      1  N         23.0320   32.4240   41.0650 N.3   122  TRP122     -0.1241
      2  CA        23.8480   31.7830   40.0320 C.3   122  TRP122      0.1605
      3  C         23.0970   30.6720   39.3500 C.2   122  TRP122      0.2264
      4  O         22.3100   29.9760   39.9680 O.2   122  TRP122     -0.2867
      5  CB        25.1750   31.2820   40.5750 C.3   122  TRP122      0.0550
      6  CG        26.0580   32.4300   40.9500 C.ar  122  TRP122      0.0003
      7  CD1       26.3600   32.8500   42.2030 C.ar  122  TRP122      0.0946
      8  CD2       26.7220   33.3440   40.0510 C.ar  122  TRP122      0.0152
      9  NE1       27.1750   33.9610   42.1480 N.ar  122  TRP122     -0.2442
     10  CE2       27.4160   34.2850   40.8480 C.ar  122  TRP122      0.0810
     11  CE3       26.8130   33.4390   38.6500 C.ar  122  TRP122      0.0012
     12  CZ2       28.1980   35.2990   40.3040 C.ar  122  TRP122      0.0191
     13  CZ3       27.5840   34.4410   38.1080 C.ar  122  TRP122      0.0001
     14  CH2       28.2770   35.3660   38.9400 C.ar  122  TRP122      0.0015
     15  N         28.9590   33.2640   32.1570 N.3   135  LYS135     -0.1245
     16  CA        28.5550   33.1360   33.5350 C.3   135  LYS135      0.1561
     17  C         27.2000   33.8100   33.6640 C.2   135  LYS135      0.2260
     18  O         27.1010   35.0250   33.6960 O.2   135  LYS135     -0.2867
     19  CB        29.5980   33.7860   34.4180 C.3   135  LYS135      0.0271
     20  CG        30.9270   33.0290   34.4010 C.3   135  LYS135      0.0035
     21  CD        31.0380   32.0630   35.5860 C.3   135  LYS135      0.0206
     22  CE        32.3770   31.3200   35.6370 C.3   135  LYS135      0.1093
     23  NZ        32.5750   30.4940   34.4030 N.3   135  LYS135     -0.1314
     24  N         28.1060   37.4420   32.4650 N.3   151  GLY151     -0.1210
     25  CA        29.4730   37.8830   32.4900 C.3   151  GLY151      0.1956
     26  C         30.2750   37.0320   31.5330 C.2   151  GLY151      0.2612
     27  O         29.9280   35.8750   31.2550 O.2   151  GLY151     -0.2717
     28  N         31.3800   37.6020   31.0570 N.am  152  ILE152     -0.1965
     29  CA        32.3020   36.8880   30.1620 C.3   152  ILE152      0.1727
     30  C         33.6820   36.7370   30.8000 C.2   152  ILE152      0.2616
     31  O         34.4680   37.6790   30.8570 O.2   152  ILE152     -0.2715
     32  CB        32.3690   37.5880   28.7850 C.3   152  ILE152      0.0290
     33  CG1       30.9620   37.6710   28.2160 C.3   152  ILE152      0.0022
     34  CG2       33.2490   36.8230   27.8020 C.3   152  ILE152      0.0023
     35  CD1       30.8910   38.6560   27.0960 C.3   152  ILE152      0.0001
     36  N         33.9360   35.5350   31.3030 N.am  153  ASP153     -0.1957
     37  CA        35.2550   35.1370   31.7790 C.3   153  ASP153      0.1840
     38  C         36.3640   35.4320   30.7540 C.2   153  ASP153      0.2623
     39  O         36.1660   35.2950   29.5630 O.2   153  ASP153     -0.2715
     40  CB        35.2490   33.6430   32.0550 C.3   153  ASP153      0.1450
     41  CG        35.8130   33.2810   33.4150 C.2   153  ASP153      0.3671
     42  OD1       36.5470   34.0950   34.0430 O.co2 153  ASP153     -0.2456
     43  OD2       35.6120   32.1210   33.8130 O.co2 153  ASP153     -0.2456
     44  N         37.5140   35.8480   31.2370 N.am  154  GLY154     -0.1940
     45  CA        38.6250   36.2190   30.3970 C.3   154  GLY154      0.2014
     46  C         38.5570   37.6020   29.8080 C.2   154  GLY154      0.2640
     47  O         39.4370   37.9740   29.0060 O.2   154  GLY154     -0.2714
     48  N         37.5390   38.3760   30.2030 N.am  155  THR155     -0.1936
     49  CA        37.3180   39.7460   29.7320 C.3   155  THR155      0.2028
     50  C         36.8730   40.5970   30.9020 C.2   155  THR155      0.2642
     51  O         36.7150   40.1030   32.0070 O.2   155  THR155     -0.2714
     52  CB        36.2620   39.8320   28.6080 C.3   155  THR155      0.1808
     53  OG1       34.9340   39.9190   29.1620 O.3   155  THR155     -0.2208
     54  CG2       36.3390   38.6220   27.6700 C.3   155  THR155      0.0379
     55  N         36.6690   41.8790   30.6590 N.am  156  ASP156     -0.1957
     56  CA        36.1720   42.7850   31.6770 C.3   156  ASP156      0.1840
     57  C         34.7330   43.2190   31.3580 C.2   156  ASP156      0.2621
     58  O         34.2960   44.3040   31.7600 O.2   156  ASP156     -0.2715
     59  CB        37.1210   43.9770   31.8290 C.3   156  ASP156      0.1450
     60  CG        37.1420   44.8910   30.6000 C.2   156  ASP156      0.3671
     61  OD1       36.7650   44.4710   29.4620 O.co2 156  ASP156     -0.2456
     62  OD2       37.5430   46.0530   30.7820 O.co2 156  ASP156     -0.2456
     63  N         33.9760   42.3180   30.7380 N.am  157  ILE157     -0.1977
     64  CA        32.6800   42.6170   30.2180 C.3   157  ILE157      0.1596
     65  C         31.5790   41.8620   30.9590 C.2   157  ILE157      0.2287
     66  O         31.6310   40.6320   31.0980 O.2   157  ILE157     -0.2864
     67  CB        32.6020   42.2380   28.7250 C.3   157  ILE157      0.0276
     68  CG1       33.5720   43.0860   27.9020 C.3   157  ILE157      0.0022
     69  CG2       31.1890   42.4400   28.1890 C.3   157  ILE157      0.0022
     70  CD1       33.8000   42.5340   26.5080 C.3   157  ILE157      0.0001
     71  N         27.6350   40.6200   41.5340 N.3   193  ALA193     -0.1231
     72  CA        27.8390   39.3060   40.9590 C.3   193  ALA193      0.1694
     73  C         29.0420   39.3280   40.0540 C.2   193  ALA193      0.2592
     74  O         29.7400   38.3090   39.9460 O.2   193  ALA193     -0.2718
     75  CB        26.6210   38.8440   40.2080 C.3   193  ALA193      0.0304
     76  N         29.2980   40.4860   39.4290 N.am  194  PHE194     -0.1976
     77  CA        30.4090   40.6650   38.5030 C.3   194  PHE194      0.1639
     78  C         31.2630   41.8620   38.9200 C.2   194  PHE194      0.2290
     79  O         31.3890   42.8290   38.1680 O.2   194  PHE194     -0.2864
     80  CB        29.8610   40.8670   37.0940 C.3   194  PHE194      0.0560
     81  CG        28.9190   39.7840   36.6510 C.ar  194  PHE194     -0.0200
     82  CD1       29.3920   38.5230   36.3990 C.ar  194  PHE194     -0.0042
     83  CD2       27.5840   40.0250   36.4970 C.ar  194  PHE194     -0.0042
     84  CE1       28.5500   37.5220   35.9730 C.ar  194  PHE194     -0.0003
     85  CE2       26.7250   39.0330   36.0730 C.ar  194  PHE194     -0.0003
     86  CZ        27.2030   37.7730   35.8140 C.ar  194  PHE194     -0.0000
     87  N         34.4580   42.5220   38.9810 N.3   196  LYS196     -0.1231
     88  CA        35.6280   42.9080   38.1480 C.3   196  LYS196      0.1693
     89  C         35.3000   43.3760   36.7040 C.2   196  LYS196      0.2591
     90  O         36.1930   43.6120   35.8860 O.2   196  LYS196     -0.2718
     91  CB        36.6500   41.7790   38.1560 C.3   196  LYS196      0.0285
     92  CG        37.2330   41.6120   39.5620 C.3   196  LYS196      0.0035
     93  CD        38.3060   40.5370   39.6920 C.3   196  LYS196      0.0206
     94  CE        37.7770   39.1650   39.3010 C.3   196  LYS196      0.1093
     95  NZ        38.5770   38.1190   39.9830 N.3   196  LYS196     -0.1314
     96  N         34.0110   43.5360   36.4140 N.am  197  ALA197     -0.1980
     97  CA        33.5850   44.0140   35.1240 C.3   197  ALA197      0.1597
     98  C         33.7750   45.5100   35.1540 C.2   197  ALA197      0.2287
     99  O         33.2040   46.1720   35.9910 O.2   197  ALA197     -0.2864
    100  CB        32.1200   43.6510   34.8760 C.3   197  ALA197      0.0319
@<TRIPOS>BOND
     1    70    68    1
     2    35    33    1
     3    54    52    1
     4    34    32    1
     5    68    67    1
     6    69    67    1
     7    33    32    1
     8    52    53    1
     9    52    49    1
    10    67    64    1
    11    32    29    1
    12    47    46    2
    13    61    60   ar
    14    39    38    2
    15    49    48    1
    16    49    50    1
    17    46    48   am
    18    46    45    1
    19    29    30    1
    20    29    28    1
    21    64    63    1
    22    64    65    1
    23    45    44    1
    24    60    62   ar
    25    60    59    1
    26    55    50   am
    27    55    56    1
    28    63    57   am
    29    38    44   am
    30    38    37    1
    31    30    31    2
    32    30    36   am
    33    50    51    2
    34    65    66    2
    35    28    26   am
    36    27    26    2
    37    36    37    1
    38    57    56    1
    39    57    58    2
    40    26    25    1
    41    56    59    1
    42    37    40    1
    43    40    41    1
    44    15    16    1
    45    24    25    1
    46    41    43   ar
    47    41    42   ar
    48    16    17    1
    49    16    19    1
    50    17    18    2
    51    20    19    1
    52    20    21    1
    53    23    22    1
    54   100    97    1
    55    97    98    1
    56    97    96    1
    57    98    99    2
    58    21    22    1
    59    86    84   ar
    60    86    85   ar
    61    90    89    2
    62    84    82   ar
    63    85    83   ar
    64    82    81   ar
    65    96    89   am
    66    83    81   ar
    67    81    80    1
    68    89    88    1
    69    80    77    1
    70    13    11   ar
    71    13    14   ar
    72    88    91    1
    73    88    87    1
    74    91    92    1
    75    79    78    2
    76    77    78    1
    77    77    76    1
    78    11     8   ar
    79    14    12   ar
    80    94    93    1
    81    94    95    1
    82     3     4    2
    83     3     2    1
    84    76    73   am
    85    92    93    1
    86    74    73    2
    87     2     5    1
    88     2     1    1
    89     8    10   ar
    90     8     6   ar
    91    73    72    1
    92    75    72    1
    93    12    10   ar
    94     5     6    1
    95    10     9   ar
    96     6     7   ar
    97    72    71    1
    98     9     7   ar
