@<TRIPOS>MOLECULE
tmp/5nbkA00.pdb
 108 107 0 0 0
SMALL
GASTEIGER

@<TRIPOS>ATOM
      1  N        -17.7870   25.6560   63.8960 N.3    11  GLY11      -0.1210
      2  CA       -17.0640   24.3710   63.8960 C.3    11  GLY11       0.1956
      3  C        -15.5450   24.4470   63.8120 C.2    11  GLY11       0.2612
      4  O        -14.8870   23.4230   63.8810 O.2    11  GLY11      -0.2717
      5  N        -14.9750   25.6440   63.6610 N.am   12  ASP12      -0.1959
      6  CA       -13.5360   25.8190   63.8920 C.3    12  ASP12       0.1840
      7  C        -13.2780   25.5970   65.3660 C.2    12  ASP12       0.2621
      8  O        -14.1790   25.6850   66.1820 O.2    12  ASP12      -0.2715
      9  CB       -13.0350   27.2270   63.5850 C.3    12  ASP12       0.1450
     10  CG       -13.5050   27.7540   62.2820 C.2    12  ASP12       0.3671
     11  OD1      -13.6120   26.9610   61.3440 O.co2  12  ASP12      -0.2456
     12  OD2      -13.7540   28.9720   62.1940 O.co2  12  ASP12      -0.2456
     13  N        -12.0350   25.3190   65.6900 N.am   13  GLN13      -0.1977
     14  CA       -11.5960   25.1810   67.0630 C.3    13  GLN13       0.1601
     15  C        -10.5250   26.1880   67.3610 C.2    13  GLN13       0.2287
     16  O         -9.5300   26.2010   66.6990 O.2    13  GLN13      -0.2864
     17  CB       -11.0380   23.7930   67.2910 C.3    13  GLN13       0.0394
     18  CG       -12.1150   22.7690   67.6240 C.3    13  GLN13       0.0908
     19  CD       -11.5470   21.3720   67.8080 C.2    13  GLN13       0.2608
     20  OE1      -10.3610   21.2050   68.1590 O.2    13  GLN13      -0.2717
     21  NE2      -12.3790   20.3560   67.5580 N.am   13  GLN13      -0.0878
     22  N         -8.0240   26.3950   64.1360 N.3    20  PHE20      -0.1227
     23  CA        -7.7610   25.2180   63.3360 C.3    20  PHE20       0.1736
     24  C         -9.0760   24.6780   62.8340 C.2    20  PHE20       0.2595
     25  O        -10.0570   24.6570   63.5760 O.2    20  PHE20      -0.2718
     26  CB        -7.0440   24.1390   64.1560 C.3    20  PHE20       0.0547
     27  CG        -5.6720   24.5280   64.5680 C.ar   20  PHE20      -0.0202
     28  CD1       -5.4640   25.2900   65.6880 C.ar   20  PHE20      -0.0042
     29  CD2       -4.5870   24.1800   63.7910 C.ar   20  PHE20      -0.0042
     30  CE1       -4.1990   25.6850   66.0460 C.ar   20  PHE20      -0.0003
     31  CE2       -3.3140   24.5680   64.1490 C.ar   20  PHE20      -0.0003
     32  CZ        -3.1260   25.3210   65.2780 C.ar   20  PHE20      -0.0000
     33  N         -9.0980   24.2480   61.5680 N.am   21  ARG21      -0.1966
     34  CA       -10.3110   23.7490   60.9420 C.3    21  ARG21       0.1729
     35  C         -9.9240   22.5420   60.1540 C.2    21  ARG21       0.2616
     36  O         -8.9530   22.5730   59.3750 O.2    21  ARG21      -0.2715
     37  CB       -10.9210   24.7930   60.0140 C.3    21  ARG21       0.0348
     38  CG       -12.1920   24.3030   59.3060 C.3    21  ARG21       0.0492
     39  CD       -12.9610   25.3290   58.4560 C.3    21  ARG21       0.2205
     40  NE       -14.2200   24.7540   58.0100 N.pl3  21  ARG21      -0.0865
     41  CZ       -15.4100   24.7460   58.6490 C.cat  21  ARG21       0.5346
     42  NH1      -15.6340   25.3810   59.8030 N.pl3  21  ARG21       0.1354
     43  NH2      -16.4420   24.1160   58.0840 N.pl3  21  ARG21       0.1354
     44  N        -10.6910   21.4710   60.3270 N.am   22  GLN22      -0.1977
     45  CA       -10.4910   20.2710   59.5290 C.3    22  GLN22       0.1601
     46  C        -11.2420   20.3140   58.1910 C.2    22  GLN22       0.2287
     47  O        -12.4400   20.5460   58.1370 O.2    22  GLN22      -0.2864
     48  CB       -10.8820   19.0350   60.3180 C.3    22  GLN22       0.0394
     49  CG       -10.3360   17.7730   59.6690 C.3    22  GLN22       0.0908
     50  CD       -10.4700   16.5470   60.5170 C.2    22  GLN22       0.2608
     51  OE1      -11.1440   16.5420   61.5460 O.2    22  GLN22      -0.2717
     52  NE2       -9.8710   15.4650   60.0450 N.am   22  GLN22      -0.0878
     53  N         -5.9360   19.8100   57.5650 N.3    28  TRP28      -0.1241
     54  CA        -6.4340   20.8670   58.4510 C.3    28  TRP28       0.1605
     55  C         -5.9510   22.2030   57.9350 C.2    28  TRP28       0.2264
     56  O         -4.8650   22.3050   57.4150 O.2    28  TRP28      -0.2867
     57  CB        -5.9040   20.6740   59.8630 C.3    28  TRP28       0.0550
     58  CG        -6.4100   19.4910   60.4900 C.ar   28  TRP28       0.0003
     59  CD1       -7.5210   19.3980   61.2740 C.ar   28  TRP28       0.0946
     60  CD2       -5.8800   18.1690   60.3810 C.ar   28  TRP28       0.0152
     61  NE1       -7.7040   18.0980   61.6940 N.ar   28  TRP28      -0.2442
     62  CE2       -6.7000   17.3210   61.1800 C.ar   28  TRP28       0.0810
     63  CE3       -4.7740   17.6210   59.7340 C.ar   28  TRP28       0.0012
     64  CZ2       -6.4590   15.9510   61.3230 C.ar   28  TRP28       0.0191
     65  CZ3       -4.5340   16.2560   59.8740 C.ar   28  TRP28       0.0001
     66  CH2       -5.3850   15.4380   60.6530 C.ar   28  TRP28       0.0015
     67  N         -1.6030   15.2480   57.1710 N.3    46  ARG46      -0.1245
     68  CA        -1.0960   13.9900   57.6570 C.3    46  ARG46       0.1563
     69  C         -0.9680   13.0400   56.5000 C.2    46  ARG46       0.2260
     70  O         -1.9260   12.7730   55.8030 O.2    46  ARG46      -0.2867
     71  CB        -1.9960   13.3680   58.7070 C.3    46  ARG46       0.0307
     72  CG        -1.4780   12.0140   59.1830 C.3    46  ARG46       0.0489
     73  CD        -2.3700   11.4470   60.2690 C.3    46  ARG46       0.2205
     74  NE        -3.8140   11.4710   60.0040 N.pl3  46  ARG46      -0.0865
     75  CZ        -4.7670   11.5250   60.9590 C.cat  46  ARG46       0.5346
     76  NH1       -4.4420   11.5270   62.2490 N.pl3  46  ARG46       0.1354
     77  NH2       -6.0580   11.5880   60.6400 N.pl3  46  ARG46       0.1354
     78  N          0.1190   22.2360   68.5650 N.3    69  TRP69      -0.1241
     79  CA        -1.1660   21.6790   68.1990 C.3    69  TRP69       0.1605
     80  C         -0.9810   20.3190   67.5440 C.2    69  TRP69       0.2264
     81  O         -1.6760   19.3880   67.8890 O.2    69  TRP69      -0.2867
     82  CB        -1.9470   22.6360   67.3080 C.3    69  TRP69       0.0550
     83  CG        -3.3100   22.1280   66.9240 C.ar   69  TRP69       0.0003
     84  CD1       -4.4890   22.3910   67.5490 C.ar   69  TRP69       0.0946
     85  CD2       -3.6270   21.3040   65.7960 C.ar   69  TRP69       0.0152
     86  NE1       -5.5290   21.7800   66.8760 N.ar   69  TRP69      -0.2442
     87  CE2       -5.0210   21.0990   65.8040 C.ar   69  TRP69       0.0810
     88  CE3       -2.8690   20.7180   64.7890 C.ar   69  TRP69       0.0012
     89  CZ2       -5.6720   20.3130   64.8440 C.ar   69  TRP69       0.0191
     90  CZ3       -3.5200   19.9460   63.8200 C.ar   69  TRP69       0.0001
     91  CH2       -4.9070   19.7500   63.8600 C.ar   69  TRP69       0.0015
     92  N         -2.5710   16.9640   69.0590 N.3    73  GLU73      -0.1231
     93  CA        -3.7670   16.4310   68.3730 C.3    73  GLU73       0.1699
     94  C         -3.4720   15.3100   67.3680 C.2    73  GLU73       0.2592
     95  O         -4.2920   14.4440   67.1850 O.2    73  GLU73      -0.2718
     96  CB        -4.4890   17.5470   67.6140 C.3    73  GLU73       0.0402
     97  CG        -4.9020   18.7310   68.4520 C.3    73  GLU73       0.1161
     98  CD        -5.9760   18.3810   69.4560 C.2    73  GLU73       0.3649
     99  OE1       -7.0380   17.9490   69.0280 O.co2  73  GLU73      -0.2457
    100  OE2       -5.7630   18.5230   70.6760 O.co2  73  GLU73      -0.2457
    101  N         -2.3410   15.3680   66.6710 N.am   74  ILE74      -0.1980
    102  CA        -1.9490   14.3220   65.7160 C.3    74  ILE74       0.1595
    103  C         -0.8700   13.4070   66.2740 C.2    74  ILE74       0.2287
    104  O         -0.8810   12.2180   66.0250 O.2    74  ILE74      -0.2864
    105  CB        -1.4460   14.9410   64.3870 C.3    74  ILE74       0.0276
    106  CG1       -2.5690   15.7450   63.7270 C.3    74  ILE74       0.0022
    107  CG2       -0.9860   13.8540   63.4350 C.3    74  ILE74       0.0022
    108  CD1       -2.0960   16.7140   62.6750 C.3    74  ILE74       0.0001
@<TRIPOS>BOND
     1    70    69    2
     2    69    68    1
     3    67    68    1
     4    56    55    2
     5    53    54    1
     6    68    71    1
     7    55    54    1
     8    40    39    1
     9    40    41    2
    10    43    41    1
    11    47    46    2
    12    46    45    1
    13    54    57    1
    14    39    38    1
    15    41    42    1
    16    71    72    1
    17    72    73    1
    18    38    37    1
    19    36    35    2
    20    45    48    1
    21    45    44    1
    22    49    48    1
    23    49    50    1
    24    63    65   ar
    25    63    60   ar
    26    57    58    1
    27    65    66   ar
    28    74    73    1
    29    74    75    2
    30    37    34    1
    31    52    50   am
    32    35    44   am
    33    35    34    1
    34    60    58   ar
    35    60    62   ar
    36    58    59   ar
    37    50    51    2
    38    77    75    1
    39    66    64   ar
    40    34    33    1
    41    75    76    1
    42    62    64   ar
    43    62    61   ar
    44    59    61   ar
    45    11    10   ar
    46    33    24   am
    47    12    10   ar
    48    10     9    1
    49   108   106    1
    50    24    23    1
    51    24    25    2
    52    23    22    1
    53    23    26    1
    54   107   105    1
    55     9     6    1
    56     5     3   am
    57     5     6    1
    58   106   105    1
    59    29    31   ar
    60    29    27   ar
    61     3     4    2
    62     3     2    1
    63    90    91   ar
    64    90    88   ar
    65    91    89   ar
    66     6     7    1
    67     2     1    1
    68    31    32   ar
    69    26    27    1
    70   105   102    1
    71    27    28   ar
    72    88    85   ar
    73    89    87   ar
    74    32    30   ar
    75     7    13   am
    76     7     8    2
    77    28    30   ar
    78    13    14    1
    79   102   103    1
    80   102   101    1
    81    85    87   ar
    82    85    83   ar
    83    87    86   ar
    84   104   103    2
    85   101    94   am
    86    16    15    2
    87    86    84   ar
    88    83    82    1
    89    83    84   ar
    90    14    17    1
    91    14    15    1
    92    95    94    2
    93    17    18    1
    94    82    79    1
    95    94    93    1
    96    80    81    2
    97    80    79    1
    98    21    19   am
    99    96    93    1
   100    96    97    1
   101    18    19    1
   102    19    20    2
   103    79    78    1
   104    93    92    1
   105    97    98    1
   106    99    98   ar
   107    98   100   ar
