@<TRIPOS>MOLECULE
tmp/5nbpA00.pdb
 138 133 0 0 0
SMALL
GASTEIGER

@<TRIPOS>ATOM
      1  N        -26.4560   25.8940   -8.2350 N.3    25  THR25      -0.1203
      2  CA       -25.7750   24.6110   -8.2420 C.3    25  THR25       0.1994
      3  C        -26.7510   23.4600   -8.1020 C.2    25  THR25       0.2617
      4  O        -27.8520   23.5970   -7.4960 O.2    25  THR25      -0.2717
      5  CB       -24.6720   24.4690   -7.1490 C.3    25  THR25       0.1784
      6  OG1      -25.2190   24.5610   -5.8150 O.3    25  THR25      -0.2211
      7  CG2      -23.5540   25.4690   -7.3260 C.3    25  THR25       0.0376
      8  N        -26.3600   22.3380   -8.7030 N.am   26  ASN26      -0.1974
      9  CA       -27.0150   21.0540   -8.5480 C.3    26  ASN26       0.1688
     10  C        -28.4890   21.0560   -8.8830 C.2    26  ASN26       0.2292
     11  O        -29.2350   20.2740   -8.2980 O.2    26  ASN26      -0.2864
     12  CB       -26.8220   20.5650   -7.1180 C.3    26  ASN26       0.1181
     13  CG       -25.3540   20.5300   -6.7140 C.2    26  ASN26       0.2629
     14  OD1      -24.5140   19.9790   -7.4540 O.2    26  ASN26      -0.2716
     15  ND2      -25.0340   21.0920   -5.5440 N.am   26  ASN26      -0.0877
     16  N        -30.6490   22.9980   -7.8350 N.3    28  GLU28      -0.1245
     17  CA       -31.3610   23.3050   -6.6130 C.3    28  GLU28       0.1567
     18  C        -32.4880   24.3130   -6.8480 C.2    28  GLU28       0.2260
     19  O        -32.3750   25.1850   -7.7390 O.2    28  GLU28      -0.2867
     20  CB       -30.3970   23.8490   -5.5820 C.3    28  GLU28       0.0388
     21  CG       -29.4580   22.7910   -5.0470 C.3    28  GLU28       0.1160
     22  CD       -28.1710   23.3570   -4.4850 C.2    28  GLU28       0.3649
     23  OE1      -28.1550   24.5120   -3.9970 O.co2  28  GLU28      -0.2457
     24  OE2      -27.2160   22.5970   -4.4560 O.co2  28  GLU28      -0.2457
     25  N        -27.3540   29.9390    3.5040 N.3    63  ARG63      -0.1245
     26  CA       -26.0530   29.2870    3.3900 C.3    63  ARG63       0.1563
     27  C        -24.9890   30.2220    3.8820 C.2    63  ARG63       0.2260
     28  O        -25.0400   31.3880    3.5610 O.2    63  ARG63      -0.2867
     29  CB       -25.7930   28.9000    1.9370 C.3    63  ARG63       0.0307
     30  CG       -24.3710   28.5150    1.6130 C.3    63  ARG63       0.0489
     31  CD       -24.3500   27.6520    0.3560 C.3    63  ARG63       0.2205
     32  NE       -23.0410   27.5160   -0.2430 N.pl3  63  ARG63      -0.0865
     33  CZ       -22.7600   26.6760   -1.2440 C.cat  63  ARG63       0.5346
     34  NH1      -23.7010   25.8610   -1.7710 N.pl3  63  ARG63       0.1354
     35  NH2      -21.5340   26.6790   -1.7470 N.pl3  63  ARG63       0.1354
     36  N        -32.4180   19.4130    1.8940 N.3    91  TRP91      -0.1241
     37  CA       -31.0680   18.9290    1.6790 C.3    91  TRP91       0.1605
     38  C        -30.0990   19.7210    2.5310 C.2    91  TRP91       0.2264
     39  O        -29.4280   20.6150    2.0380 O.2    91  TRP91      -0.2867
     40  CB       -30.7180   18.9760    0.1840 C.3    91  TRP91       0.0550
     41  CG       -29.3840   18.5650   -0.2250 C.ar   91  TRP91       0.0003
     42  CD1      -28.4410   17.9180    0.5180 C.ar   91  TRP91       0.0946
     43  CD2      -28.8150   18.7550   -1.5170 C.ar   91  TRP91       0.0152
     44  NE1      -27.3380   17.6940   -0.2260 N.ar   91  TRP91      -0.2442
     45  CE2      -27.5290   18.2100   -1.4860 C.ar   91  TRP91       0.0810
     46  CE3      -29.2630   19.3770   -2.6920 C.ar   91  TRP91       0.0012
     47  CZ2      -26.6720   18.2350   -2.6010 C.ar   91  TRP91       0.0191
     48  CZ3      -28.4380   19.3850   -3.7900 C.ar   91  TRP91       0.0001
     49  CH2      -27.1380   18.8400   -3.7370 C.ar   91  TRP91       0.0015
     50  N        -26.6890   20.2770    4.8200 N.3    93  ALA93      -0.1245
     51  CA       -25.2960   19.8810    4.7790 C.3    93  ALA93       0.1562
     52  C        -24.4060   20.6920    5.6900 C.2    93  ALA93       0.2260
     53  O        -24.6230   21.8900    5.9100 O.2    93  ALA93      -0.2867
     54  CB       -24.7470   19.8940    3.3600 C.3    93  ALA93       0.0290
     55  N        -20.2370   20.8900    5.7860 N.3    95  TRP95      -0.1241
     56  CA       -19.1570   20.5430    4.8630 C.3    95  TRP95       0.1605
     57  C        -18.0350   21.5880    4.8370 C.2    95  TRP95       0.2264
     58  O        -18.0600   22.6050    5.5740 O.2    95  TRP95      -0.2867
     59  CB       -19.7220   20.2400    3.4860 C.3    95  TRP95       0.0550
     60  CG       -20.5680   21.3000    2.8220 C.ar   95  TRP95       0.0003
     61  CD1      -21.7390   21.8530    3.2880 C.ar   95  TRP95       0.0946
     62  CD2      -20.3550   21.8650    1.5290 C.ar   95  TRP95       0.0152
     63  NE1      -22.2320   22.7500    2.3860 N.ar   95  TRP95      -0.2442
     64  CE2      -21.4250   22.7530    1.2780 C.ar   95  TRP95       0.0810
     65  CE3      -19.3830   21.6880    0.5500 C.ar   95  TRP95       0.0012
     66  CZ2      -21.5260   23.4900    0.1130 C.ar   95  TRP95       0.0191
     67  CZ3      -19.4900   22.4190   -0.6350 C.ar   95  TRP95       0.0001
     68  CH2      -20.5730   23.2990   -0.8440 C.ar   95  TRP95       0.0015
     69  N        -13.6470   24.9950   -7.8680 N.3   104  TRP104     -0.1241
     70  CA       -14.1520   23.6810   -7.4610 C.3   104  TRP104      0.1605
     71  C        -14.0520   22.8030   -8.6930 C.2   104  TRP104      0.2264
     72  O        -14.3340   23.2880   -9.7810 O.2   104  TRP104     -0.2867
     73  CB       -15.6130   23.7980   -6.9900 C.3   104  TRP104      0.0550
     74  CG       -16.2330   22.5310   -6.5660 C.ar  104  TRP104      0.0003
     75  CD1      -16.3030   22.0250   -5.3040 C.ar  104  TRP104      0.0946
     76  CD2      -16.8310   21.5580   -7.4220 C.ar  104  TRP104      0.0152
     77  NE1      -16.9560   20.7910   -5.3170 N.ar  104  TRP104     -0.2442
     78  CE2      -17.2930   20.4970   -6.6040 C.ar  104  TRP104      0.0810
     79  CE3      -17.0490   21.4900   -8.8060 C.ar  104  TRP104      0.0012
     80  CZ2      -17.9650   19.3820   -7.1360 C.ar  104  TRP104      0.0191
     81  CZ3      -17.7240   20.3940   -9.3270 C.ar  104  TRP104      0.0001
     82  CH2      -18.1550   19.3500   -8.4960 C.ar  104  TRP104      0.0015
     83  N        -13.0280   19.2470   -1.3850 N.3   109  GLU109     -0.1245
     84  CA       -14.3160   19.3400   -0.7080 C.3   109  GLU109      0.1567
     85  C        -14.5340   18.1490    0.2120 C.2   109  GLU109      0.2260
     86  O        -14.3620   16.9980   -0.2030 O.2   109  GLU109     -0.2867
     87  CB       -15.4410   19.4590   -1.7230 C.3   109  GLU109      0.0388
     88  CG       -16.7900   19.6220   -1.0710 C.3   109  GLU109      0.1160
     89  CD       -17.9790   19.4160   -2.0040 C.2   109  GLU109      0.3649
     90  OE1      -17.9010   19.5270   -3.2250 O.co2 109  GLU109     -0.2457
     91  OE2      -19.0320   19.1420   -1.4540 O.co2 109  GLU109     -0.2457
     92  N        -17.5400   16.6180    2.5630 N.3   111  ASP111     -0.1239
     93  CA       -18.9010   16.6010    3.0480 C.3   111  ASP111      0.1674
     94  C        -18.9790   15.7480    4.3060 C.2   111  ASP111      0.2266
     95  O        -18.8880   14.4990    4.2680 O.2   111  ASP111     -0.2867
     96  CB       -19.8330   16.0940    1.9600 C.3   111  ASP111      0.1410
     97  CG       -19.6510   16.8720    0.6720 C.2   111  ASP111      0.3668
     98  OD1      -19.5260   18.1150    0.7480 O.co2 111  ASP111     -0.2456
     99  OD2      -19.5940   16.2680   -0.4060 O.co2 111  ASP111     -0.2456
    100  N        -24.4550   15.0920    4.9670 N.3   114  GLU114     -0.1245
    101  CA       -25.5400   15.5390    4.1110 C.3   114  GLU114      0.1567
    102  C        -26.6950   14.6030    4.3760 C.2   114  GLU114      0.2260
    103  O        -26.4600   13.4040    4.5770 O.2   114  GLU114     -0.2867
    104  CB       -25.1610   15.4230    2.6330 C.3   114  GLU114      0.0388
    105  CG       -23.9570   16.2270    2.2010 C.3   114  GLU114      0.1160
    106  CD       -23.7940   16.1220    0.6910 C.2   114  GLU114      0.3649
    107  OE1      -24.6140   16.7590   -0.0210 O.co2 114  GLU114     -0.2457
    108  OE2      -22.9340   15.3210    0.2340 O.co2 114  GLU114     -0.2457
    109  N        -14.7850   15.2570   -2.6150 N.3   135  HIS135     -0.1241
    110  CA       -14.6790   15.5630   -4.0250 C.3   135  HIS135      0.1621
    111  C        -13.3720   16.2820   -4.2770 C.2   135  HIS135      0.2264
    112  O        -12.8910   17.0790   -3.4470 O.2   135  HIS135     -0.2867
    113  CB       -15.8240   16.4840   -4.5070 C.3   135  HIS135      0.0745
    114  CG       -17.1920   16.0090   -4.1820 C.ar  135  HIS135      0.0817
    115  ND1      -18.1190   15.7100   -5.1570 N.ar  135  HIS135     -0.2268
    116  CD2      -17.8310   15.8570   -2.9980 C.ar  135  HIS135      0.1154
    117  CE1      -19.2460   15.3320   -4.5910 C.ar  135  HIS135      0.1986
    118  NE2      -19.1050   15.4200   -3.2790 N.ar  135  HIS135     -0.2212
    119  N        -17.8210    8.4670   -2.0010 N.3   147  TYR147     -0.1241
    120  CA       -19.0120    8.6020   -1.1320 C.3   147  TYR147      0.1605
    121  C        -19.1910    7.4030   -0.2390 C.2   147  TYR147      0.2264
    122  O        -18.8730    6.2950   -0.6510 O.2   147  TYR147     -0.2867
    123  CB       -20.2670    8.6990   -1.9910 C.3   147  TYR147      0.0534
    124  CG       -20.6440   10.0780   -2.4390 C.ar  147  TYR147     -0.0201
    125  CD1      -19.8640   10.7880   -3.3220 C.ar  147  TYR147     -0.0009
    126  CD2      -21.8150   10.6490   -2.0130 C.ar  147  TYR147     -0.0009
    127  CE1      -20.2450   12.0490   -3.7490 C.ar  147  TYR147      0.0417
    128  CE2      -22.1970   11.9110   -2.4250 C.ar  147  TYR147      0.0417
    129  CZ       -21.3980   12.5940   -3.2900 C.ar  147  TYR147      0.1957
    130  OH       -21.7770   13.8220   -3.6980 O.3   147  TYR147     -0.2866
    131  N        -25.4480   24.8070    5.0450 N.3   202  ASN202     -0.1240
    132  CA       -26.5150   25.2750    4.1690 C.3   202  ASN202      0.1653
    133  C        -27.7030   24.3970    4.2840 C.2   202  ASN202      0.2266
    134  O        -27.6140   23.2690    4.7040 O.2   202  ASN202     -0.2867
    135  CB       -26.0870   25.3280    2.6770 C.3   202  ASN202      0.1155
    136  CG       -25.9280   23.9450    2.0810 C.2   202  ASN202      0.2627
    137  OD1      -24.9370   23.3030    2.3500 O.2   202  ASN202     -0.2716
    138  ND2      -26.9630   23.4320    1.3630 N.am  202  ASN202     -0.0877
@<TRIPOS>BOND
     1    72    71    2
     2    81    79   ar
     3    81    82   ar
     4    10     9    1
     5    10    11    2
     6    79    76   ar
     7     8     9    1
     8     8     3   am
     9    71    70    1
    10     9    12    1
    11    82    80   ar
    12     2     1    1
    13     2     3    1
    14     2     5    1
    15     3     4    2
    16    69    70    1
    17    16    17    1
    18    19    18    2
    19    70    73    1
    20    14    13    2
    21    76    78   ar
    22    76    74   ar
    23     7     5    1
    24     5     6    1
    25    80    78   ar
    26    12    13    1
    27    73    74    1
    28    18    17    1
    29    13    15   am
    30    17    20    1
    31    78    77   ar
    32    74    75   ar
    33    20    21    1
    34    77    75   ar
    35   115   117   ar
    36   115   114   ar
    37    21    22    1
    38   117   118   ar
    39   113   114    1
    40   113   110    1
    41    22    24   ar
    42    22    23   ar
    43   111   110    1
    44   111   112    2
    45   114   116   ar
    46   110   109    1
    47    48    49   ar
    48    48    46   ar
    49   127   125   ar
    50   127   129   ar
    51    49    47   ar
    52   130   129    1
    53   125   124   ar
    54   129   128   ar
    55   118   116   ar
    56    90    89   ar
    57    46    43   ar
    58    47    45   ar
    59   124   126   ar
    60   124   123    1
    61   128   126   ar
    62    89    91   ar
    63    89    88    1
    64   119   120    1
    65   123   120    1
    66    34    33    1
    67    35    33    1
    68    87    88    1
    69    87    84    1
    70    43    45   ar
    71    43    41   ar
    72    45    44   ar
    73    83    84    1
    74    33    32    2
    75   120   121    1
    76    68    67   ar
    77    68    66   ar
    78    84    85    1
    79   122   121    2
    80    67    65   ar
    81    99    97   ar
    82    32    31    1
    83    44    42   ar
    84    41    40    1
    85    41    42   ar
    86    86    85    2
    87   107   106   ar
    88    66    64   ar
    89    40    37    1
    90   108   106   ar
    91    31    30    1
    92    65    62   ar
    93    97    98   ar
    94    97    96    1
    95   106   105    1
    96    64    62   ar
    97    64    63   ar
    98   138   136   am
    99    62    60   ar
   100    30    29    1
   101    37    36    1
   102    37    38    1
   103    29    26    1
   104    96    93    1
   105    39    38    2
   106   136   137    2
   107   136   135    1
   108   105   104    1
   109    63    61   ar
   110    92    93    1
   111   104   101    1
   112   135   132    1
   113    60    61   ar
   114    60    59    1
   115    93    94    1
   116    54    51    1
   117    26    25    1
   118    26    27    1
   119    59    56    1
   120    28    27    2
   121   101   102    1
   122   101   100    1
   123   132   133    1
   124   132   131    1
   125    95    94    2
   126   133   134    2
   127   102   103    2
   128    51    50    1
   129    51    52    1
   130    57    56    1
   131    57    58    2
   132    56    55    1
   133    52    53    2
