@<TRIPOS>MOLECULE
tmp/5nbsA15.pdb
 96 93 0 0 0
SMALL
GASTEIGER

@<TRIPOS>ATOM
      1  N         49.6200  120.2500   -3.0690 N.3    52  GLU52      -0.1245
      2  CA        49.7620  119.0710   -2.2100 C.3    52  GLU52       0.1567
      3  C         48.4250  118.5470   -1.6780 C.2    52  GLU52       0.2260
      4  O         47.6870  117.9110   -2.4230 O.2    52  GLU52      -0.2867
      5  CB        50.7810  119.3110   -1.0810 C.3    52  GLU52       0.0388
      6  CG        52.2130  119.0550   -1.4920 C.3    52  GLU52       0.1160
      7  CD        53.2030  119.3490   -0.3910 C.2    52  GLU52       0.3649
      8  OE1       54.2250  120.0030   -0.6870 O.co2  52  GLU52      -0.2457
      9  OE2       52.9570  118.9370    0.7660 O.co2  52  GLU52      -0.2457
     10  N         57.3640  124.9030    3.2260 N.3    60  ALA60      -0.1245
     11  CA        57.9260  124.3570    4.4640 C.3    60  ALA60       0.1562
     12  C         59.2610  125.0520    4.7800 C.2    60  ALA60       0.2260
     13  O         59.8310  125.7250    3.9180 O.2    60  ALA60      -0.2867
     14  CB        58.1220  122.8520    4.3360 C.3    60  ALA60       0.0290
     15  N         62.0960  123.0490    6.2010 N.3    62  PRO62      -0.2116
     16  CA        62.5850  121.7640    6.7120 C.3    62  PRO62       0.1372
     17  C         63.9490  121.8030    7.4220 C.2    62  PRO62       0.2244
     18  O         64.2780  120.8470    8.1290 O.2    62  PRO62      -0.2868
     19  CB        62.6660  120.8970    5.4500 C.3    62  PRO62       0.0268
     20  CG        62.8990  121.8620    4.3390 C.3    62  PRO62       0.0207
     21  CD        62.1380  123.0990    4.7260 C.3    62  PRO62       0.0892
     22  N         51.5490  115.3600   -4.7970 N.3   349  HIS349     -0.1241
     23  CA        51.4880  116.6010   -5.5680 C.3   349  HIS349      0.1621
     24  C         50.4470  116.4750   -6.6450 C.2   349  HIS349      0.2264
     25  O         50.7440  116.0230   -7.7500 O.2   349  HIS349     -0.2867
     26  CB        52.8530  116.9580   -6.1470 C.3   349  HIS349      0.0745
     27  CG        53.8990  117.1400   -5.1010 C.ar  349  HIS349      0.0817
     28  ND1       53.7980  118.0870   -4.1040 N.ar  349  HIS349     -0.2268
     29  CD2       55.0480  116.4680   -4.8690 C.ar  349  HIS349      0.1154
     30  CE1       54.8490  117.9970   -3.3090 C.ar  349  HIS349      0.1986
     31  NE2       55.6240  117.0240   -3.7530 N.ar  349  HIS349     -0.2212
     32  N         54.6290  111.8140   -7.0910 N.3   355  ASP355     -0.1239
     33  CA        54.9280  111.3800   -5.7340 C.3   355  ASP355      0.1674
     34  C         53.7620  110.5950   -5.1610 C.2   355  ASP355      0.2266
     35  O         53.1610  110.9770   -4.1500 O.2   355  ASP355     -0.2867
     36  CB        55.3700  112.5630   -4.8480 C.3   355  ASP355      0.1410
     37  CG        56.6820  113.1860   -5.3190 C.2   355  ASP355      0.3668
     38  OD1       57.2550  112.7080   -6.3260 O.co2 355  ASP355     -0.2456
     39  OD2       57.1490  114.1510   -4.6780 O.co2 355  ASP355     -0.2456
     40  N         69.3680  119.1740   -6.0650 N.3   682  GLU682     -0.1231
     41  CA        68.8600  118.7780   -4.7550 C.3   682  GLU682      0.1699
     42  C         67.4820  118.1170   -4.8700 C.2   682  GLU682      0.2592
     43  O         67.2590  117.0380   -4.3180 O.2   682  GLU682     -0.2718
     44  CB        68.7940  120.0190   -3.8750 C.3   682  GLU682      0.0402
     45  CG        68.8050  119.7590   -2.3860 C.3   682  GLU682      0.1161
     46  CD        68.9750  121.0530   -1.6070 C.2   682  GLU682      0.3649
     47  OE1       70.0610  121.6720   -1.7160 O.co2 682  GLU682     -0.2457
     48  OE2       68.0210  121.4600   -0.9040 O.co2 682  GLU682     -0.2457
     49  N         66.5580  118.7790   -5.5690 N.am  683  PHE683     -0.1963
     50  CA        65.2330  118.2120   -5.8760 C.3   683  PHE683      0.1756
     51  C         64.6790  118.7560   -7.2010 C.2   683  PHE683      0.2461
     52  O         65.0580  119.8460   -7.6270 O.2   683  PHE683     -0.2730
     53  CB        64.2390  118.4540   -4.7240 C.3   683  PHE683      0.0574
     54  CG        64.1280  119.8920   -4.2830 C.ar  683  PHE683     -0.0200
     55  CD1       63.3610  120.8080   -5.0060 C.ar  683  PHE683     -0.0042
     56  CD2       64.7540  120.3260   -3.1160 C.ar  683  PHE683     -0.0042
     57  CE1       63.2460  122.1280   -4.5920 C.ar  683  PHE683     -0.0003
     58  CE2       64.6380  121.6450   -2.6960 C.ar  683  PHE683     -0.0003
     59  CZ        63.8850  122.5470   -3.4340 C.ar  683  PHE683     -0.0000
     60  N         63.7810  117.9980   -7.8620 N.am  684  PRO684     -0.2727
     61  CA        63.2470  118.4780   -9.1370 C.3   684  PRO684      0.1402
     62  C         62.2500  119.6370   -8.9860 C.2   684  PRO684      0.2269
     63  O         61.5430  119.7300   -7.9730 O.2   684  PRO684     -0.2865
     64  CB        62.5530  117.2370   -9.7130 C.3   684  PRO684      0.0296
     65  CG        62.1690  116.4320   -8.5250 C.3   684  PRO684      0.0237
     66  CD        63.2410  116.6730   -7.5060 C.3   684  PRO684      0.0939
     67  N         58.8960  120.9310   -9.5230 N.3   686  VAL686     -0.1245
     68  CA        57.5830  120.2920   -9.6840 C.3   686  VAL686      0.1561
     69  C         56.6230  121.2080  -10.4680 C.2   686  VAL686      0.2260
     70  O         56.4970  122.3990  -10.1760 O.2   686  VAL686     -0.2867
     71  CB        57.0080  119.8740   -8.3040 C.3   686  VAL686      0.0252
     72  CG1       55.5560  119.4150   -8.4040 C.3   686  VAL686      0.0019
     73  CG2       57.8690  118.7700   -7.7060 C.3   686  VAL686      0.0019
     74  N         54.1520  124.2330   -9.3350 N.3   689  PHE689     -0.1241
     75  CA        54.4220  124.4450   -7.9100 C.3   689  PHE689      0.1605
     76  C         55.0440  125.8370   -7.7490 C.2   689  PHE689      0.2264
     77  O         55.7440  126.3100   -8.6480 O.2   689  PHE689     -0.2867
     78  CB        55.3460  123.3420   -7.3830 C.3   689  PHE689      0.0534
     79  CG        55.3180  123.1670   -5.8890 C.ar  689  PHE689     -0.0203
     80  CD1       56.0930  123.9780   -5.0620 C.ar  689  PHE689     -0.0042
     81  CD2       54.5530  122.1610   -5.3070 C.ar  689  PHE689     -0.0042
     82  CE1       56.0790  123.8020   -3.6880 C.ar  689  PHE689     -0.0003
     83  CE2       54.5400  121.9790   -3.9340 C.ar  689  PHE689     -0.0003
     84  CZ        55.3030  122.8010   -3.1200 C.ar  689  PHE689     -0.0000
     85  N         57.4770  128.3850   -5.8350 N.3   691  TYR691     -0.1241
     86  CA        58.7330  128.3550   -5.1130 C.3   691  TYR691      0.1605
     87  C         59.2320  129.7760   -4.8550 C.2   691  TYR691      0.2264
     88  O         58.8640  130.7020   -5.5850 O.2   691  TYR691     -0.2867
     89  CB        59.7870  127.6670   -5.9610 C.3   691  TYR691      0.0534
     90  CG        59.6000  126.1960   -6.1640 C.ar  691  TYR691     -0.0201
     91  CD1       59.8380  125.2960   -5.1280 C.ar  691  TYR691     -0.0009
     92  CD2       59.2410  125.6920   -7.4070 C.ar  691  TYR691     -0.0009
     93  CE1       59.6870  123.9300   -5.3160 C.ar  691  TYR691      0.0417
     94  CE2       59.0870  124.3320   -7.6110 C.ar  691  TYR691      0.0417
     95  CZ        59.3160  123.4540   -6.5660 C.ar  691  TYR691      0.1957
     96  OH        59.1660  122.1090   -6.7910 O.3   691  TYR691     -0.2866
@<TRIPOS>BOND
     1    69    70    2
     2    69    68    1
     3    64    61    1
     4    64    65    1
     5    68    67    1
     6    68    71    1
     7    74    75    1
     8    61    62    1
     9    61    60    1
    10    62    63    2
    11    77    76    2
    12    65    66    1
    13    72    71    1
    14    71    73    1
    15    75    76    1
    16    75    78    1
    17    60    66    1
    18    60    51   am
    19    25    24    2
    20    52    51    2
    21    94    92   ar
    22    94    95   ar
    23    92    90   ar
    24    78    79    1
    25    51    50    1
    26    32    33    1
    27    96    95    1
    28    24    23    1
    29    95    93   ar
    30    38    37   ar
    31    90    89    1
    32    90    91   ar
    33    26    23    1
    34    26    27    1
    35    40    41    1
    36    89    86    1
    37    79    81   ar
    38    79    80   ar
    39    50    49    1
    40    50    53    1
    41    85    86    1
    42    33    34    1
    43    33    36    1
    44    88    87    2
    45    49    42   am
    46    23    22    1
    47    37    36    1
    48    37    39   ar
    49    93    91   ar
    50    81    83   ar
    51    34    35    2
    52    86    87    1
    53    27    29   ar
    54    27    28   ar
    55    80    82   ar
    56    55    57   ar
    57    55    54   ar
    58    42    41    1
    59    42    43    2
    60    29    31   ar
    61    41    44    1
    62    53    54    1
    63    57    59   ar
    64    54    56   ar
    65    28    30   ar
    66    83    84   ar
    67    44    45    1
    68    31    30   ar
    69    82    84   ar
    70    59    58   ar
    71    56    58   ar
    72     1     2    1
    73     4     3    2
    74    45    46    1
    75     2     3    1
    76     2     5    1
    77    47    46   ar
    78    46    48   ar
    79     6     5    1
    80     6     7    1
    81     8     7   ar
    82     7     9   ar
    83    10    11    1
    84    13    12    2
    85    14    11    1
    86    20    21    1
    87    20    19    1
    88    11    12    1
    89    21    15    1
    90    19    16    1
    91    15    16    1
    92    16    17    1
    93    17    18    2
