@<TRIPOS>MOLECULE
tmp/5nbsA14.pdb
 167 164 0 0 0
SMALL
GASTEIGER

@<TRIPOS>ATOM
      1  N         66.3440  132.3430    6.7510 N.3    36  THR36      -0.1218
      2  CA        66.8610  132.9660    5.5310 C.3    36  THR36       0.1862
      3  C         65.7010  133.6710    4.8120 C.2    36  THR36       0.2287
      4  O         64.5350  133.4160    5.1070 O.2    36  THR36      -0.2866
      5  CB        67.4800  131.9240    4.5730 C.3    36  THR36       0.1770
      6  OG1       66.4480  131.0870    4.0450 O.3    36  THR36      -0.2211
      7  CG2       68.5370  131.0570    5.2780 C.3    36  THR36       0.0375
      8  N         64.6930  133.2260    1.7090 N.3    38  LEU38      -0.1231
      9  CA        63.9150  132.2020    0.9870 C.3    38  LEU38       0.1693
     10  C         62.9050  131.4950    1.8810 C.2    38  LEU38       0.2591
     11  O         61.8000  131.1720    1.4290 O.2    38  LEU38      -0.2718
     12  CB        64.8320  131.1510    0.3510 C.3    38  LEU38       0.0284
     13  CG        65.6660  131.6420   -0.8320 C.3    38  LEU38       0.0019
     14  CD1       66.8360  130.6910   -1.0650 C.3    38  LEU38       0.0001
     15  CD2       64.8130  131.8040   -2.0810 C.3    38  LEU38       0.0001
     16  N         63.3040  131.2400    3.1280 N.am   39  GLU39      -0.1979
     17  CA        62.4440  130.6050    4.1250 C.3    39  GLU39       0.1602
     18  C         61.3000  131.5140    4.5900 C.2    39  GLU39       0.2287
     19  O         60.1950  131.0390    4.7820 O.2    39  GLU39      -0.2864
     20  CB        63.2690  130.1240    5.3240 C.3    39  GLU39       0.0415
     21  CG        64.2250  128.9810    4.9610 C.3    39  GLU39       0.1163
     22  CD        65.2430  128.6600    6.0430 C.2    39  GLU39       0.3649
     23  OE1       65.5950  129.5580    6.8330 O.co2  39  GLU39      -0.2457
     24  OE2       65.6990  127.5020    6.1060 O.co2  39  GLU39      -0.2457
     25  N         58.9270  131.4800    1.6780 N.3    42  ASN42      -0.1240
     26  CA        58.2080  130.2080    1.8040 C.3    42  ASN42       0.1653
     27  C         56.9970  130.2690    2.7640 C.2    42  ASN42       0.2266
     28  O         55.9490  129.6850    2.4600 O.2    42  ASN42      -0.2867
     29  CB        59.1630  129.0720    2.2410 C.3    42  ASN42       0.1155
     30  CG        59.4370  128.0680    1.1430 C.2    42  ASN42       0.2627
     31  OD1       59.0490  128.2500   -0.0100 O.2    42  ASN42      -0.2716
     32  ND2       60.1080  126.9860    1.5060 N.am   42  ASN42      -0.0877
     33  N         51.8240  127.3880   -1.9050 N.3    47  ILE47      -0.1245
     34  CA        52.5290  126.5290   -2.8590 C.3    47  ILE47       0.1561
     35  C         51.7790  126.3410   -4.1820 C.2    47  ILE47       0.2260
     36  O         52.3370  125.7590   -5.1120 O.2    47  ILE47      -0.2867
     37  CB        52.9570  125.1820   -2.2410 C.3    47  ILE47       0.0252
     38  CG1       51.7860  124.4450   -1.5740 C.3    47  ILE47       0.0019
     39  CG2       54.0670  125.4240   -1.2330 C.3    47  ILE47       0.0019
     40  CD1       52.0380  122.9650   -1.3600 C.3    47  ILE47       0.0001
     41  N         49.6200  120.2500   -3.0690 N.3    52  GLU52      -0.1245
     42  CA        49.7620  119.0710   -2.2100 C.3    52  GLU52       0.1567
     43  C         48.4250  118.5470   -1.6780 C.2    52  GLU52       0.2260
     44  O         47.6870  117.9110   -2.4230 O.2    52  GLU52      -0.2867
     45  CB        50.7810  119.3110   -1.0810 C.3    52  GLU52       0.0388
     46  CG        52.2130  119.0550   -1.4920 C.3    52  GLU52       0.1160
     47  CD        53.2030  119.3490   -0.3910 C.2    52  GLU52       0.3649
     48  OE1       54.2250  120.0030   -0.6870 O.co2  52  GLU52      -0.2457
     49  OE2       52.9570  118.9370    0.7660 O.co2  52  GLU52      -0.2457
     50  N         51.4430  126.6150    2.7780 N.3    58  THR58      -0.1203
     51  CA        52.6420  127.4350    2.6720 C.3    58  THR58       0.1994
     52  C         53.7930  126.5500    2.2430 C.2    58  THR58       0.2618
     53  O         53.6860  125.3140    2.2240 O.2    58  THR58      -0.2717
     54  CB        53.0320  128.0830    4.0290 C.3    58  THR58       0.1784
     55  OG1       53.3190  127.0710    4.9980 O.3    58  THR58      -0.2211
     56  CG2       51.9230  128.9670    4.5550 C.3    58  THR58       0.0376
     57  N         54.9070  127.1860    1.9080 N.am   59  GLY59      -0.1942
     58  CA        56.1760  126.4850    1.8350 C.3    59  GLY59       0.2014
     59  C         56.5770  125.9710    3.2120 C.2    59  GLY59       0.2639
     60  O         56.1660  126.5230    4.2450 O.2    59  GLY59      -0.2714
     61  N         57.3640  124.9030    3.2260 N.am   60  ALA60      -0.1963
     62  CA        57.9260  124.3570    4.4640 C.3    60  ALA60       0.1728
     63  C         59.2610  125.0520    4.7800 C.2    60  ALA60       0.2616
     64  O         59.8310  125.7250    3.9180 O.2    60  ALA60      -0.2715
     65  CB        58.1220  122.8520    4.3360 C.3    60  ALA60       0.0334
     66  N         59.7280  124.8870    6.0220 N.am   61  ILE61      -0.1964
     67  CA        61.0780  125.2780    6.4310 C.3    61  ILE61       0.1712
     68  C         61.7380  124.0340    7.0450 C.2    61  ILE61       0.2458
     69  O         61.9190  123.9570    8.2640 O.2    61  ILE61      -0.2730
     70  CB        61.0610  126.4560    7.4310 C.3    61  ILE61       0.0289
     71  CG1       60.1620  127.5790    6.8960 C.3    61  ILE61       0.0022
     72  CG2       62.4860  126.9830    7.6790 C.3    61  ILE61       0.0023
     73  CD1       60.1510  128.8330    7.7420 C.3    61  ILE61       0.0001
     74  N         62.0960  123.0490    6.2010 N.am   62  PRO62      -0.2716
     75  CA        62.5850  121.7640    6.7120 C.3    62  PRO62       0.1536
     76  C         63.9490  121.8030    7.4220 C.2    62  PRO62       0.2598
     77  O         64.2780  120.8470    8.1290 O.2    62  PRO62      -0.2715
     78  CB        62.6660  120.8970    5.4500 C.3    62  PRO62       0.0310
     79  CG        62.8990  121.8620    4.3390 C.3    62  PRO62       0.0237
     80  CD        62.1380  123.0990    4.7260 C.3    62  PRO62       0.0939
     81  N         64.7300  122.8730    7.2300 N.am   63  ARG63      -0.1978
     82  CA        65.9700  123.0790    7.9890 C.3    63  ARG63       0.1597
     83  C         65.6840  123.1930    9.4920 C.2    63  ARG63       0.2287
     84  O         66.4770  122.7080   10.3020 O.2    63  ARG63      -0.2864
     85  CB        66.7280  124.3200    7.4970 C.3    63  ARG63       0.0334
     86  CG        68.0990  124.5190    8.1430 C.3    63  ARG63       0.0492
     87  CD        68.8390  125.7290    7.5760 C.3    63  ARG63       0.2205
     88  NE        68.1620  127.0010    7.8590 N.pl3  63  ARG63      -0.0865
     89  CZ        68.3000  127.7430    8.9660 C.cat  63  ARG63       0.5346
     90  NH1       69.1120  127.3770    9.9620 N.pl3  63  ARG63       0.1354
     91  NH2       67.6160  128.8800    9.0830 N.pl3  63  ARG63       0.1354
     92  N         54.8480  122.2280    6.2980 N.3    68  SER68      -0.1217
     93  CA        53.9700  123.1780    5.6150 C.3    68  SER68       0.1889
     94  C         52.6460  123.4050    6.3720 C.2    68  SER68       0.2288
     95  O         52.0230  122.4530    6.8470 O.2    68  SER68      -0.2866
     96  CB        53.6870  122.6750    4.2080 C.3    68  SER68       0.2089
     97  OG        52.6190  123.3810    3.6240 O.3    68  SER68      -0.2183
     98  N         69.3680  119.1740   -6.0650 N.3   682  GLU682     -0.1231
     99  CA        68.8600  118.7780   -4.7550 C.3   682  GLU682      0.1699
    100  C         67.4820  118.1170   -4.8700 C.2   682  GLU682      0.2592
    101  O         67.2590  117.0380   -4.3180 O.2   682  GLU682     -0.2718
    102  CB        68.7940  120.0190   -3.8750 C.3   682  GLU682      0.0402
    103  CG        68.8050  119.7590   -2.3860 C.3   682  GLU682      0.1161
    104  CD        68.9750  121.0530   -1.6070 C.2   682  GLU682      0.3649
    105  OE1       70.0610  121.6720   -1.7160 O.co2 682  GLU682     -0.2457
    106  OE2       68.0210  121.4600   -0.9040 O.co2 682  GLU682     -0.2457
    107  N         66.5580  118.7790   -5.5690 N.am  683  PHE683     -0.1976
    108  CA        65.2330  118.2120   -5.8760 C.3   683  PHE683      0.1639
    109  C         64.6790  118.7560   -7.2010 C.2   683  PHE683      0.2290
    110  O         65.0580  119.8460   -7.6270 O.2   683  PHE683     -0.2864
    111  CB        64.2390  118.4540   -4.7240 C.3   683  PHE683      0.0560
    112  CG        64.1280  119.8920   -4.2830 C.ar  683  PHE683     -0.0200
    113  CD1       63.3610  120.8080   -5.0060 C.ar  683  PHE683     -0.0042
    114  CD2       64.7540  120.3260   -3.1160 C.ar  683  PHE683     -0.0042
    115  CE1       63.2460  122.1280   -4.5920 C.ar  683  PHE683     -0.0003
    116  CE2       64.6380  121.6450   -2.6960 C.ar  683  PHE683     -0.0003
    117  CZ        63.8850  122.5470   -3.4340 C.ar  683  PHE683     -0.0000
    118  N         54.1520  124.2330   -9.3350 N.3   689  PHE689     -0.1227
    119  CA        54.4220  124.4450   -7.9100 C.3   689  PHE689      0.1736
    120  C         55.0440  125.8370   -7.7490 C.2   689  PHE689      0.2595
    121  O         55.7440  126.3100   -8.6480 O.2   689  PHE689     -0.2718
    122  CB        55.3460  123.3420   -7.3830 C.3   689  PHE689      0.0547
    123  CG        55.3180  123.1670   -5.8890 C.ar  689  PHE689     -0.0202
    124  CD1       56.0930  123.9780   -5.0620 C.ar  689  PHE689     -0.0042
    125  CD2       54.5530  122.1610   -5.3070 C.ar  689  PHE689     -0.0042
    126  CE1       56.0790  123.8020   -3.6880 C.ar  689  PHE689     -0.0003
    127  CE2       54.5400  121.9790   -3.9340 C.ar  689  PHE689     -0.0003
    128  CZ        55.3030  122.8010   -3.1200 C.ar  689  PHE689     -0.0000
    129  N         54.7610  126.4940   -6.6260 N.am  690  ILE690     -0.1966
    130  CA        55.2000  127.8680   -6.3810 C.3   690  ILE690      0.1727
    131  C         56.3420  127.8550   -5.3830 C.2   690  ILE690      0.2616
    132  O         56.1750  127.4100   -4.2300 O.2   690  ILE690     -0.2715
    133  CB        54.0580  128.7620   -5.8430 C.3   690  ILE690      0.0290
    134  CG1       52.8990  128.8330   -6.8480 C.3   690  ILE690      0.0022
    135  CG2       54.5710  130.1660   -5.5120 C.3   690  ILE690      0.0023
    136  CD1       53.2990  129.2870   -8.2440 C.3   690  ILE690      0.0001
    137  N         57.4770  128.3850   -5.8350 N.am  691  TYR691     -0.1960
    138  CA        58.7330  128.3550   -5.1130 C.3   691  TYR691      0.1756
    139  C         59.2320  129.7760   -4.8550 C.2   691  TYR691      0.2461
    140  O         58.8640  130.7020   -5.5850 O.2   691  TYR691     -0.2730
    141  CB        59.7870  127.6670   -5.9610 C.3   691  TYR691      0.0574
    142  CG        59.6000  126.1960   -6.1640 C.ar  691  TYR691     -0.0198
    143  CD1       59.8380  125.2960   -5.1280 C.ar  691  TYR691     -0.0009
    144  CD2       59.2410  125.6920   -7.4070 C.ar  691  TYR691     -0.0009
    145  CE1       59.6870  123.9300   -5.3160 C.ar  691  TYR691      0.0417
    146  CE2       59.0870  124.3320   -7.6110 C.ar  691  TYR691      0.0417
    147  CZ        59.3160  123.4540   -6.5660 C.ar  691  TYR691      0.1957
    148  OH        59.1660  122.1090   -6.7910 O.3   691  TYR691     -0.2866
    149  N         60.1170  129.9400   -3.8510 N.am  692  PRO692     -0.2716
    150  CA        60.7610  131.2340   -3.5910 C.3   692  PRO692      0.1536
    151  C         61.9850  131.5400   -4.4640 C.2   692  PRO692      0.2598
    152  O         62.3980  132.7010   -4.5490 O.2   692  PRO692     -0.2715
    153  CB        61.1720  131.1180   -2.1180 C.3   692  PRO692      0.0310
    154  CG        61.4330  129.6630   -1.9210 C.3   692  PRO692      0.0237
    155  CD        60.5520  128.9110   -2.8830 C.3   692  PRO692      0.0939
    156  N         62.5430  130.5170   -5.1070 N.am  693  TYR693     -0.1974
    157  CA        63.8450  130.6150   -5.7760 C.3   693  TYR693      0.1639
    158  C         63.7770  131.3970   -7.0900 C.2   693  TYR693      0.2290
    159  O         62.7330  131.4610   -7.7310 O.2   693  TYR693     -0.2864
    160  CB        64.4100  129.2100   -6.0700 C.3   693  TYR693      0.0560
    161  CG        64.4160  128.2760   -4.8800 C.ar  693  TYR693     -0.0198
    162  CD1       65.3510  128.4190   -3.8540 C.ar  693  TYR693     -0.0009
    163  CD2       63.4700  127.2610   -4.7630 C.ar  693  TYR693     -0.0009
    164  CE1       65.3470  127.5690   -2.7530 C.ar  693  TYR693      0.0417
    165  CE2       63.4620  126.4060   -3.6730 C.ar  693  TYR693      0.0417
    166  CZ        64.3970  126.5620   -2.6760 C.ar  693  TYR693      0.1957
    167  OH        64.3730  125.7110   -1.6040 O.3   693  TYR693     -0.2866
@<TRIPOS>BOND
     1   118   119    1
     2   121   120    2
     3   136   134    1
     4   119   120    1
     5   119   122    1
     6   120   129   am
     7   159   158    2
     8   110   109    2
     9   146   144   ar
    10   146   147   ar
    11   144   142   ar
    12   122   123    1
    13   109   108    1
    14   158   157    1
    15   134   133    1
    16   148   147    1
    17   129   130    1
    18   147   145   ar
    19   130   133    1
    20   130   131    1
    21   142   141    1
    22   142   143   ar
    23   160   157    1
    24   160   161    1
    25    98    99    1
    26   141   138    1
    27   123   125   ar
    28   123   124   ar
    29   108   107    1
    30   108   111    1
    31   133   135    1
    32   137   131   am
    33   137   138    1
    34   157   156    1
    35   140   139    2
    36   107   100   am
    37   131   132    2
    38   145   143   ar
    39   125   127   ar
    40   138   139    1
    41    36    35    2
    42   156   151   am
    43   124   126   ar
    44   113   115   ar
    45   113   112   ar
    46   161   163   ar
    47   161   162   ar
    48   100    99    1
    49   100   101    2
    50   139   149   am
    51   163   165   ar
    52    99   102    1
    53   111   112    1
    54   115   117   ar
    55   152   151    2
    56   151   150    1
    57   112   114   ar
    58    35    34    1
    59   127   128   ar
    60   102   103    1
    61   162   164   ar
    62   149   150    1
    63   149   155    1
    64   126   128   ar
    65   165   166   ar
    66   150   153    1
    67   117   116   ar
    68   114   116   ar
    69    41    42    1
    70   155   154    1
    71    34    37    1
    72    34    33    1
    73   164   166   ar
    74   166   167    1
    75    44    43    2
    76   103   104    1
    77    37    38    1
    78    37    39    1
    79    42    43    1
    80    42    45    1
    81   153   154    1
    82    15    13    1
    83   105   104   ar
    84   104   106   ar
    85    38    40    1
    86    46    45    1
    87    46    47    1
    88    14    13    1
    89    13    12    1
    90    48    47   ar
    91    47    49   ar
    92    31    30    2
    93    12     9    1
    94     9     8    1
    95     9    10    1
    96    30    32   am
    97    30    29    1
    98    11    10    2
    99    25    26    1
   100    26    29    1
   101    26    27    1
   102    58    57    1
   103    58    59    1
   104    10    16   am
   105    57    52   am
   106    53    52    2
   107    52    51    1
   108    28    27    2
   109    51    50    1
   110    51    54    1
   111    16    17    1
   112    59    61   am
   113    59    60    2
   114    61    62    1
   115    97    96    1
   116    64    63    2
   117    54    56    1
   118    54    55    1
   119     6     5    1
   120    17    18    1
   121    17    20    1
   122    96    93    1
   123    65    62    1
   124    79    80    1
   125    79    78    1
   126    62    63    1
   127     5     7    1
   128     5     2    1
   129    18    19    2
   130    80    74    1
   131    63    66   am
   132     3     4    2
   133     3     2    1
   134    21    20    1
   135    21    22    1
   136    78    75    1
   137     2     1    1
   138    93    92    1
   139    93    94    1
   140    66    67    1
   141    22    24   ar
   142    22    23   ar
   143    74    75    1
   144    74    68   am
   145    94    95    2
   146    67    68    1
   147    67    70    1
   148    75    76    1
   149    71    70    1
   150    71    73    1
   151    68    69    2
   152    81    76   am
   153    81    82    1
   154    76    77    2
   155    70    72    1
   156    85    82    1
   157    85    86    1
   158    87    88    1
   159    87    86    1
   160    88    89    2
   161    82    83    1
   162    89    91    1
   163    89    90    1
   164    83    84    2
