@<TRIPOS>MOLECULE
tmp/5nbsA03.pdb
 90 88 0 0 0
SMALL
GASTEIGER

@<TRIPOS>ATOM
      1  N         36.7270  156.5170   -3.8100 N.3     4  TYR4       -0.1227
      2  CA        38.1900  156.5610   -3.6690 C.3     4  TYR4        0.1736
      3  C         38.6320  156.0010   -2.3120 C.2     4  TYR4        0.2596
      4  O         37.9850  156.2450   -1.3040 O.2     4  TYR4       -0.2718
      5  CB        38.6750  158.0150   -3.8050 C.3     4  TYR4        0.0548
      6  CG        40.1710  158.2060   -3.5920 C.ar    4  TYR4       -0.0200
      7  CD1       41.0890  157.7640   -4.5430 C.ar    4  TYR4       -0.0009
      8  CD2       40.6720  158.8200   -2.4310 C.ar    4  TYR4       -0.0009
      9  CE1       42.4630  157.9310   -4.3580 C.ar    4  TYR4        0.0417
     10  CE2       42.0470  158.9960   -2.2400 C.ar    4  TYR4        0.0417
     11  CZ        42.9380  158.5450   -3.2050 C.ar    4  TYR4        0.1957
     12  OH        44.3000  158.7010   -3.0450 O.3     4  TYR4       -0.2866
     13  N         39.7350  155.2560   -2.3000 N.am    5  SER5       -0.1938
     14  CA        40.3040  154.7110   -1.0730 C.3     5  SER5        0.2055
     15  C         41.6520  155.3800   -0.8100 C.2     5  SER5        0.2643
     16  O         42.5980  155.2000   -1.5760 O.2     5  SER5       -0.2714
     17  CB        40.4430  153.1830   -1.1650 C.3     5  SER5        0.2130
     18  OG        40.5320  152.5820    0.1170 O.3     5  SER5       -0.2179
     19  N         41.6950  156.1690    0.2660 N.am    6  GLU6       -0.1963
     20  CA        42.8880  156.8710    0.7780 C.3     6  GLU6        0.1718
     21  C         44.1080  155.9790    1.0000 C.2     6  GLU6        0.2458
     22  O         43.9470  154.8470    1.4530 O.2     6  GLU6       -0.2730
     23  CB        42.5840  157.4260    2.1680 C.3     6  GLU6        0.0428
     24  CG        41.6980  158.6490    2.2260 C.3     6  GLU6        0.1163
     25  CD        41.2550  158.9730    3.6460 C.2     6  GLU6        0.3649
     26  OE1       41.5280  158.1870    4.5980 O.co2   6  GLU6       -0.2457
     27  OE2       40.6190  160.0390    3.8070 O.co2   6  GLU6       -0.2457
     28  N         45.3280  156.5130    0.7560 N.am    7  PRO7       -0.2727
     29  CA        46.5370  155.7770    1.1280 C.3     7  PRO7        0.1402
     30  C         46.8100  155.8700    2.6290 C.2     7  PRO7        0.2269
     31  O         46.7110  156.9490    3.2110 O.2     7  PRO7       -0.2865
     32  CB        47.6310  156.4800    0.3280 C.3     7  PRO7        0.0296
     33  CG        47.1520  157.8830    0.2190 C.3     7  PRO7        0.0237
     34  CD        45.6530  157.8160    0.1460 C.3     7  PRO7        0.0939
     35  N         49.8680  154.3970    5.0080 N.3     9  TYR9       -0.1241
     36  CA        51.1830  153.7390    5.0730 C.3     9  TYR9        0.1605
     37  C         51.9850  154.3740    6.2080 C.2     9  TYR9        0.2264
     38  O         51.6570  155.5000    6.6150 O.2     9  TYR9       -0.2867
     39  CB        51.9120  153.9010    3.7370 C.3     9  TYR9        0.0534
     40  CG        51.1950  153.2140    2.6070 C.ar    9  TYR9       -0.0201
     41  CD1       51.4330  151.8630    2.3190 C.ar    9  TYR9       -0.0009
     42  CD2       50.2410  153.8910    1.8520 C.ar    9  TYR9       -0.0009
     43  CE1       50.7500  151.2250    1.3000 C.ar    9  TYR9        0.0417
     44  CE2       49.5580  153.2550    0.8300 C.ar    9  TYR9        0.0417
     45  CZ        49.8210  151.9270    0.5580 C.ar    9  TYR9        0.1957
     46  OH        49.1620  151.2820   -0.4340 O.3     9  TYR9       -0.2866
     47  N         35.8030  150.9080   -2.1830 N.3   233  ASN233     -0.1225
     48  CA        36.0670  152.1750   -2.8770 C.3   233  ASN233      0.1785
     49  C         37.0850  152.0320   -4.0160 C.2   233  ASN233      0.2597
     50  O         38.0170  152.8450   -4.1280 O.2   233  ASN233     -0.2718
     51  CB        36.5810  153.2410   -1.9050 C.3   233  ASN233      0.1169
     52  CG        35.5820  153.6260   -0.8580 C.2   233  ASN233      0.2627
     53  OD1       34.4510  153.1630   -0.8300 O.2   233  ASN233     -0.2716
     54  ND2       36.0180  154.5080    0.0210 N.am  233  ASN233     -0.0877
     55  N         36.9390  150.9830   -4.8160 N.am  234  ASN234     -0.1960
     56  CA        37.7730  150.7820   -6.0210 C.3   234  ASN234      0.1819
     57  C         39.2750  150.5670   -5.7580 C.2   234  ASN234      0.2622
     58  O         40.1060  150.9050   -6.5900 O.2   234  ASN234     -0.2715
     59  CB        37.5100  151.9110   -7.0160 C.3   234  ASN234      0.1195
     60  CG        36.0340  151.9880   -7.3730 C.2   234  ASN234      0.2630
     61  OD1       35.5230  151.0990   -8.0750 O.2   234  ASN234     -0.2716
     62  ND2       35.3320  153.0010   -6.8530 N.am  234  ASN234     -0.0877
     63  N         39.5850  150.0090   -4.5810 N.am  235  SER235     -0.1950
     64  CA        40.8620  149.3750   -4.2990 C.3   235  SER235      0.1924
     65  C         40.5490  147.9780   -3.7220 C.2   235  SER235      0.2314
     66  O         39.8120  147.8600   -2.7560 O.2   235  SER235     -0.2863
     67  CB        41.6870  150.2330   -3.3350 C.3   235  SER235      0.2116
     68  OG        42.8190  149.5370   -2.7990 O.3   235  SER235     -0.2180
     69  N         44.7530  144.5840   -1.3830 N.3   239  GLN239     -0.1245
     70  CA        45.7500  145.6590   -1.5290 C.3   239  GLN239      0.1566
     71  C         45.1740  147.0200   -1.0980 C.2   239  GLN239      0.2260
     72  O         45.5610  148.0780   -1.6040 O.2   239  GLN239     -0.2867
     73  CB        46.2760  145.6910   -2.9630 C.3   239  GLN239      0.0367
     74  CG        45.2050  145.9300   -4.0130 C.3   239  GLN239      0.0905
     75  CD        45.7170  145.7350   -5.4140 C.2   239  GLN239      0.2608
     76  OE1       45.5760  144.6580   -5.9710 O.2   239  GLN239     -0.2717
     77  NE2       46.3150  146.7750   -5.9910 N.am  239  GLN239     -0.0878
     78  N         44.9080  149.6590    1.5930 N.3   241  SER241     -0.1217
     79  CA        45.6630  150.1240    2.7490 C.3   241  SER241      0.1889
     80  C         44.7330  150.7520    3.7770 C.2   241  SER241      0.2288
     81  O         44.9670  150.6090    4.9690 O.2   241  SER241     -0.2866
     82  CB        46.7910  151.0810    2.3310 C.3   241  SER241      0.2089
     83  OG        46.3040  152.3630    1.9910 O.3   241  SER241     -0.2183
     84  N         52.5120  154.4580   -3.0010 N.3   717  PRO717     -0.2116
     85  CA        52.2420  155.7900   -2.4590 C.3   717  PRO717      0.1372
     86  C         53.2720  156.2040   -1.4120 C.2   717  PRO717      0.2244
     87  O         54.0580  155.3660   -0.9760 O.2   717  PRO717     -0.2868
     88  CB        50.8600  155.6290   -1.8050 C.3   717  PRO717      0.0268
     89  CG        50.2990  154.3840   -2.3930 C.3   717  PRO717      0.0207
     90  CD        51.4930  153.5000   -2.5470 C.3   717  PRO717      0.0892
@<TRIPOS>BOND
     1    61    60    2
     2    60    59    1
     3    60    62   am
     4    59    56    1
     5    58    57    2
     6    56    57    1
     7    56    55    1
     8    77    75   am
     9    76    75    2
    10    57    63   am
    11    75    74    1
    12    55    49   am
    13    63    64    1
    14     7     9   ar
    15     7     6   ar
    16     9    11   ar
    17    64    65    1
    18    64    67    1
    19    50    49    2
    20    49    48    1
    21    74    73    1
    22     1     2    1
    23     5     2    1
    24     5     6    1
    25    65    66    2
    26     2     3    1
    27     6     8   ar
    28    67    68    1
    29    11    12    1
    30    11    10   ar
    31    84    90    1
    32    84    85    1
    33    73    70    1
    34    48    47    1
    35    48    51    1
    36    90    89    1
    37    85    88    1
    38    85    86    1
    39     8    10   ar
    40    89    88    1
    41     3    13   am
    42     3     4    2
    43    13    14    1
    44    51    52    1
    45    72    71    2
    46    16    15    2
    47    70    69    1
    48    70    71    1
    49    86    87    2
    50    17    14    1
    51    17    18    1
    52    14    15    1
    53    52    53    2
    54    52    54   am
    55    15    19   am
    56    46    45    1
    57    34    33    1
    58    34    28    1
    59    33    32    1
    60    19    20    1
    61    32    29    1
    62    45    44   ar
    63    45    43   ar
    64    28    21   am
    65    28    29    1
    66    20    21    1
    67    20    23    1
    68    44    42   ar
    69    21    22    2
    70    29    30    1
    71    43    41   ar
    72    78    79    1
    73    42    40   ar
    74    83    82    1
    75    23    24    1
    76    24    25    1
    77    41    40   ar
    78    82    79    1
    79    40    39    1
    80    30    31    2
    81    79    80    1
    82    25    27   ar
    83    25    26   ar
    84    39    36    1
    85    80    81    2
    86    35    36    1
    87    36    37    1
    88    37    38    2
