@<TRIPOS>MOLECULE
tmp/5nbsA16.pdb
 109 103 0 0 0
SMALL
GASTEIGER

@<TRIPOS>ATOM
      1  N         34.1500  156.3720   -6.2920 N.3     3  ALA3       -0.1231
      2  CA        34.5810  156.1940   -4.9110 C.3     3  ALA3        0.1694
      3  C         36.0910  155.9220   -4.8230 C.2     3  ALA3        0.2592
      4  O         36.6440  155.1990   -5.6590 O.2     3  ALA3       -0.2718
      5  CB        33.7950  155.0670   -4.2610 C.3     3  ALA3        0.0304
      6  N         36.7270  156.5170   -3.8100 N.am    4  TYR4       -0.1962
      7  CA        38.1900  156.5610   -3.6690 C.3     4  TYR4        0.1771
      8  C         38.6320  156.0010   -2.3120 C.2     4  TYR4        0.2620
      9  O         37.9850  156.2450   -1.3040 O.2     4  TYR4       -0.2715
     10  CB        38.6750  158.0150   -3.8050 C.3     4  TYR4        0.0574
     11  CG        40.1710  158.2060   -3.5920 C.ar    4  TYR4       -0.0198
     12  CD1       41.0890  157.7640   -4.5430 C.ar    4  TYR4       -0.0009
     13  CD2       40.6720  158.8200   -2.4310 C.ar    4  TYR4       -0.0009
     14  CE1       42.4630  157.9310   -4.3580 C.ar    4  TYR4        0.0417
     15  CE2       42.0470  158.9960   -2.2400 C.ar    4  TYR4        0.0417
     16  CZ        42.9380  158.5450   -3.2050 C.ar    4  TYR4        0.1957
     17  OH        44.3000  158.7010   -3.0450 O.3     4  TYR4       -0.2866
     18  N         39.7350  155.2560   -2.3000 N.am    5  SER5       -0.1936
     19  CA        40.3040  154.7110   -1.0730 C.3     5  SER5        0.2055
     20  C         41.6520  155.3800   -0.8100 C.2     5  SER5        0.2642
     21  O         42.5980  155.2000   -1.5760 O.2     5  SER5       -0.2714
     22  CB        40.4430  153.1830   -1.1650 C.3     5  SER5        0.2130
     23  OG        40.5320  152.5820    0.1170 O.3     5  SER5       -0.2179
     24  N         41.6950  156.1690    0.2660 N.am    6  GLU6       -0.1976
     25  CA        42.8880  156.8710    0.7780 C.3     6  GLU6        0.1602
     26  C         44.1080  155.9790    1.0000 C.2     6  GLU6        0.2287
     27  O         43.9470  154.8470    1.4530 O.2     6  GLU6       -0.2864
     28  CB        42.5840  157.4260    2.1680 C.3     6  GLU6        0.0415
     29  CG        41.6980  158.6490    2.2260 C.3     6  GLU6        0.1163
     30  CD        41.2550  158.9730    3.6460 C.2     6  GLU6        0.3649
     31  OE1       41.5280  158.1870    4.5980 O.co2   6  GLU6       -0.2457
     32  OE2       40.6190  160.0390    3.8070 O.co2   6  GLU6       -0.2457
     33  N         31.4530  152.1810    1.1040 N.3   201  ILE201     -0.1231
     34  CA        30.8600  152.2490    2.4320 C.3   201  ILE201      0.1692
     35  C         31.3430  153.5240    3.1120 C.2   201  ILE201      0.2592
     36  O         32.5500  153.7470    3.2170 O.2   201  ILE201     -0.2718
     37  CB        31.2500  151.0100    3.2580 C.3   201  ILE201      0.0266
     38  CG1       31.0180  149.7280    2.4470 C.3   201  ILE201      0.0019
     39  CG2       30.4540  150.9540    4.5530 C.3   201  ILE201      0.0020
     40  CD1       31.2040  148.4370    3.2160 C.3   201  ILE201      0.0001
     41  N         30.4070  154.3530    3.5760 N.am  202  ASP202     -0.1960
     42  CA        30.7780  155.5420    4.3610 C.3   202  ASP202      0.1840
     43  C         31.4580  155.1310    5.7080 C.2   202  ASP202      0.2622
     44  O         31.3130  154.0120    6.1840 O.2   202  ASP202     -0.2715
     45  CB        29.5840  156.5210    4.5400 C.3   202  ASP202      0.1450
     46  CG        28.6080  156.0940    5.6150 C.2   202  ASP202      0.3671
     47  OD1       28.9750  156.1390    6.7920 O.co2 202  ASP202     -0.2456
     48  OD2       27.4480  155.7270    5.3210 O.co2 202  ASP202     -0.2456
     49  N         32.2120  156.0560    6.2720 N.am  203  ASP203     -0.1971
     50  CA        33.0830  155.7800    7.4050 C.3   203  ASP203      0.1709
     51  C         32.3020  155.4080    8.6820 C.2   203  ASP203      0.2293
     52  O         32.6960  154.5080    9.4220 O.2   203  ASP203     -0.2864
     53  CB        33.9870  157.0030    7.6230 C.3   203  ASP203      0.1436
     54  CG        35.0470  156.7830    8.6790 C.2   203  ASP203      0.3671
     55  OD1       35.5730  155.6660    8.7900 O.co2 203  ASP203     -0.2456
     56  OD2       35.3730  157.7560    9.3940 O.co2 203  ASP203     -0.2456
     57  N         30.7730  151.9870    8.2620 N.3   206  MET206     -0.1245
     58  CA        31.8580  151.0060    8.4050 C.3   206  MET206      0.1570
     59  C         32.1130  150.7040    9.8930 C.2   206  MET206      0.2261
     60  O         32.0920  149.5310   10.3250 O.2   206  MET206     -0.2867
     61  CB        33.1300  151.5000    7.6990 C.3   206  MET206      0.0387
     62  CG        34.3760  150.6400    7.8510 C.3   206  MET206      0.0595
     63  SD        34.2050  148.9630    7.2390 S.3   206  MET206     -0.1393
     64  CE        34.5300  149.2090    5.4950 C.3   206  MET206      0.0692
     65  N         36.9420  147.7950   -2.1730 N.3   232  ALA232     -0.1231
     66  CA        36.3410  148.7400   -1.2600 C.3   232  ALA232      0.1694
     67  C         36.7680  150.1070   -1.7440 C.2   232  ALA232      0.2592
     68  O         37.9530  150.4120   -1.7480 O.2   232  ALA232     -0.2718
     69  CB        36.8060  148.4760    0.1680 C.3   232  ALA232      0.0304
     70  N         35.8030  150.9080   -2.1830 N.am  233  ASN233     -0.1974
     71  CA        36.0670  152.1750   -2.8770 C.3   233  ASN233      0.1688
     72  C         37.0850  152.0320   -4.0160 C.2   233  ASN233      0.2292
     73  O         38.0170  152.8450   -4.1280 O.2   233  ASN233     -0.2864
     74  CB        36.5810  153.2410   -1.9050 C.3   233  ASN233      0.1181
     75  CG        35.5820  153.6260   -0.8580 C.2   233  ASN233      0.2629
     76  OD1       34.4510  153.1630   -0.8300 O.2   233  ASN233     -0.2716
     77  ND2       36.0180  154.5080    0.0210 N.am  233  ASN233     -0.0877
     78  N         43.6630  151.4150    3.3350 N.3   242  LYS242     -0.1231
     79  CA        42.6560  151.9000    4.2920 C.3   242  LYS242      0.1693
     80  C         42.1270  150.7540    5.1420 C.2   242  LYS242      0.2591
     81  O         42.0140  150.8860    6.3530 O.2   242  LYS242     -0.2718
     82  CB        41.4940  152.6100    3.5910 C.3   242  LYS242      0.0285
     83  CG        40.3870  153.1050    4.5210 C.3   242  LYS242      0.0035
     84  CD        40.8720  154.1100    5.5710 C.3   242  LYS242      0.0206
     85  CE        39.7440  154.4690    6.5330 C.3   242  LYS242      0.1093
     86  NZ        40.0620  155.5320    7.5330 N.3   242  LYS242     -0.1314
     87  N         41.8200  149.6290    4.5050 N.am  243  LEU243     -0.1980
     88  CA        41.3020  148.4500    5.2170 C.3   243  LEU243      0.1596
     89  C         42.3400  147.7760    6.0940 C.2   243  LEU243      0.2287
     90  O         42.1350  147.6160    7.2900 O.2   243  LEU243     -0.2864
     91  CB        40.7720  147.4040    4.2300 C.3   243  LEU243      0.0297
     92  CG        39.4550  147.7130    3.5380 C.3   243  LEU243      0.0022
     93  CD1       39.0530  146.5240    2.6750 C.3   243  LEU243      0.0001
     94  CD2       38.3580  148.0120    4.5550 C.3   243  LEU243      0.0001
     95  N         42.3550  150.6150    9.3370 N.3   247  LEU247     -0.1245
     96  CA        41.2470  150.1290   10.1730 C.3   247  LEU247      0.1561
     97  C         41.6130  148.8800   10.9440 C.2   247  LEU247      0.2260
     98  O         41.3360  148.8010   12.1430 O.2   247  LEU247     -0.2867
     99  CB        39.9940  149.8490    9.3420 C.3   247  LEU247      0.0270
    100  CG        39.3790  151.0550    8.6220 C.3   247  LEU247      0.0019
    101  CD1       38.3360  150.5790    7.6100 C.3   247  LEU247      0.0001
    102  CD2       38.7880  152.0600    9.6050 C.3   247  LEU247      0.0001
    103  N         32.9960  160.9170   12.4450 N.3   812  THR812     -0.1218
    104  CA        33.9640  160.9120   11.3370 C.3   812  THR812      0.1862
    105  C         34.8570  162.1590   11.2800 C.2   812  THR812      0.2287
    106  O         35.9640  162.0880   10.7460 O.2   812  THR812     -0.2866
    107  CB        33.2710  160.6780    9.9600 C.3   812  THR812      0.1770
    108  OG1       34.2590  160.4250    8.9510 O.3   812  THR812     -0.2211
    109  CG2       32.4230  161.8710    9.5450 C.3   812  THR812      0.0375
@<TRIPOS>BOND
     1     1     2    1
     2     4     3    2
     3     2     3    1
     4     2     5    1
     5     3     6   am
     6    12    14   ar
     7    12    11   ar
     8    14    16   ar
     9    73    72    2
    10    72    71    1
    11     6     7    1
    12    10     7    1
    13    10    11    1
    14     7     8    1
    15    11    13   ar
    16    16    17    1
    17    16    15   ar
    18    71    70    1
    19    71    74    1
    20    13    15   ar
    21     8    18   am
    22     8     9    2
    23    18    19    1
    24    70    67   am
    25    65    66    1
    26    74    75    1
    27    68    67    2
    28    67    66    1
    29    21    20    2
    30    66    69    1
    31    22    19    1
    32    22    23    1
    33    19    20    1
    34    75    76    2
    35    75    77   am
    36    20    24   am
    37    24    25    1
    38    25    26    1
    39    25    28    1
    40    26    27    2
    41    33    34    1
    42    28    29    1
    43    29    30    1
    44    34    35    1
    45    34    37    1
    46    38    40    1
    47    38    37    1
    48    93    92    1
    49    35    36    2
    50    35    41   am
    51    37    39    1
    52    78    79    1
    53    92    91    1
    54    92    94    1
    55    41    42    1
    56    82    79    1
    57    82    83    1
    58    30    32   ar
    59    30    31   ar
    60    91    88    1
    61    79    80    1
    62    42    45    1
    63    42    43    1
    64    87    80   am
    65    87    88    1
    66    83    84    1
    67    45    46    1
    68    80    81    2
    69    88    89    1
    70    48    46   ar
    71    64    63    1
    72    84    85    1
    73    46    47   ar
    74    43    44    2
    75    43    49   am
    76    89    90    2
    77    49    50    1
    78    85    86    1
    79    63    62    1
    80    50    53    1
    81    50    51    1
    82   101   100    1
    83    53    54    1
    84    61    62    1
    85    61    58    1
    86    57    58    1
    87    58    59    1
    88   100    99    1
    89   100   102    1
    90    54    55   ar
    91    54    56   ar
    92    51    52    2
    93   108   107    1
    94    95    96    1
    95    99    96    1
    96   109   107    1
    97    59    60    2
    98   107   104    1
    99    96    97    1
   100   106   105    2
   101    97    98    2
   102   105   104    1
   103   104   103    1
