@<TRIPOS>MOLECULE
tmp/5nbsA23.pdb
 97 93 0 0 0
SMALL
GASTEIGER

@<TRIPOS>ATOM
      1  N         48.4710  141.6150   -7.0470 N.3   267  SER267     -0.1202
      2  CA        49.7180  142.3530   -7.2140 C.3   267  SER267      0.2020
      3  C         50.6590  142.0990   -6.0330 C.2   267  SER267      0.2619
      4  O         50.2160  141.9900   -4.8900 O.2   267  SER267     -0.2717
      5  CB        49.4510  143.8530   -7.3310 C.3   267  SER267      0.2103
      6  OG        50.6210  144.5070   -7.8050 O.3   267  SER267     -0.2182
      7  N         51.9540  142.0250   -6.3230 N.am  268  GLY268     -0.1942
      8  CA        52.9560  141.5840   -5.3650 C.3   268  GLY268      0.2014
      9  C         53.3590  142.6580   -4.3890 C.2   268  GLY268      0.2638
     10  O         52.9710  142.6210   -3.2250 O.2   268  GLY268     -0.2714
     11  N         54.1520  143.6080   -4.8640 N.am  269  VAL269     -0.1977
     12  CA        54.7280  144.6250   -4.0050 C.3   269  VAL269      0.1596
     13  C         53.6250  145.5070   -3.4150 C.2   269  VAL269      0.2287
     14  O         53.6290  145.7840   -2.2140 O.2   269  VAL269     -0.2864
     15  CB        55.8110  145.4590   -4.7420 C.3   269  VAL269      0.0276
     16  CG1       56.3330  146.5900   -3.8720 C.3   269  VAL269      0.0022
     17  CG2       56.9770  144.5730   -5.1550 C.3   269  VAL269      0.0022
     18  N         52.5520  136.3040   -7.6360 N.3   292  TYR292     -0.1241
     19  CA        52.8630  137.6980   -7.3490 C.3   292  TYR292      0.1605
     20  C         53.8960  137.7890   -6.2310 C.2   292  TYR292      0.2264
     21  O         54.6440  138.7510   -6.1830 O.2   292  TYR292     -0.2867
     22  CB        51.6130  138.5040   -6.9940 C.3   292  TYR292      0.0534
     23  CG        50.6200  138.6020   -8.1350 C.ar  292  TYR292     -0.0201
     24  CD1       50.9720  139.2180   -9.3510 C.ar  292  TYR292     -0.0009
     25  CD2       49.3370  138.0740   -8.0080 C.ar  292  TYR292     -0.0009
     26  CE1       50.0710  139.2970  -10.4050 C.ar  292  TYR292      0.0417
     27  CE2       48.4250  138.1460   -9.0560 C.ar  292  TYR292      0.0417
     28  CZ        48.7940  138.7560  -10.2490 C.ar  292  TYR292      0.1957
     29  OH        47.8860  138.8140  -11.2620 O.3   292  TYR292     -0.2866
     30  N         59.0010  136.4560   -6.9980 N.3   296  ASN296     -0.1240
     31  CA        58.8250  137.9060   -7.0910 C.3   296  ASN296      0.1653
     32  C         59.0230  138.6040   -5.7480 C.2   296  ASN296      0.2266
     33  O         59.5560  139.7040   -5.7150 O.2   296  ASN296     -0.2867
     34  CB        57.4320  138.2650   -7.6170 C.3   296  ASN296      0.1155
     35  CG        57.3570  138.3620   -9.1310 C.2   296  ASN296      0.2627
     36  OD1       58.1880  139.0050   -9.7690 O.2   296  ASN296     -0.2716
     37  ND2       56.3290  137.7300   -9.7070 N.am  296  ASN296     -0.0877
     38  N         62.4940  147.1600   -3.2470 N.3   305  THR305     -0.1218
     39  CA        61.0890  147.6100   -3.2840 C.3   305  THR305      0.1862
     40  C         60.2800  147.1780   -2.0320 C.2   305  THR305      0.2287
     41  O         59.4120  147.9220   -1.5590 O.2   305  THR305     -0.2866
     42  CB        60.3670  147.1840   -4.5780 C.3   305  THR305      0.1770
     43  OG1       60.4280  145.7650   -4.7330 O.3   305  THR305     -0.2211
     44  CG2       61.0020  147.8600   -5.8020 C.3   305  THR305      0.0375
     45  N         58.4490  139.4040  -15.4080 N.3   705  ASP705     -0.1239
     46  CA        57.4890  140.4890  -15.2460 C.3   705  ASP705      0.1674
     47  C         57.8600  141.5300  -16.2780 C.2   705  ASP705      0.2266
     48  O         58.8860  142.2080  -16.1410 O.2   705  ASP705     -0.2867
     49  CB        57.5760  141.0780  -13.8230 C.3   705  ASP705      0.1410
     50  CG        56.4790  142.1270  -13.5220 C.2   705  ASP705      0.3668
     51  OD1       56.0590  142.8770  -14.4320 O.co2 705  ASP705     -0.2456
     52  OD2       56.0360  142.2000  -12.3450 O.co2 705  ASP705     -0.2456
     53  N         56.8780  144.4340  -16.8100 N.3   707  GLN707     -0.1231
     54  CA        57.0220  145.7940  -16.2700 C.3   707  GLN707      0.1698
     55  C         58.1540  145.9620  -15.2390 C.2   707  GLN707      0.2592
     56  O         58.2810  147.0470  -14.6590 O.2   707  GLN707     -0.2718
     57  CB        55.6870  146.2490  -15.6680 C.3   707  GLN707      0.0381
     58  CG        54.4870  146.0540  -16.5910 C.3   707  GLN707      0.0905
     59  CD        53.1670  146.4350  -15.9510 C.2   707  GLN707      0.2608
     60  OE1       52.9160  146.1470  -14.7800 O.2   707  GLN707     -0.2717
     61  NE2       52.3020  147.0680  -16.7300 N.am  707  GLN707     -0.0878
     62  N         58.9800  144.9240  -15.0280 N.am  708  TYR708     -0.1962
     63  CA        60.0640  144.9340  -13.9980 C.3   708  TYR708      0.1771
     64  C         60.9970  146.1450  -14.1200 C.2   708  TYR708      0.2620
     65  O         61.3100  146.5740  -15.2150 O.2   708  TYR708     -0.2715
     66  CB        60.9100  143.6430  -14.0750 C.3   708  TYR708      0.0574
     67  CG        61.9570  143.4670  -12.9780 C.ar  708  TYR708     -0.0198
     68  CD1       63.2360  144.0360  -13.0900 C.ar  708  TYR708     -0.0009
     69  CD2       61.6810  142.6970  -11.8440 C.ar  708  TYR708     -0.0009
     70  CE1       64.1940  143.8640  -12.0860 C.ar  708  TYR708      0.0417
     71  CE2       62.6270  142.5130  -10.8370 C.ar  708  TYR708      0.0417
     72  CZ        63.8790  143.0990  -10.9510 C.ar  708  TYR708      0.1957
     73  OH        64.8100  142.9180   -9.9520 O.3   708  TYR708     -0.2866
     74  N         61.4220  146.6930  -12.9890 N.am  709  GLY709     -0.1940
     75  CA        62.4700  147.7160  -12.9730 C.3   709  GLY709      0.2014
     76  C         62.2280  148.9880  -12.1870 C.2   709  GLY709      0.2638
     77  O         63.1720  149.7450  -11.9980 O.2   709  GLY709     -0.2714
     78  N         61.0000  149.2500  -11.7400 N.am  710  GLN710     -0.1977
     79  CA        60.7070  150.4780  -10.9870 C.3   710  GLN710      0.1601
     80  C         60.9040  150.3150   -9.4860 C.2   710  GLN710      0.2287
     81  O         60.8220  149.2240   -8.9360 O.2   710  GLN710     -0.2864
     82  CB        59.2870  150.9760  -11.2280 C.3   710  GLN710      0.0394
     83  CG        58.9770  151.3730  -12.6650 C.3   710  GLN710      0.0908
     84  CD        57.4970  151.6470  -12.8650 C.2   710  GLN710      0.2608
     85  OE1       56.8890  152.4080  -12.1080 O.2   710  GLN710     -0.2717
     86  NE2       56.9020  151.0140  -13.8730 N.am  710  GLN710     -0.0878
     87  N         56.1180  153.8220   -8.0150 N.3   715  PHE715     -0.1241
     88  CA        54.8210  153.1140   -8.1440 C.3   715  PHE715      0.1605
     89  C         53.9810  152.8530   -6.8800 C.2   715  PHE715      0.2264
     90  O         52.8020  152.5440   -7.0040 O.2   715  PHE715     -0.2867
     91  CB        54.9430  151.8610   -9.0310 C.3   715  PHE715      0.0534
     92  CG        55.4710  150.6250   -8.3460 C.ar  715  PHE715     -0.0203
     93  CD1       54.6000  149.7070   -7.7490 C.ar  715  PHE715     -0.0042
     94  CD2       56.8280  150.3150   -8.3980 C.ar  715  PHE715     -0.0042
     95  CE1       55.0790  148.5380   -7.1710 C.ar  715  PHE715     -0.0003
     96  CE2       57.3170  149.1510   -7.8190 C.ar  715  PHE715     -0.0003
     97  CZ        56.4430  148.2600   -7.2000 C.ar  715  PHE715     -0.0000
@<TRIPOS>BOND
     1    53    54    1
     2    61    59   am
     3    58    59    1
     4    58    57    1
     5    47    48    2
     6    47    46    1
     7    54    57    1
     8    54    55    1
     9    59    60    2
    10    45    46    1
    11    46    49    1
    12    55    62   am
    13    55    56    2
    14    65    64    2
    15    62    63    1
    16    51    50   ar
    17    64    63    1
    18    64    74   am
    19    66    63    1
    20    66    67    1
    21    86    84   am
    22    49    50    1
    23    50    52   ar
    24    68    67   ar
    25    68    70   ar
    26    74    75    1
    27    67    69   ar
    28    75    76    1
    29    84    83    1
    30    84    85    2
    31    83    82    1
    32    76    77    2
    33    76    78   am
    34    70    72   ar
    35    69    71   ar
    36    78    79    1
    37    29    28    1
    38    82    79    1
    39    79    80    1
    40    72    71   ar
    41    72    73    1
    42    26    28   ar
    43    26    24   ar
    44    28    27   ar
    45    36    35    2
    46    37    35   am
    47    80    81    2
    48    24    23   ar
    49    35    34    1
    50    27    25   ar
    51    91    92    1
    52    91    88    1
    53    94    92   ar
    54    94    96   ar
    55    92    93   ar
    56    88    87    1
    57    88    89    1
    58    23    25   ar
    59    23    22    1
    60    96    97   ar
    61     6     5    1
    62    93    95   ar
    63    18    19    1
    64    34    31    1
    65    19    22    1
    66    19    20    1
    67     5     2    1
    68     2     1    1
    69     2     3    1
    70    97    95   ar
    71    31    30    1
    72    31    32    1
    73    90    89    2
    74     7     3   am
    75     7     8    1
    76    20    21    2
    77     3     4    2
    78    44    42    1
    79    32    33    2
    80     8     9    1
    81    17    15    1
    82    11     9   am
    83    11    12    1
    84    15    12    1
    85    15    16    1
    86    43    42    1
    87    42    39    1
    88     9    10    2
    89    12    13    1
    90    13    14    2
    91    39    38    1
    92    39    40    1
    93    40    41    2
