@<TRIPOS>MOLECULE
tmp/5nbsA11.pdb
 91 89 0 0 0
SMALL
GASTEIGER

@<TRIPOS>ATOM
      1  N          7.4850  117.3030   -3.8230 N.3   463  ASN463     -0.1225
      2  CA         6.6750  118.5350   -3.7060 C.3   463  ASN463      0.1785
      3  C          5.4730  118.5800   -4.6730 C.2   463  ASN463      0.2597
      4  O          4.4730  119.2520   -4.3820 O.2   463  ASN463     -0.2718
      5  CB         7.5360  119.7890   -3.8650 C.3   463  ASN463      0.1169
      6  CG         8.2980  120.1440   -2.5980 C.2   463  ASN463      0.2627
      7  OD1        8.5310  119.2950   -1.7310 O.2   463  ASN463     -0.2716
      8  ND2        8.6830  121.4150   -2.4810 N.am  463  ASN463     -0.0877
      9  N          5.5620  117.8660   -5.7970 N.am  464  HIS464     -0.1961
     10  CA         4.4880  117.8540   -6.7980 C.3   464  HIS464      0.1787
     11  C          3.8420  116.4730   -6.9260 C.2   464  HIS464      0.2620
     12  O          4.2340  115.6480   -7.7440 O.2   464  HIS464     -0.2715
     13  CB         4.9850  118.3560   -8.1540 C.3   464  HIS464      0.0785
     14  CG         3.8760  118.7860   -9.0550 C.ar  464  HIS464      0.0821
     15  ND1        3.5690  120.1130   -9.2740 N.ar  464  HIS464     -0.2267
     16  CD2        2.9490  118.0690   -9.7310 C.ar  464  HIS464      0.1154
     17  CE1        2.5190  120.1920  -10.0730 C.ar  464  HIS464      0.1986
     18  NE2        2.1240  118.9670  -10.3630 N.ar  464  HIS464     -0.2212
     19  N          2.8390  116.2430   -6.0910 N.am  465  ALA465     -0.1964
     20  CA         2.0560  115.0100   -6.1070 C.3   465  ALA465      0.1713
     21  C          0.7130  115.3160   -5.4680 C.2   465  ALA465      0.2458
     22  O          0.3690  114.7360   -4.4410 O.2   465  ALA465     -0.2730
     23  CB         2.7870  113.9030   -5.3530 C.3   465  ALA465      0.0333
     24  N         -0.0500  116.2520   -6.0690 N.am  466  PRO466     -0.2727
     25  CA        -1.2820  116.7010   -5.4200 C.3   466  PRO466      0.1402
     26  C         -2.3250  115.5990   -5.2230 C.2   466  PRO466      0.2269
     27  O         -2.9840  115.5900   -4.2010 O.2   466  PRO466     -0.2865
     28  CB        -1.8020  117.7960   -6.3560 C.3   466  PRO466      0.0296
     29  CG        -1.1780  117.5100   -7.6740 C.3   466  PRO466      0.0237
     30  CD         0.1740  116.9510   -7.3470 C.3   466  PRO466      0.0939
     31  N         -1.0160  113.4390   -2.2130 N.3   469  ILE469     -0.1231
     32  CA        -0.9400  114.2880   -1.0280 C.3   469  ILE469      0.1692
     33  C         -2.3380  114.6480   -0.5220 C.2   469  ILE469      0.2591
     34  O         -2.6100  114.5510    0.6740 O.2   469  ILE469     -0.2718
     35  CB        -0.0880  115.5600   -1.2900 C.3   469  ILE469      0.0266
     36  CG1        1.3830  115.1680   -1.4740 C.3   469  ILE469      0.0019
     37  CG2       -0.2260  116.5640   -0.1480 C.3   469  ILE469      0.0020
     38  CD1        2.2680  116.2840   -1.9950 C.3   469  ILE469      0.0001
     39  N         -3.2210  115.0430   -1.4310 N.am  470  LYS470     -0.1980
     40  CA        -4.6080  115.3640   -1.0510 C.3   470  LYS470      0.1596
     41  C         -5.3180  114.1510   -0.4430 C.2   470  LYS470      0.2287
     42  O         -6.0060  114.2860    0.5680 O.2   470  LYS470     -0.2864
     43  CB        -5.3780  115.9100   -2.2550 C.3   470  LYS470      0.0298
     44  CG        -6.8330  116.3200   -2.0180 C.3   470  LYS470      0.0038
     45  CD        -7.5210  116.4440   -3.3730 C.3   470  LYS470      0.0206
     46  CE        -8.6080  117.5070   -3.4170 C.3   470  LYS470      0.1093
     47  NZ        -9.8180  117.1120   -2.6680 N.3   470  LYS470     -0.1314
     48  N          8.5410  124.6080   -5.9460 N.3   510  GLU510     -0.1245
     49  CA         7.1080  124.8970   -5.7350 C.3   510  GLU510      0.1567
     50  C          6.6510  124.7860   -4.2660 C.2   510  GLU510      0.2260
     51  O          5.5090  124.4430   -3.9950 O.2   510  GLU510     -0.2867
     52  CB         6.2120  124.0020   -6.6030 C.3   510  GLU510      0.0388
     53  CG         6.5750  123.8480   -8.0710 C.3   510  GLU510      0.1160
     54  CD         5.5720  122.9310   -8.7670 C.2   510  GLU510      0.3649
     55  OE1        4.5040  123.4320   -9.1570 O.co2 510  GLU510     -0.2457
     56  OE2        5.8020  121.6980   -8.8880 O.co2 510  GLU510     -0.2457
     57  N          3.2830  126.8050   -3.2880 N.3   513  ALA513     -0.1231
     58  CA         2.0860  126.1240   -3.7950 C.3   513  ALA513      0.1694
     59  C          1.8150  124.8030   -3.0600 C.2   513  ALA513      0.2591
     60  O          0.6630  124.4550   -2.8400 O.2   513  ALA513     -0.2718
     61  CB         2.1820  125.8970   -5.3070 C.3   513  ALA513      0.0304
     62  N          2.8650  124.0940   -2.6480 N.am  514  LEU514     -0.1980
     63  CA         2.6990  122.9060   -1.7910 C.3   514  LEU514      0.1596
     64  C          2.0340  123.2450   -0.4540 C.2   514  LEU514      0.2287
     65  O          1.0730  122.5920   -0.0420 O.2   514  LEU514     -0.2864
     66  CB         4.0320  122.1990   -1.5540 C.3   514  LEU514      0.0297
     67  CG         4.0250  121.0200   -0.5770 C.3   514  LEU514      0.0022
     68  CD1        3.1680  119.8740   -1.1070 C.3   514  LEU514      0.0001
     69  CD2        5.4510  120.5720   -0.3230 C.3   514  LEU514      0.0001
     70  N         -1.6460  124.2480   -0.9470 N.3   517  ASN517     -0.1240
     71  CA        -2.4410  123.0500   -1.2330 C.3   517  ASN517      0.1653
     72  C         -2.6950  122.2130    0.0420 C.2   517  ASN517      0.2266
     73  O         -3.8490  121.9180    0.3780 O.2   517  ASN517     -0.2867
     74  CB        -1.7820  122.2330   -2.3480 C.3   517  ASN517      0.1155
     75  CG        -2.1110  122.7560   -3.7490 C.2   517  ASN517      0.2627
     76  OD1       -2.8040  123.7610   -3.9200 O.2   517  ASN517     -0.2716
     77  ND2       -1.6120  122.0640   -4.7590 N.am  517  ASN517     -0.0877
     78  N         -6.2850  121.5120    2.2230 N.3   521  TRP521     -0.1241
     79  CA        -6.7840  120.1460    2.4370 C.3   521  TRP521      0.1605
     80  C         -6.7650  119.6390    3.8940 C.2   521  TRP521      0.2264
     81  O         -7.4570  118.6760    4.2210 O.2   521  TRP521     -0.2867
     82  CB        -5.9860  119.1750    1.5690 C.3   521  TRP521      0.0550
     83  CG        -6.0400  119.4760    0.0790 C.ar  521  TRP521      0.0003
     84  CD1       -7.1100  119.9680   -0.6240 C.ar  521  TRP521      0.0946
     85  CD2       -4.9880  119.2830   -0.8750 C.ar  521  TRP521      0.0152
     86  NE1       -6.7810  120.1080   -1.9380 N.ar  521  TRP521     -0.2442
     87  CE2       -5.4900  119.6880   -2.1300 C.ar  521  TRP521      0.0810
     88  CE3       -3.6670  118.8190   -0.7880 C.ar  521  TRP521      0.0012
     89  CZ2       -4.7180  119.6300   -3.3090 C.ar  521  TRP521      0.0191
     90  CZ3       -2.8940  118.7540   -1.9570 C.ar  521  TRP521      0.0001
     91  CH2       -3.4300  119.1570   -3.2060 C.ar  521  TRP521      0.0015
@<TRIPOS>BOND
     1    18    17   ar
     2    18    16   ar
     3    17    15   ar
     4    16    14   ar
     5    15    14   ar
     6    55    54   ar
     7    14    13    1
     8    56    54   ar
     9    54    53    1
    10    13    10    1
    11    53    52    1
    12    12    11    2
    13    29    30    1
    14    29    28    1
    15    30    24    1
    16    11    10    1
    17    11    19   am
    18    10     9    1
    19    52    49    1
    20    28    25    1
    21    20    19    1
    22    20    21    1
    23    20    23    1
    24    24    21   am
    25    24    25    1
    26    48    49    1
    27     9     3   am
    28    49    50    1
    29    21    22    2
    30    25    26    1
    31    61    58    1
    32    26    27    2
    33    77    75   am
    34     3     4    2
    35     3     2    1
    36    50    51    2
    37    76    75    2
    38     5     2    1
    39     5     6    1
    40     1     2    1
    41    58    57    1
    42    58    59    1
    43    75    74    1
    44    46    45    1
    45    46    47    1
    46    45    44    1
    47    89    91   ar
    48    89    87   ar
    49    91    90   ar
    50    59    60    2
    51    59    62   am
    52    62    63    1
    53     6     8   am
    54     6     7    2
    55    74    71    1
    56    43    44    1
    57    43    40    1
    58    31    32    1
    59    87    86   ar
    60    87    85   ar
    61    38    36    1
    62    90    88   ar
    63    86    84   ar
    64    63    66    1
    65    63    64    1
    66    66    67    1
    67    36    35    1
    68    39    40    1
    69    39    33   am
    70    35    32    1
    71    35    37    1
    72    71    70    1
    73    71    72    1
    74    68    67    1
    75    40    41    1
    76    32    33    1
    77    85    88   ar
    78    85    83   ar
    79    84    83   ar
    80    67    69    1
    81    33    34    2
    82    64    65    2
    83    41    42    2
    84    72    73    2
    85    83    82    1
    86    82    79    1
    87    78    79    1
    88    79    80    1
    89    80    81    2
