@<TRIPOS>MOLECULE
tmp/5nbsA20.pdb
 97 95 0 0 0
SMALL
GASTEIGER

@<TRIPOS>ATOM
      1  N         51.9540  142.0250   -6.3230 N.3   268  GLY268     -0.1225
      2  CA        52.9560  141.5840   -5.3650 C.3   268  GLY268      0.1811
      3  C         53.3590  142.6580   -4.3890 C.2   268  GLY268      0.2280
      4  O         52.9710  142.6210   -3.2250 O.2   268  GLY268     -0.2866
      5  N         49.2350  133.1660   -9.1520 N.3   284  THR284     -0.1218
      6  CA        48.5350  134.3610   -9.6500 C.3   284  THR284      0.1862
      7  C         47.0410  134.0970   -9.8630 C.2   284  THR284      0.2287
      8  O         46.1840  134.8850   -9.4400 O.2   284  THR284     -0.2866
      9  CB        49.1630  134.8930  -10.9690 C.3   284  THR284      0.1770
     10  OG1       49.3210  133.8320  -11.9150 O.3   284  THR284     -0.2211
     11  CG2       50.5160  135.5210  -10.6980 C.3   284  THR284      0.0375
     12  N         51.2670  128.4860  -12.3920 N.3   289  GLY289     -0.1210
     13  CA        52.6940  128.1790  -12.2270 C.3   289  GLY289      0.1956
     14  C         53.5700  129.3680  -11.8330 C.2   289  GLY289      0.2612
     15  O         54.7870  129.2270  -11.7030 O.2   289  GLY289     -0.2717
     16  N         52.9350  130.5210  -11.6140 N.am  290  ARG290     -0.1965
     17  CA        53.5940  131.7820  -11.2810 C.3   290  ARG290      0.1729
     18  C         52.9060  132.4090  -10.0800 C.2   290  ARG290      0.2617
     19  O         51.7930  132.0130   -9.7150 O.2   290  ARG290     -0.2715
     20  CB        53.4910  132.7400  -12.4590 C.3   290  ARG290      0.0348
     21  CG        54.1840  132.2550  -13.7190 C.3   290  ARG290      0.0492
     22  CD        55.7000  132.1290  -13.5420 C.3   290  ARG290      0.2205
     23  NE        56.3250  131.7160  -14.7960 N.pl3 290  ARG290     -0.0865
     24  CZ        56.7140  132.5270  -15.7790 C.cat 290  ARG290      0.5346
     25  NH1       56.6210  133.8550  -15.6780 N.pl3 290  ARG290      0.1354
     26  NH2       57.2520  131.9990  -16.8740 N.pl3 290  ARG290      0.1354
     27  N         53.5620  133.4070   -9.4890 N.am  291  SER291     -0.1936
     28  CA        53.1080  134.0170   -8.2380 C.3   291  SER291      0.2055
     29  C         53.4560  135.4970   -8.1930 C.2   291  SER291      0.2643
     30  O         54.5330  135.8930   -8.6340 O.2   291  SER291     -0.2714
     31  CB        53.7790  133.3240   -7.0510 C.3   291  SER291      0.2130
     32  OG        53.4180  133.9370   -5.8230 O.3   291  SER291     -0.2179
     33  N         52.5520  136.3040   -7.6360 N.am  292  TYR292     -0.1959
     34  CA        52.8630  137.6980   -7.3490 C.3   292  TYR292      0.1771
     35  C         53.8960  137.7890   -6.2310 C.2   292  TYR292      0.2619
     36  O         54.6440  138.7510   -6.1830 O.2   292  TYR292     -0.2715
     37  CB        51.6130  138.5040   -6.9940 C.3   292  TYR292      0.0574
     38  CG        50.6200  138.6020   -8.1350 C.ar  292  TYR292     -0.0198
     39  CD1       50.9720  139.2180   -9.3510 C.ar  292  TYR292     -0.0009
     40  CD2       49.3370  138.0740   -8.0080 C.ar  292  TYR292     -0.0009
     41  CE1       50.0710  139.2970  -10.4050 C.ar  292  TYR292      0.0417
     42  CE2       48.4250  138.1460   -9.0560 C.ar  292  TYR292      0.0417
     43  CZ        48.7940  138.7560  -10.2490 C.ar  292  TYR292      0.1957
     44  OH        47.8860  138.8140  -11.2620 O.3   292  TYR292     -0.2866
     45  N         53.9380  136.7980   -5.3410 N.am  293  TRP293     -0.1974
     46  CA        55.0380  136.6700   -4.3860 C.3   293  TRP293      0.1640
     47  C         55.9450  135.5140   -4.8290 C.2   293  TRP293      0.2290
     48  O         56.2880  135.4510   -6.0090 O.2   293  TRP293     -0.2864
     49  CB        54.5060  136.5570   -2.9430 C.3   293  TRP293      0.0576
     50  CG        53.8440  137.8200   -2.4280 C.ar  293  TRP293      0.0006
     51  CD1       53.7600  139.0520   -3.0500 C.ar  293  TRP293      0.0946
     52  CD2       53.2260  137.9810   -1.1590 C.ar  293  TRP293      0.0152
     53  NE1       53.0990  139.9400   -2.2510 N.ar  293  TRP293     -0.2442
     54  CE2       52.7590  139.3090   -1.0820 C.ar  293  TRP293      0.0810
     55  CE3       52.9860  137.1190   -0.0850 C.ar  293  TRP293      0.0012
     56  CZ2       52.0830  139.7940    0.0360 C.ar  293  TRP293      0.0191
     57  CZ3       52.3180  137.6020    1.0230 C.ar  293  TRP293      0.0001
     58  CH2       51.8790  138.9230    1.0780 C.ar  293  TRP293      0.0015
     59  N         59.0700  133.8020   -5.9160 N.3   295  THR295     -0.1203
     60  CA        60.2040  134.3910   -6.6070 C.3   295  THR295      0.1994
     61  C         60.1540  135.9070   -6.6260 C.2   295  THR295      0.2617
     62  O         61.1480  136.5540   -6.3210 O.2   295  THR295     -0.2717
     63  CB        60.2480  133.8890   -8.0660 C.3   295  THR295      0.1784
     64  OG1       60.3090  132.4590   -8.0650 O.3   295  THR295     -0.2211
     65  CG2       61.4430  134.4620   -8.8320 C.3   295  THR295      0.0376
     66  N         59.0010  136.4560   -6.9980 N.am  296  ASN296     -0.1974
     67  CA        58.8250  137.9060   -7.0910 C.3   296  ASN296      0.1688
     68  C         59.0230  138.6040   -5.7480 C.2   296  ASN296      0.2292
     69  O         59.5560  139.7040   -5.7150 O.2   296  ASN296     -0.2864
     70  CB        57.4320  138.2650   -7.6170 C.3   296  ASN296      0.1181
     71  CG        57.3570  138.3620   -9.1310 C.2   296  ASN296      0.2629
     72  OD1       58.1880  139.0050   -9.7690 O.2   296  ASN296     -0.2716
     73  ND2       56.3290  137.7300   -9.7070 N.am  296  ASN296     -0.0877
     74  N         64.3940  136.5600  -14.2670 N.3   702  SER702     -0.1202
     75  CA        63.8120  135.6890  -13.2200 C.3   702  SER702      0.2020
     76  C         62.4040  136.1120  -12.7700 C.2   702  SER702      0.2619
     77  O         61.5880  135.2510  -12.4280 O.2   702  SER702     -0.2717
     78  CB        64.7330  135.5730  -11.9960 C.3   702  SER702      0.2103
     79  OG        65.7470  134.6080  -12.2150 O.3   702  SER702     -0.2182
     80  N         62.1230  137.4180  -12.7630 N.am  703  SER703     -0.1937
     81  CA        60.7810  137.9060  -12.4520 C.3   703  SER703      0.2055
     82  C         59.7460  137.4420  -13.4730 C.2   703  SER703      0.2644
     83  O         58.6080  137.1350  -13.1130 O.2   703  SER703     -0.2714
     84  CB        60.7470  139.4340  -12.3420 C.3   703  SER703      0.2130
     85  OG        60.7750  140.0680  -13.6070 O.3   703  SER703     -0.2179
     86  N         60.1460  137.3890  -14.7460 N.am  704  GLY704     -0.1939
     87  CA        59.2210  137.1380  -15.8460 C.3   704  GLY704      0.2014
     88  C         58.1420  138.2060  -15.9180 C.2   704  GLY704      0.2638
     89  O         57.0480  137.9330  -16.4150 O.2   704  GLY704     -0.2714
     90  N         58.4490  139.4040  -15.4080 N.am  705  ASP705     -0.1971
     91  CA        57.4890  140.4890  -15.2460 C.3   705  ASP705      0.1709
     92  C         57.8600  141.5300  -16.2780 C.2   705  ASP705      0.2293
     93  O         58.8860  142.2080  -16.1410 O.2   705  ASP705     -0.2864
     94  CB        57.5760  141.0780  -13.8230 C.3   705  ASP705      0.1436
     95  CG        56.4790  142.1270  -13.5220 C.2   705  ASP705      0.3671
     96  OD1       56.0590  142.8770  -14.4320 O.co2 705  ASP705     -0.2456
     97  OD2       56.0360  142.2000  -12.3450 O.co2 705  ASP705     -0.2456
@<TRIPOS>BOND
     1    26    24    1
     2    89    88    2
     3    92    93    2
     4    92    91    1
     5    88    87    1
     6    88    90   am
     7    87    86    1
     8    24    25    1
     9    24    23    2
    10    90    91    1
    11    91    94    1
    12    23    22    1
    13    86    82   am
    14    96    95   ar
    15    74    75    1
    16    94    95    1
    17    21    22    1
    18    21    20    1
    19    85    84    1
    20    95    97   ar
    21    82    83    2
    22    82    81    1
    23    75    76    1
    24    75    78    1
    25    76    80   am
    26    76    77    2
    27    80    81    1
    28    20    17    1
    29    81    84    1
    30    12    13    1
    31    13    14    1
    32    79    78    1
    33    10     9    1
    34    14    15    2
    35    14    16   am
    36    16    17    1
    37    17    18    1
    38    44    43    1
    39     9    11    1
    40     9     6    1
    41    41    43   ar
    42    41    39   ar
    43    43    42   ar
    44    18    19    2
    45    18    27   am
    46     7     6    1
    47     7     8    2
    48    72    71    2
    49    73    71   am
    50     6     5    1
    51    27    28    1
    52    39    38   ar
    53    71    70    1
    54    42    40   ar
    55    65    63    1
    56    30    29    2
    57    28    29    1
    58    28    31    1
    59    29    33   am
    60    38    40   ar
    61    38    37    1
    62    63    64    1
    63    63    60    1
    64    33    34    1
    65    70    67    1
    66    34    37    1
    67    34    35    1
    68    67    66    1
    69    67    68    1
    70    31    32    1
    71    66    61   am
    72    61    60    1
    73    61    62    2
    74    60    59    1
    75     1     2    1
    76    35    36    2
    77    35    45   am
    78    48    47    2
    79    68    69    2
    80     2     3    1
    81    45    46    1
    82    47    46    1
    83     3     4    2
    84    46    49    1
    85    51    50   ar
    86    51    53   ar
    87    49    50    1
    88    50    52   ar
    89    53    54   ar
    90    52    54   ar
    91    52    55   ar
    92    54    56   ar
    93    55    57   ar
    94    56    58   ar
    95    57    58   ar
