@<TRIPOS>MOLECULE
tmp/5nc1A00.pdb
 76 73 0 0 0
SMALL
GASTEIGER

@<TRIPOS>ATOM
      1  N        -45.7590  -12.0950   12.1230 N.3    53  ASN53      -0.1240
      2  CA       -45.5590  -13.2980   11.3440 C.3    53  ASN53       0.1653
      3  C        -46.3800  -13.2300   10.0590 C.2    53  ASN53       0.2266
      4  O        -47.4990  -13.7750    9.9740 O.2    53  ASN53      -0.2867
      5  CB       -45.9450  -14.5360   12.1790 C.3    53  ASN53       0.1155
      6  CG       -46.0120  -15.8100   11.3670 C.2    53  ASN53       0.2627
      7  OD1      -45.4200  -15.9110   10.2990 O.2    53  ASN53      -0.2716
      8  ND2      -46.7290  -16.7970   11.8800 N.am   53  ASN53      -0.0877
      9  N        -50.3450  -13.4020    9.2460 N.3    56  TYR56      -0.1241
     10  CA       -51.0560  -14.0070   10.3620 C.3    56  TYR56       0.1605
     11  C        -51.1960  -12.9800   11.4840 C.2    56  TYR56       0.2264
     12  O        -50.4070  -12.0340   11.5970 O.2    56  TYR56      -0.2867
     13  CB       -50.3590  -15.2720   10.8790 C.3    56  TYR56       0.0534
     14  CG       -50.3430  -16.4100    9.8910 C.ar   56  TYR56      -0.0201
     15  CD1      -51.4220  -17.2880    9.7930 C.ar   56  TYR56      -0.0009
     16  CD2      -49.2490  -16.6040    9.0360 C.ar   56  TYR56      -0.0009
     17  CE1      -51.4060  -18.3350    8.8820 C.ar   56  TYR56       0.0417
     18  CE2      -49.2280  -17.6340    8.1120 C.ar   56  TYR56       0.0417
     19  CZ       -50.3020  -18.4970    8.0380 C.ar   56  TYR56       0.1957
     20  OH       -50.2550  -19.5320    7.1320 O.3    56  TYR56      -0.2866
     21  N        -50.2490  -12.8910   14.4330 N.3    58  GLU58      -0.1245
     22  CA       -49.2870  -13.4770   15.3460 C.3    58  GLU58       0.1567
     23  C        -48.0990  -12.5420   15.4130 C.2    58  GLU58       0.2260
     24  O        -47.5950  -12.1090   14.3790 O.2    58  GLU58      -0.2867
     25  CB       -48.8640  -14.8850   14.8880 C.3    58  GLU58       0.0388
     26  CG       -49.9840  -15.9410   14.9030 C.3    58  GLU58       0.1160
     27  CD       -49.5370  -17.2930   14.3500 C.2    58  GLU58       0.3649
     28  OE1      -48.3390  -17.6170   14.3900 O.co2  58  GLU58      -0.2457
     29  OE2      -50.3820  -18.0710   13.8690 O.co2  58  GLU58      -0.2457
     30  N        -47.9470  -16.4240   20.3740 N.3    83  THR83      -0.1203
     31  CA       -48.9320  -17.4170   19.9870 C.3    83  THR83       0.1994
     32  C        -48.3180  -18.7990   19.8390 C.2    83  THR83       0.2618
     33  O        -47.3800  -18.9860   19.0540 O.2    83  THR83      -0.2717
     34  CB       -49.5960  -17.0010   18.6880 C.3    83  THR83       0.1784
     35  OG1      -50.1900  -15.7200   18.8950 O.3    83  THR83      -0.2211
     36  CG2      -50.6650  -17.9830   18.2610 C.3    83  THR83       0.0376
     37  N        -48.8510  -19.7590   20.6030 N.am   84  ASN84      -0.1960
     38  CA       -48.5450  -21.1800   20.4200 C.3    84  ASN84       0.1819
     39  C        -48.8800  -21.5780   19.0210 C.2    84  ASN84       0.2621
     40  O        -50.0050  -21.3620   18.5710 O.2    84  ASN84      -0.2715
     41  CB       -49.3760  -22.0900   21.3450 C.3    84  ASN84       0.1195
     42  CG       -48.6350  -22.4690   22.5930 C.2    84  ASN84       0.2630
     43  OD1      -48.5090  -21.6640   23.5020 O.2    84  ASN84      -0.2716
     44  ND2      -48.1180  -23.6900   22.6400 N.am   84  ASN84      -0.0877
     45  N        -47.9260  -22.2180   18.3530 N.am   85  ALA85      -0.1963
     46  CA       -48.0690  -22.4760   16.9340 C.3    85  ALA85       0.1728
     47  C        -47.4080  -23.7740   16.5050 C.2    85  ALA85       0.2617
     48  O        -46.4230  -24.2240   17.1060 O.2    85  ALA85      -0.2715
     49  CB       -47.4970  -21.2920   16.1330 C.3    85  ALA85       0.0334
     50  N        -47.9700  -24.3460   15.4430 N.am   86  THR86      -0.1937
     51  CA       -47.4100  -25.4910   14.7450 C.3    86  THR86       0.2028
     52  C        -47.3090  -25.0810   13.2680 C.2    86  THR86       0.2643
     53  O        -48.3190  -24.8390   12.5920 O.2    86  THR86      -0.2714
     54  CB       -48.2840  -26.7450   14.9340 C.3    86  THR86       0.1808
     55  OG1      -48.3520  -27.0440   16.3360 O.3    86  THR86      -0.2208
     56  CG2      -47.7170  -27.9470   14.1800 C.3    86  THR86       0.0379
     57  N        -46.0800  -24.9770   12.7800 N.am   87  GLY87      -0.1939
     58  CA       -45.8230  -24.4490   11.4300 C.3    87  GLY87       0.2014
     59  C        -44.5160  -23.6960   11.4530 C.2    87  GLY87       0.2640
     60  O        -43.7000  -23.8520   12.3810 O.2    87  GLY87      -0.2714
     61  N        -44.3330  -22.8760   10.4230 N.am   88  THR88      -0.1936
     62  CA       -43.1460  -22.0520   10.2760 C.3    88  THR88       0.2028
     63  C        -43.5650  -20.5950   10.2320 C.2    88  THR88       0.2642
     64  O        -44.3950  -20.2350    9.4140 O.2    88  THR88      -0.2714
     65  CB       -42.4010  -22.4440    8.9850 C.3    88  THR88       0.1808
     66  OG1      -41.8610  -23.7560    9.1560 O.3    88  THR88      -0.2208
     67  CG2      -41.2770  -21.4590    8.6600 C.3    88  THR88       0.0379
     68  N        -42.9550  -19.7740   11.0940 N.am   89  GLN89      -0.1976
     69  CA       -43.2240  -18.3440   11.1580 C.3    89  GLN89       0.1601
     70  C        -42.1640  -17.6140   10.3500 C.2    89  GLN89       0.2287
     71  O        -40.9940  -18.0260   10.3350 O.2    89  GLN89      -0.2864
     72  CB       -43.2340  -17.8160   12.6140 C.3    89  GLN89       0.0394
     73  CG       -44.2470  -18.5300   13.5300 C.3    89  GLN89       0.0908
     74  CD       -43.7240  -19.8490   14.0530 C.2    89  GLN89       0.2608
     75  OE1      -42.5060  -19.9790   14.3800 O.2    89  GLN89      -0.2717
     76  NE2      -44.6090  -20.8560   14.1080 N.am   89  GLN89      -0.0878
@<TRIPOS>BOND
     1    20    19    1
     2    19    18   ar
     3    19    17   ar
     4    18    16   ar
     5    67    65    1
     6    17    15   ar
     7    65    66    1
     8    65    62    1
     9    16    14   ar
    10     9    10    1
    11    64    63    2
    12    15    14   ar
    13    14    13    1
    14     4     3    2
    15     3     2    1
    16    63    62    1
    17    63    68   am
    18    62    61    1
    19     7     6    2
    20    71    70    2
    21    70    69    1
    22    10    13    1
    23    10    11    1
    24    61    59   am
    25    68    69    1
    26    69    72    1
    27     2     1    1
    28     2     5    1
    29     6     8   am
    30     6     5    1
    31    58    59    1
    32    58    57    1
    33    59    60    2
    34    11    12    2
    35    53    52    2
    36    72    73    1
    37    57    52   am
    38    52    51    1
    39    73    74    1
    40    29    27   ar
    41    74    76   am
    42    74    75    2
    43    56    54    1
    44    27    28   ar
    45    27    26    1
    46    24    23    2
    47    21    22    1
    48    51    54    1
    49    51    50    1
    50    25    26    1
    51    25    22    1
    52    54    55    1
    53    22    23    1
    54    50    47   am
    55    49    46    1
    56    47    46    1
    57    47    48    2
    58    46    45    1
    59    36    34    1
    60    45    39   am
    61    40    39    2
    62    34    35    1
    63    34    31    1
    64    39    38    1
    65    33    32    2
    66    32    31    1
    67    32    37   am
    68    31    30    1
    69    38    37    1
    70    38    41    1
    71    41    42    1
    72    42    44   am
    73    42    43    2
