@<TRIPOS>MOLECULE
tmp/5nc2A00.pdb
 123 119 0 0 0
SMALL
GASTEIGER

@<TRIPOS>ATOM
      1  N         21.3890  -22.1870   17.4650 N.3    13  MET13      -0.1245
      2  CA        22.2020  -20.9760   17.5340 C.3    13  MET13       0.1570
      3  C         21.7070  -19.9530   16.5150 C.2    13  MET13       0.2261
      4  O         21.0510  -20.2890   15.5220 O.2    13  MET13      -0.2867
      5  CB        23.7040  -21.2530   17.2610 C.3    13  MET13       0.0387
      6  CG        24.2790  -22.5200   17.8770 C.3    13  MET13       0.0595
      7  SD        24.4040  -22.4150   19.6720 S.3    13  MET13      -0.1393
      8  CE        25.6820  -21.1830   19.8900 C.3    13  MET13       0.0692
      9  N         23.3810  -16.1950   14.5860 N.3    15  TYR15      -0.1241
     10  CA        24.6830  -15.5790   14.4170 C.3    15  TYR15       0.1605
     11  C         24.5380  -14.1030   14.7110 C.2    15  TYR15       0.2264
     12  O         23.6790  -13.4300   14.1290 O.2    15  TYR15      -0.2867
     13  CB        25.2440  -15.8150   13.0010 C.3    15  TYR15       0.0534
     14  CG        26.7070  -15.4270   12.8600 C.ar   15  TYR15      -0.0201
     15  CD1       27.0720  -14.2990   12.1250 C.ar   15  TYR15      -0.0009
     16  CD2       27.7100  -16.1690   13.4460 C.ar   15  TYR15      -0.0009
     17  CE1       28.4230  -13.9490   11.9740 C.ar   15  TYR15       0.0417
     18  CE2       29.0380  -15.8200   13.3310 C.ar   15  TYR15       0.0417
     19  CZ        29.3870  -14.7080   12.5600 C.ar   15  TYR15       0.1957
     20  OH        30.7190  -14.3470   12.4070 O.3    15  TYR15      -0.2866
     21  N         28.4880  -16.7910   17.1800 N.3    22  TRP22      -0.1241
     22  CA        27.2550  -17.5260   17.3950 C.3    22  TRP22       0.1605
     23  C         26.7880  -17.3180   18.8250 C.2    22  TRP22       0.2264
     24  O         27.5990  -17.2690   19.7650 O.2    22  TRP22      -0.2867
     25  CB        27.4740  -19.0210   17.1310 C.3    22  TRP22       0.0550
     26  CG        27.7180  -19.3400   15.6900 C.ar   22  TRP22       0.0003
     27  CD1       28.9290  -19.5350   15.1000 C.ar   22  TRP22       0.0946
     28  CD2       26.7340  -19.5280   14.6740 C.ar   22  TRP22       0.0152
     29  NE1       28.7690  -19.8090   13.7750 N.ar   22  TRP22      -0.2442
     30  CE2       27.4290  -19.8190   13.4830 C.ar   22  TRP22       0.0810
     31  CE3       25.3260  -19.4390   14.6390 C.ar   22  TRP22       0.0012
     32  CZ2       26.7800  -20.0560   12.2610 C.ar   22  TRP22       0.0191
     33  CZ3       24.6770  -19.7110   13.4200 C.ar   22  TRP22       0.0001
     34  CH2       25.4190  -19.9970   12.2450 C.ar   22  TRP22       0.0015
     35  N         18.6250  -22.1410    0.5960 N.3    68  LYS68      -0.1245
     36  CA        19.9230  -22.8000    0.6300 C.3    68  LYS68       0.1561
     37  C         20.2500  -23.3110    2.0290 C.2    68  LYS68       0.2260
     38  O         20.6340  -22.5380    2.9180 O.2    68  LYS68      -0.2867
     39  CB        21.0370  -21.8580    0.2190 C.3    68  LYS68       0.0271
     40  CG        20.9120  -21.2070   -1.0830 C.3    68  LYS68       0.0035
     41  CD        22.2790  -20.6890   -1.5570 C.3    68  LYS68       0.0206
     42  CE        23.4680  -21.3690   -0.9230 C.3    68  LYS68       0.1093
     43  NZ        24.6390  -21.2310   -1.8270 N.3    68  LYS68      -0.1314
     44  N         22.7710  -25.2810    4.1310 N.3    70  ASN70      -0.1240
     45  CA        24.2050  -25.5450    4.0980 C.3    70  ASN70       0.1653
     46  C         24.5890  -26.5510    5.1730 C.2    70  ASN70       0.2266
     47  O         24.5840  -26.2310    6.3690 O.2    70  ASN70      -0.2867
     48  CB        24.9970  -24.2530    4.2900 C.3    70  ASN70       0.1155
     49  CG        26.4570  -24.4420    4.0230 C.2    70  ASN70       0.2627
     50  OD1       26.8510  -24.9790    2.9630 O.2    70  ASN70      -0.2716
     51  ND2       27.2770  -24.0130    4.9400 N.am   70  ASN70      -0.0877
     52  N         27.2480  -27.5730    6.7210 N.3    72  ALA72      -0.1231
     53  CA        28.6350  -27.1730    6.9060 C.3    72  ALA72       0.1694
     54  C         29.4930  -28.3440    7.3540 C.2    72  ALA72       0.2592
     55  O         30.5520  -28.6190    6.7690 O.2    72  ALA72      -0.2718
     56  CB        28.7000  -26.0220    7.9130 C.3    72  ALA72       0.0304
     57  N         29.0470  -29.0610    8.3820 N.am   73  THR73      -0.1953
     58  CA        29.7160  -30.2690    8.8290 C.3    73  THR73       0.1897
     59  C         28.6710  -31.3640    8.9940 C.2    73  THR73       0.2313
     60  O         27.4670  -31.1350    8.8250 O.2    73  THR73      -0.2863
     61  CB        30.4950  -30.0420   10.1350 C.3    73  THR73       0.1794
     62  OG1       29.6070  -30.0670   11.2730 O.3    73  THR73      -0.2208
     63  CG2       31.2490  -28.7060   10.1100 C.3    73  THR73       0.0378
     64  N         26.8490  -29.8280   12.0950 N.3    76  PHE76      -0.1241
     65  CA        26.4080  -28.4490   12.2750 C.3    76  PHE76       0.1605
     66  C         25.8760  -27.9700   10.9370 C.2    76  PHE76       0.2264
     67  O         26.6530  -27.8820    9.9850 O.2    76  PHE76      -0.2867
     68  CB        27.5460  -27.5440   12.7290 C.3    76  PHE76       0.0534
     69  CG        27.1020  -26.1390   12.9410 C.ar   76  PHE76      -0.0203
     70  CD1       27.1780  -25.2280   11.8910 C.ar   76  PHE76      -0.0042
     71  CD2       26.5640  -25.7350   14.1470 C.ar   76  PHE76      -0.0042
     72  CE1       26.7310  -23.9150   12.0760 C.ar   76  PHE76      -0.0003
     73  CE2       26.1190  -24.4580   14.3230 C.ar   76  PHE76      -0.0003
     74  CZ        26.2050  -23.5560   13.2840 C.ar   76  PHE76      -0.0000
     75  N         23.2760  -25.0740    8.7170 N.3    78  GLN78      -0.1231
     76  CA        22.9140  -23.6810    8.9190 C.3    78  GLN78       0.1698
     77  C         22.1370  -23.1750    7.7130 C.2    78  GLN78       0.2592
     78  O         22.2350  -23.7370    6.6120 O.2    78  GLN78      -0.2718
     79  CB        24.1640  -22.8150    9.1390 C.3    78  GLN78       0.0381
     80  CG        25.1280  -22.9290    7.9780 C.3    78  GLN78       0.0905
     81  CD        26.5270  -22.3450    8.2250 C.2    78  GLN78       0.2608
     82  OE1       27.4820  -22.7720    7.5890 O.2    78  GLN78      -0.2717
     83  NE2       26.6250  -21.3130    9.0510 N.am   78  GLN78      -0.0878
     84  N         21.4110  -22.0640    7.9150 N.am   79  TRP79      -0.1962
     85  CA        20.6990  -21.4060    6.8220 C.3    79  TRP79       0.1771
     86  C         20.4400  -19.9670    7.2420 C.2    79  TRP79       0.2619
     87  O         20.7010  -19.5710    8.3870 O.2    79  TRP79      -0.2715
     88  CB        19.3800  -22.1260    6.4690 C.3    79  TRP79       0.0590
     89  CG        18.3160  -22.0230    7.5400 C.ar   79  TRP79       0.0006
     90  CD1       17.3290  -21.0900    7.6480 C.ar   79  TRP79       0.0946
     91  CD2       18.1410  -22.9250    8.6370 C.ar   79  TRP79       0.0152
     92  NE1       16.5580  -21.3460    8.7470 N.ar   79  TRP79      -0.2442
     93  CE2       17.0250  -22.4790    9.3650 C.ar   79  TRP79       0.0810
     94  CE3       18.8000  -24.0920    9.0380 C.ar   79  TRP79       0.0012
     95  CZ2       16.5830  -23.1260   10.5200 C.ar   79  TRP79       0.0191
     96  CZ3       18.3670  -24.7390   10.1910 C.ar   79  TRP79       0.0001
     97  CH2       17.2580  -24.2610   10.9090 C.ar   79  TRP79       0.0015
     98  N         19.9040  -19.1860    6.3150 N.am   80  ARG80      -0.1977
     99  CA        19.6150  -17.7980    6.6220 C.3    80  ARG80       0.1597
    100  C         18.2860  -17.4000    6.0060 C.2    80  ARG80       0.2287
    101  O         17.7650  -18.0560    5.1010 O.2    80  ARG80      -0.2864
    102  CB        20.7310  -16.8670    6.1230 C.3    80  ARG80       0.0334
    103  CG        21.2440  -17.2300    4.7570 C.3    80  ARG80       0.0492
    104  CD        22.1370  -16.1540    4.1840 C.3    80  ARG80       0.2205
    105  NE        23.1610  -16.6860    3.2940 N.pl3  80  ARG80      -0.0865
    106  CZ        22.9310  -17.1420    2.0680 C.cat  80  ARG80       0.5346
    107  NH1       21.7030  -17.1190    1.5480 N.pl3  80  ARG80       0.1354
    108  NH2       23.9450  -17.6010    1.3480 N.pl3  80  ARG80       0.1354
    109  N         20.7490  -15.4910   10.6120 N.3    85  VAL85      -0.1245
    110  CA        21.4290  -16.7420   10.2500 C.3    85  VAL85       0.1561
    111  C         21.2490  -17.7200   11.4030 C.2    85  VAL85       0.2260
    112  O         21.5630  -17.3910   12.5540 O.2    85  VAL85      -0.2867
    113  CB        22.9350  -16.5610    9.9720 C.3    85  VAL85       0.0252
    114  CG1       23.5650  -17.9400    9.7720 C.3    85  VAL85       0.0019
    115  CG2       23.1770  -15.6630    8.7000 C.3    85  VAL85       0.0019
    116  N         23.4370  -27.2320   16.0350 N.3    89  ASN89      -0.1240
    117  CA        24.5760  -28.0630   16.3990 C.3    89  ASN89       0.1653
    118  C         23.9790  -29.3600   16.8990 C.2    89  ASN89       0.2266
    119  O         23.5660  -29.4530   18.0540 O.2    89  ASN89      -0.2867
    120  CB        25.4490  -27.3860   17.4280 C.3    89  ASN89       0.1155
    121  CG        26.7460  -28.0950   17.6040 C.2    89  ASN89       0.2627
    122  OD1       27.5520  -28.1840   16.6730 O.2    89  ASN89      -0.2716
    123  ND2       26.9380  -28.6790   18.7860 N.am   89  ASN89      -0.0877
@<TRIPOS>BOND
     1    43    42    1
     2    41    40    1
     3    41    42    1
     4    40    39    1
     5    39    36    1
     6    35    36    1
     7    36    37    1
     8   108   106    1
     9   107   106    1
    10    37    38    2
    11   106   105    2
    12    50    49    2
    13   105   104    1
    14    49    48    1
    15    49    51   am
    16    45    44    1
    17    45    48    1
    18    45    46    1
    19   104   103    1
    20   103   102    1
    21   101   100    2
    22    46    47    2
    23   100    99    1
    24   102    99    1
    25    98    99    1
    26    98    86   am
    27    88    85    1
    28    88    89    1
    29    78    77    2
    30    52    53    1
    31    55    54    2
    32    85    86    1
    33    85    84    1
    34    53    54    1
    35    53    56    1
    36    86    87    2
    37    54    57   am
    38    89    90   ar
    39    89    91   ar
    40    82    81    2
    41    90    92   ar
    42    77    84   am
    43    77    76    1
    44    80    81    1
    45    80    79    1
    46    81    83   am
    47    57    58    1
    48    91    94   ar
    49    91    93   ar
    50   115   113    1
    51    75    76    1
    52    92    93   ar
    53    60    59    2
    54    58    59    1
    55    58    61    1
    56    76    79    1
    57    94    96   ar
    58    93    95   ar
    59   114   113    1
    60   113   110    1
    61    67    66    2
    62    63    61    1
    63    61    62    1
    64    96    97   ar
    65   110   109    1
    66   110   111    1
    67    95    97   ar
    68    66    65    1
    69   111   112    2
    70    70    72   ar
    71    70    69   ar
    72    17    15   ar
    73    17    19   ar
    74    72    74   ar
    75    64    65    1
    76    15    14   ar
    77    34    32   ar
    78    34    33   ar
    79    32    30   ar
    80    65    68    1
    81    20    19    1
    82    19    18   ar
    83    68    69    1
    84    14    13    1
    85    14    16   ar
    86    69    71   ar
    87    13    10    1
    88    74    73   ar
    89    18    16   ar
    90    33    31   ar
    91    30    29   ar
    92    30    28   ar
    93    29    27   ar
    94    12    11    2
    95    71    73   ar
    96    10     9    1
    97    10    11    1
    98    31    28   ar
    99    28    26   ar
   100    27    26   ar
   101     4     3    2
   102    26    25    1
   103   116   117    1
   104   117   118    1
   105   117   120    1
   106     3     2    1
   107   122   121    2
   108   118   119    2
   109    25    22    1
   110    21    22    1
   111     5     2    1
   112     5     6    1
   113    22    23    1
   114   120   121    1
   115     1     2    1
   116   121   123   am
   117     6     7    1
   118    23    24    2
   119     7     8    1
