@<TRIPOS>MOLECULE
tmp/5nc2B00.pdb
 160 154 0 0 0
SMALL
GASTEIGER

@<TRIPOS>ATOM
      1  N         20.4310  -45.2910   24.8630 N.3    10  ALA10      -0.1245
      2  CA        20.7750  -46.6160   24.3360 C.3    10  ALA10       0.1562
      3  C         20.0940  -47.6790   25.1940 C.2    10  ALA10       0.2260
      4  O         20.3150  -47.7350   26.4130 O.2    10  ALA10      -0.2867
      5  CB        22.2930  -46.8010   24.3250 C.3    10  ALA10       0.0290
      6  N         19.4150  -51.2540   26.7220 N.3    12  MET12      -0.1245
      7  CA        20.1570  -52.4730   26.9750 C.3    12  MET12       0.1570
      8  C         19.2680  -53.4720   27.6990 C.2    12  MET12       0.2261
      9  O         18.2850  -53.1060   28.3820 O.2    12  MET12      -0.2867
     10  CB        21.4340  -52.1880   27.8000 C.3    12  MET12       0.0387
     11  CG        22.2430  -50.9500   27.3260 C.3    12  MET12       0.0595
     12  SD        23.1620  -51.2560   25.8190 S.3    12  MET12      -0.1393
     13  CE        24.4280  -52.3900   26.3960 C.3    12  MET12       0.0692
     14  N         20.0010  -57.2350   30.1190 N.3    14  TYR14      -0.1241
     15  CA        21.0730  -57.8860   30.8380 C.3    14  TYR14       0.1605
     16  C         21.0180  -59.3650   30.5170 C.2    14  TYR14       0.2264
     17  O         19.9670  -60.0000   30.6650 O.2    14  TYR14      -0.2867
     18  CB        20.9800  -57.6510   32.3480 C.3    14  TYR14       0.0534
     19  CG        22.2520  -58.0680   33.0670 C.ar   14  TYR14      -0.0201
     20  CD1       22.2940  -59.2460   33.8220 C.ar   14  TYR14      -0.0009
     21  CD2       23.3980  -57.3050   32.9800 C.ar   14  TYR14      -0.0009
     22  CE1       23.4670  -59.6100   34.4710 C.ar   14  TYR14       0.0417
     23  CE2       24.5580  -57.6560   33.6140 C.ar   14  TYR14       0.0417
     24  CZ        24.5810  -58.8070   34.3740 C.ar   14  TYR14       0.1957
     25  OH        25.7350  -59.1900   35.0470 O.3    14  TYR14      -0.2866
     26  N         26.4960  -62.6280   32.2490 N.3    19  LYS19      -0.1231
     27  CA        26.7720  -61.5480   33.1940 C.3    19  LYS19       0.1693
     28  C         27.3200  -60.3110   32.4880 C.2    19  LYS19       0.2592
     29  O         28.3820  -59.7850   32.8180 O.2    19  LYS19      -0.2718
     30  CB        27.7500  -62.0250   34.2740 C.3    19  LYS19       0.0285
     31  CG        27.2140  -63.0660   35.2530 C.3    19  LYS19       0.0035
     32  CD        26.0320  -62.5810   36.0820 C.3    19  LYS19       0.0206
     33  CE        25.6520  -63.6370   37.1400 C.3    19  LYS19       0.1093
     34  NZ        24.2970  -63.4280   37.7620 N.3    19  LYS19      -0.1314
     35  N         26.5810  -59.8510   31.4890 N.am   20  LYS20      -0.1966
     36  CA        26.9620  -58.6550   30.7480 C.3    20  LYS20       0.1728
     37  C         25.7020  -58.0760   30.1300 C.2    20  LYS20       0.2616
     38  O         24.7660  -58.8110   29.7990 O.2    20  LYS20      -0.2715
     39  CB        28.0260  -58.9330   29.6720 C.3    20  LYS20       0.0311
     40  CG        27.5700  -59.7580   28.5270 C.3    20  LYS20       0.0038
     41  CD        28.5600  -59.6360   27.3370 C.3    20  LYS20       0.0206
     42  CE        29.9330  -60.1440   27.7500 C.3    20  LYS20       0.1093
     43  NZ        31.0000  -59.9590   26.7250 N.3    20  LYS20      -0.1314
     44  N         25.7010  -56.7540   29.9860 N.am   21  TRP21      -0.1974
     45  CA        24.6810  -56.0350   29.2280 C.3    21  TRP21       0.1640
     46  C         24.8850  -56.2100   27.7230 C.2    21  TRP21       0.2290
     47  O         26.0190  -56.2070   27.2390 O.2    21  TRP21      -0.2864
     48  CB        24.7540  -54.5430   29.5530 C.3    21  TRP21       0.0576
     49  CG        24.3630  -54.1860   30.9640 C.ar   21  TRP21       0.0006
     50  CD1       25.1910  -53.9510   32.0240 C.ar   21  TRP21       0.0946
     51  CD2       23.0430  -53.9870   31.4350 C.ar   21  TRP21       0.0152
     52  NE1       24.4480  -53.6420   33.1460 N.ar   21  TRP21      -0.2442
     53  CE2       23.1200  -53.6550   32.7940 C.ar   21  TRP21       0.0810
     54  CE3       21.7730  -54.0740   30.8270 C.ar   21  TRP21       0.0012
     55  CZ2       21.9830  -53.4210   33.5590 C.ar   21  TRP21       0.0191
     56  CZ3       20.6630  -53.8540   31.5810 C.ar   21  TRP21       0.0001
     57  CH2       20.7610  -53.5220   32.9400 C.ar   21  TRP21       0.0015
     58  N         23.0460  -54.9270   23.7110 N.3    23  PRO23      -0.2116
     59  CA        22.0790  -53.9650   23.1810 C.3    23  PRO23       0.1372
     60  C         20.7320  -54.6110   22.9290 C.2    23  PRO23       0.2244
     61  O         20.6300  -55.7010   22.3450 O.2    23  PRO23      -0.2868
     62  CB        22.7260  -53.4790   21.8690 C.3    23  PRO23       0.0268
     63  CG        23.5920  -54.6390   21.4290 C.3    23  PRO23       0.0207
     64  CD        24.1450  -55.1970   22.7610 C.3    23  PRO23       0.0892
     65  N         23.5610  -52.0070   18.4390 N.3    28  THR28      -0.1218
     66  CA        24.0650  -50.9500   19.2990 C.3    28  THR28       0.1862
     67  C         23.6860  -49.5770   18.7340 C.2    28  THR28       0.2287
     68  O         23.7650  -49.3370   17.5320 O.2    28  THR28      -0.2866
     69  CB        25.6000  -51.0920   19.4040 C.3    28  THR28       0.1770
     70  OG1       25.9140  -52.2040   20.2850 O.3    28  THR28      -0.2211
     71  CG2       26.2380  -49.8060   19.9330 C.3    28  THR28       0.0375
     72  N          9.9840  -51.2000   40.9550 N.3    67  LYS67      -0.1245
     73  CA        11.1690  -50.5340   41.5110 C.3    67  LYS67       0.1561
     74  C         12.0630  -50.0370   40.3830 C.2    67  LYS67       0.2260
     75  O         12.7130  -50.8350   39.6910 O.2    67  LYS67      -0.2867
     76  CB        11.9480  -51.4630   42.4430 C.3    67  LYS67       0.0271
     77  CG        13.1170  -50.7620   43.1350 C.3    67  LYS67       0.0035
     78  CD        13.3400  -51.2260   44.5870 C.3    67  LYS67       0.0206
     79  CE        13.2080  -52.7140   44.7360 C.3    67  LYS67       0.1093
     80  NZ        13.6550  -53.2150   46.0810 N.3    67  LYS67      -0.1314
     81  N         15.2690  -48.1250   39.3940 N.3    69  ASN69      -0.1240
     82  CA        16.5700  -47.8750   39.9990 C.3    69  ASN69       0.1653
     83  C         17.3460  -46.8380   39.1970 C.2    69  ASN69       0.2266
     84  O         17.7850  -47.1080   38.0840 O.2    69  ASN69      -0.2867
     85  CB        17.3740  -49.1670   40.0990 C.3    69  ASN69       0.1155
     86  CG        18.6100  -49.0020   40.9450 C.2    69  ASN69       0.2627
     87  OD1       18.5390  -48.5460   42.1020 O.2    69  ASN69      -0.2716
     88  ND2       19.7510  -49.3480   40.3820 N.am   69  ASN69      -0.0877
     89  N         20.4430  -45.8040   39.0140 N.3    71  ALA71      -0.1231
     90  CA        21.7790  -46.2120   39.4360 C.3    71  ALA71       0.1694
     91  C         22.7650  -45.0590   39.3580 C.2    71  ALA71       0.2592
     92  O         23.5070  -44.7970   40.3130 O.2    71  ALA71      -0.2718
     93  CB        22.2530  -47.3910   38.5820 C.3    71  ALA71       0.0304
     94  N         22.8130  -44.3760   38.2110 N.am   72  THR72      -0.1953
     95  CA        23.5960  -43.1550   38.0590 C.3    72  THR72       0.1897
     96  C         22.6980  -42.0900   37.4340 C.2    72  THR72       0.2313
     97  O         21.5310  -42.3460   37.1130 O.2    72  THR72      -0.2863
     98  CB        24.8510  -43.3810   37.2110 C.3    72  THR72       0.1794
     99  OG1       24.4870  -43.3620   35.8280 O.3    72  THR72      -0.2208
    100  CG2       25.5220  -44.7140   37.5610 C.3    72  THR72       0.0378
    101  N         22.2180  -43.5070   33.8280 N.3    75  PHE75      -0.1241
    102  CA        21.8670  -44.9030   33.5510 C.3    75  PHE75       0.1605
    103  C         20.8290  -45.3540   34.5600 C.2    75  PHE75       0.2264
    104  O         21.1320  -45.3960   35.7540 O.2    75  PHE75      -0.2867
    105  CB        23.0750  -45.8420   33.6060 C.3    75  PHE75       0.0534
    106  CG        22.7100  -47.2670   33.3020 C.ar   75  PHE75      -0.0203
    107  CD1       22.5380  -47.7160   31.9980 C.ar   75  PHE75      -0.0042
    108  CD2       22.5070  -48.1530   34.3360 C.ar   75  PHE75      -0.0042
    109  CE1       22.1720  -49.0280   31.7340 C.ar   75  PHE75      -0.0003
    110  CE2       22.1620  -49.4630   34.0640 C.ar   75  PHE75      -0.0003
    111  CZ        21.9730  -49.8810   32.7920 C.ar   75  PHE75      -0.0000
    112  N         17.5940  -48.3260   35.4960 N.3    77  GLN77      -0.1231
    113  CA        17.3420  -49.7130   35.1450 C.3    77  GLN77       0.1698
    114  C         16.1450  -50.2000   35.9480 C.2    77  GLN77       0.2592
    115  O         15.8160  -49.6360   36.9990 O.2    77  GLN77      -0.2718
    116  CB        18.5770  -50.5830   35.4510 C.3    77  GLN77       0.0381
    117  CG        18.9930  -50.4460   36.9270 C.3    77  GLN77       0.0905
    118  CD        20.3790  -51.0290   37.2740 C.2    77  GLN77       0.2608
    119  OE1       21.0080  -50.5840   38.2410 O.2    77  GLN77      -0.2717
    120  NE2       20.8150  -52.0520   36.5470 N.am   77  GLN77      -0.0878
    121  N         15.5300  -51.2880   35.4810 N.am   78  TRP78      -0.1962
    122  CA        14.4360  -51.9220   36.2310 C.3    78  TRP78       0.1771
    123  C         14.3660  -53.3650   35.7660 C.2    78  TRP78       0.2619
    124  O         15.0410  -53.7500   34.8250 O.2    78  TRP78      -0.2715
    125  CB        13.0770  -51.2240   36.0040 C.3    78  TRP78       0.0590
    126  CG        12.5490  -51.3390   34.6000 C.ar   78  TRP78       0.0006
    127  CD1       11.6860  -52.2800   34.0960 C.ar   78  TRP78       0.0946
    128  CD2       12.8610  -50.4570   33.4970 C.ar   78  TRP78       0.0152
    129  NE1       11.4550  -52.0500   32.7640 N.ar   78  TRP78      -0.2442
    130  CE2       12.1490  -50.9260   32.3760 C.ar   78  TRP78       0.0810
    131  CE3       13.6390  -49.2970   33.3790 C.ar   78  TRP78       0.0012
    132  CZ2       12.2380  -50.3040   31.1270 C.ar   78  TRP78       0.0191
    133  CZ3       13.7410  -48.6740   32.1110 C.ar   78  TRP78       0.0001
    134  CH2       13.0110  -49.1700   31.0300 C.ar   78  TRP78       0.0015
    135  N         13.5580  -54.1750   36.4430 N.am   79  ARG79      -0.1977
    136  CA        13.4400  -55.5790   36.0690 C.3    79  ARG79       0.1597
    137  C         12.0000  -56.0460   36.2210 C.2    79  ARG79       0.2287
    138  O         11.2430  -55.4920   37.0270 O.2    79  ARG79      -0.2864
    139  CB        14.3790  -56.4810   36.9010 C.3    79  ARG79       0.0334
    140  CG        14.8150  -55.9220   38.2490 C.3    79  ARG79       0.0492
    141  CD        15.4370  -57.0000   39.1220 C.3    79  ARG79       0.2205
    142  NE        15.8300  -56.5570   40.4650 N.pl3  79  ARG79      -0.0865
    143  CZ        14.9930  -56.3200   41.4760 C.cat  79  ARG79       0.5346
    144  NH1       15.4800  -55.9400   42.6490 N.pl3  79  ARG79       0.1354
    145  NH2       13.6700  -56.4630   41.3320 N.pl3  79  ARG79       0.1354
    146  N         15.9050  -57.9180   32.7170 N.3    84  VAL84      -0.1245
    147  CA        16.4510  -56.6850   33.3130 C.3    84  VAL84       0.1561
    148  C         16.7770  -55.7200   32.1840 C.2    84  VAL84       0.2260
    149  O         17.5480  -56.0530   31.2710 O.2    84  VAL84      -0.2867
    150  CB        17.7150  -56.9580   34.1440 C.3    84  VAL84       0.0252
    151  CG1       18.2300  -55.6940   34.7330 C.3    84  VAL84       0.0019
    152  CG2       17.3950  -57.9640   35.2520 C.3    84  VAL84       0.0019
    153  N         20.7740  -46.2650   28.8920 N.3    88  ASN88      -0.1240
    154  CA        21.9590  -45.4380   29.0130 C.3    88  ASN88       0.1653
    155  C         21.6150  -44.1400   28.2780 C.2    88  ASN88       0.2266
    156  O         21.6660  -44.0980   27.0520 O.2    88  ASN88      -0.2867
    157  CB        23.1760  -46.1490   28.4370 C.3    88  ASN88       0.1155
    158  CG        24.4530  -45.4540   28.7880 C.2    88  ASN88       0.2627
    159  OD1       24.7740  -45.3270   29.9570 O.2    88  ASN88      -0.2716
    160  ND2       25.2020  -45.0080   27.7750 N.am   88  ASN88      -0.0877
@<TRIPOS>BOND
     1    68    67    2
     2    65    66    1
     3    67    66    1
     4    66    69    1
     5    69    71    1
     6    69    70    1
     7    63    62    1
     8    63    64    1
     9    62    59    1
    10    61    60    2
    11    64    58    1
    12    60    59    1
    13    59    58    1
    14     5     2    1
    15     2     1    1
    16     2     3    1
    17     3     4    2
    18    12    13    1
    19    12    11    1
    20     6     7    1
    21    43    42    1
    22     7     8    1
    23     7    10    1
    24   156   155    2
    25    47    46    2
    26    11    10    1
    27    41    42    1
    28    41    40    1
    29     8     9    2
    30    46    45    1
    31   160   158   am
    32   155   154    1
    33   157   158    1
    34   157   154    1
    35    40    39    1
    36   158   159    2
    37   153   154    1
    38    45    48    1
    39    45    44    1
    40    48    49    1
    41    39    36    1
    42    38    37    2
    43    44    37   am
    44    14    15    1
    45    37    36    1
    46    16    17    2
    47    16    15    1
    48    36    35    1
    49    54    51   ar
    50    54    56   ar
    51    15    18    1
    52    49    51   ar
    53    49    50   ar
    54   134   132   ar
    55   134   133   ar
    56   132   130   ar
    57   149   148    2
    58    51    53   ar
    59    35    28   am
    60    56    57   ar
    61   109   107   ar
    62   109   111   ar
    63   107   106   ar
    64    50    52   ar
    65   133   131   ar
    66   148   147    1
    67    26    27    1
    68    18    19    1
    69   130   129   ar
    70   130   128   ar
    71    28    29    2
    72    28    27    1
    73   146   147    1
    74   129   127   ar
    75   111   110   ar
    76    53    52   ar
    77    53    55   ar
    78    57    55   ar
    79    21    19   ar
    80    21    23   ar
    81    19    20   ar
    82    27    30    1
    83   106   105    1
    84   106   108   ar
    85   147   150    1
    86   131   128   ar
    87   128   126   ar
    88   102   105    1
    89   102   101    1
    90   102   103    1
    91    23    24   ar
    92    20    22   ar
    93   110   108   ar
    94   127   126   ar
    95   150   151    1
    96   150   152    1
    97    30    31    1
    98    24    22   ar
    99    24    25    1
   100   103   104    2
   101   126   125    1
   102   124   123    2
   103   113   116    1
   104   113   112    1
   105   113   114    1
   106    31    32    1
   107   116   117    1
   108   121   114   am
   109   121   122    1
   110   123   122    1
   111   123   135   am
   112    99    98    1
   113   114   115    2
   114   125   122    1
   115   136   137    1
   116   136   135    1
   117   136   139    1
   118    32    33    1
   119   137   138    2
   120   120   118   am
   121   139   140    1
   122   117   118    1
   123    97    96    2
   124    33    34    1
   125    98   100    1
   126    98    95    1
   127   118   119    2
   128    96    95    1
   129    95    94    1
   130    84    83    2
   131    94    91   am
   132   140   141    1
   133    93    90    1
   134    89    90    1
   135   141   142    1
   136    83    82    1
   137    91    90    1
   138    91    92    2
   139    81    82    1
   140    75    74    2
   141    82    85    1
   142    85    86    1
   143    88    86   am
   144    74    73    1
   145   142   143    2
   146    86    87    2
   147    72    73    1
   148   145   143    1
   149   143   144    1
   150    73    76    1
   151    76    77    1
   152    77    78    1
   153    78    79    1
   154    79    80    1
