@<TRIPOS>MOLECULE
tmp/5nc3A00.pdb
 213 205 0 0 0
SMALL
GASTEIGER

@<TRIPOS>ATOM
      1  N          2.0340   24.6110  -32.6950 N.3    51  GLN51      -0.1245
      2  CA         2.4670   25.9950  -32.7630 C.3    51  GLN51       0.1566
      3  C          2.7380   26.5340  -31.3980 C.2    51  GLN51       0.2260
      4  O          2.0820   26.1900  -30.4340 O.2    51  GLN51      -0.2867
      5  CB         1.4250   26.8620  -33.4560 C.3    51  GLN51       0.0367
      6  CG         1.3790   26.6270  -34.9530 C.3    51  GLN51       0.0905
      7  CD         0.0900   27.0730  -35.5890 C.2    51  GLN51       0.2608
      8  OE1       -0.7220   27.7670  -34.9840 O.2    51  GLN51      -0.2717
      9  NE2       -0.1140   26.6610  -36.8200 N.am   51  GLN51      -0.0878
     10  N         -5.7020   30.5360  -35.3840 N.3    87  TRP87      -0.1227
     11  CA        -6.5450   29.6140  -36.1530 C.3    87  TRP87       0.1737
     12  C         -6.5560   28.2620  -35.4510 C.2    87  TRP87       0.2595
     13  O         -7.5650   27.5710  -35.4420 O.2    87  TRP87      -0.2718
     14  CB        -5.9610   29.4610  -37.5710 C.3    87  TRP87       0.0564
     15  CG        -6.9100   29.0470  -38.6820 C.ar   87  TRP87       0.0003
     16  CD1       -7.7930   28.0000  -38.6880 C.ar   87  TRP87       0.0946
     17  CD2       -7.0070   29.6550  -39.9840 C.ar   87  TRP87       0.0152
     18  NE1       -8.4560   27.9450  -39.9080 N.ar   87  TRP87      -0.2442
     19  CE2       -7.9930   28.9530  -40.7090 C.ar   87  TRP87       0.0810
     20  CE3       -6.3740   30.7440  -40.5900 C.ar   87  TRP87       0.0012
     21  CZ2       -8.3480   29.2980  -42.0020 C.ar   87  TRP87       0.0191
     22  CZ3       -6.7350   31.0830  -41.8740 C.ar   87  TRP87       0.0001
     23  CH2       -7.7140   30.3620  -42.5680 C.ar   87  TRP87       0.0015
     24  N         -5.4310   27.8960  -34.8420 N.am   88  ARG88      -0.1980
     25  CA        -5.2240   26.5330  -34.3530 C.3    88  ARG88       0.1597
     26  C         -5.4100   26.4110  -32.8600 C.2    88  ARG88       0.2287
     27  O         -5.2230   25.3370  -32.3370 O.2    88  ARG88      -0.2864
     28  CB        -3.8190   26.0460  -34.7260 C.3    88  ARG88       0.0334
     29  CG        -3.4290   26.2950  -36.1780 C.3    88  ARG88       0.0492
     30  CD        -4.3560   25.5490  -37.1320 C.3    88  ARG88       0.2205
     31  NE        -4.3670   26.0980  -38.4920 N.pl3  88  ARG88      -0.0865
     32  CZ        -5.1070   25.6080  -39.4890 C.cat  88  ARG88       0.5346
     33  NH1       -5.8800   24.5480  -39.2680 N.pl3  88  ARG88       0.1354
     34  NH2       -5.0750   26.1630  -40.7060 N.pl3  88  ARG88       0.1354
     35  N         13.2880   28.3640  -49.9800 N.3   202  LYS202     -0.1231
     36  CA        13.6080   29.6120  -49.3100 C.3   202  LYS202      0.1693
     37  C         13.5830   29.4150  -47.8050 C.2   202  LYS202      0.2591
     38  O         14.1140   30.2310  -47.0750 O.2   202  LYS202     -0.2718
     39  CB        12.6090   30.6980  -49.7060 C.3   202  LYS202      0.0285
     40  CG        12.7060   31.0890  -51.1690 C.3   202  LYS202      0.0035
     41  CD        11.5670   32.0000  -51.5950 C.3   202  LYS202      0.0206
     42  CE        11.6020   32.2750  -53.0910 C.3   202  LYS202      0.1093
     43  NZ        10.4370   33.1000  -53.5150 N.3   202  LYS202     -0.1314
     44  N         12.9710   28.3260  -47.3480 N.am  203  GLN203     -0.1979
     45  CA        12.9190   28.0300  -45.9210 C.3   203  GLN203      0.1601
     46  C         14.1790   27.3400  -45.4200 C.2   203  GLN203      0.2287
     47  O         14.3180   27.0940  -44.2090 O.2   203  GLN203     -0.2864
     48  CB        11.6900   27.1720  -45.5800 C.3   203  GLN203      0.0394
     49  CG        10.3530   27.7300  -46.0540 C.3   203  GLN203      0.0908
     50  CD        10.0970   29.1560  -45.6070 C.2   203  GLN203      0.2608
     51  OE1       10.7230   29.6630  -44.6640 O.2   203  GLN203     -0.2717
     52  NE2        9.1520   29.8080  -46.2690 N.am  203  GLN203     -0.0878
     53  N          5.1310   31.5040  -35.4130 N.3   251  GLN251     -0.1231
     54  CA         4.0860   30.4980  -35.4530 C.3   251  GLN251      0.1698
     55  C          4.4290   29.3280  -36.3590 C.2   251  GLN251      0.2592
     56  O          4.2810   28.1680  -35.9480 O.2   251  GLN251     -0.2718
     57  CB         2.8170   31.1490  -35.9120 C.3   251  GLN251      0.0381
     58  CG         1.6150   30.2820  -35.6770 C.3   251  GLN251      0.0905
     59  CD         0.4110   30.8480  -36.3490 C.2   251  GLN251      0.2608
     60  OE1       -0.0680   31.9110  -35.9760 O.2   251  GLN251     -0.2717
     61  NE2       -0.0650   30.1610  -37.3700 N.am  251  GLN251     -0.0878
     62  N          4.8780   29.6190  -37.5790 N.am  252  ASN252     -0.1974
     63  CA         5.1170   28.5560  -38.5440 C.3   252  ASN252      0.1688
     64  C          6.5550   28.0930  -38.6560 C.2   252  ASN252      0.2292
     65  O          6.8230   27.1560  -39.3830 O.2   252  ASN252     -0.2864
     66  CB         4.5620   28.9610  -39.9140 C.3   252  ASN252      0.1181
     67  CG         3.1170   29.4600  -39.8340 C.2   252  ASN252      0.2629
     68  OD1        2.1870   28.7240  -39.4560 O.2   252  ASN252     -0.2716
     69  ND2        2.9260   30.7270  -40.1700 N.am  252  ASN252     -0.0877
     70  N          8.9290   29.5680  -40.1020 N.3   254  ASN254     -0.1240
     71  CA         9.5430   30.3850  -41.1530 C.3   254  ASN254      0.1653
     72  C         10.2300   31.5800  -40.5250 C.2   254  ASN254      0.2266
     73  O         10.0060   31.8690  -39.3540 O.2   254  ASN254     -0.2867
     74  CB         8.4790   30.8870  -42.1150 C.3   254  ASN254      0.1155
     75  CG         7.2740   31.4780  -41.3910 C.2   254  ASN254      0.2627
     76  OD1        7.0060   31.1590  -40.2300 O.2   254  ASN254     -0.2716
     77  ND2        6.5380   32.3300  -42.0780 N.am  254  ASN254     -0.0877
     78  N         -2.1130   36.2950  -41.9510 N.3   307  ALA307     -0.1231
     79  CA        -2.4760   35.6110  -43.1840 C.3   307  ALA307      0.1694
     80  C         -1.5250   34.4760  -43.5050 C.2   307  ALA307      0.2593
     81  O         -0.3300   34.6930  -43.7440 O.2   307  ALA307     -0.2718
     82  CB        -2.4730   36.6220  -44.3120 C.3   307  ALA307      0.0304
     83  N         -2.0760   33.2640  -43.5790 N.am  308  GLY308     -0.1942
     84  CA        -1.3370   32.0770  -43.9790 C.3   308  GLY308      0.2014
     85  C          0.0110   31.9000  -43.2900 C.2   308  GLY308      0.2639
     86  O          0.1020   31.8410  -42.0600 O.2   308  GLY308     -0.2714
     87  N          1.0750   31.8240  -44.0720 N.am  309  GLY309     -0.1939
     88  CA         2.3900   31.8270  -43.4880 C.3   309  GLY309      0.2014
     89  C          2.7310   33.0890  -42.7070 C.2   309  GLY309      0.2640
     90  O          3.5520   33.0440  -41.7850 O.2   309  GLY309     -0.2714
     91  N          2.1370   34.2320  -43.0450 N.am  310  THR310     -0.1936
     92  CA         2.4950   35.4530  -42.2830 C.3   310  THR310      0.2028
     93  C          1.8620   35.4890  -40.9020 C.2   310  THR310      0.2642
     94  O          2.0900   36.4350  -40.1460 O.2   310  THR310     -0.2714
     95  CB         2.2200   36.8050  -43.0110 C.3   310  THR310      0.1808
     96  OG1        0.8340   36.9200  -43.3800 O.3   310  THR310     -0.2208
     97  CG2        3.1170   36.9670  -44.2400 C.3   310  THR310      0.0379
     98  N          0.9590   34.5600  -40.6390 N.am  311  GLU311     -0.1976
     99  CA         0.3070   34.4560  -39.3400 C.3   311  GLU311      0.1602
    100  C          1.3680   34.1880  -38.3030 C.2   311  GLU311      0.2287
    101  O          2.1080   33.2120  -38.3950 O.2   311  GLU311     -0.2864
    102  CB        -0.7710   33.3460  -39.3050 C.3   311  GLU311      0.0415
    103  CG        -1.7240   33.4190  -38.0970 C.3   311  GLU311      0.1163
    104  CD        -2.5770   32.1570  -37.8950 C.2   311  GLU311      0.3649
    105  OE1       -2.5420   31.2610  -38.7850 O.co2 311  GLU311     -0.2457
    106  OE2       -3.2880   32.0620  -36.8500 O.co2 311  GLU311     -0.2457
    107  N         -7.5100   40.8010  -51.2820 N.3   370  GLU370     -0.1245
    108  CA        -7.0900   39.6560  -52.0500 C.3   370  GLU370      0.1567
    109  C         -8.1930   38.5950  -52.1310 C.2   370  GLU370      0.2260
    110  O         -8.4310   38.0220  -53.1920 O.2   370  GLU370     -0.2867
    111  CB        -5.8130   39.0420  -51.4620 C.3   370  GLU370      0.0388
    112  CG        -5.2390   37.9080  -52.3110 C.3   370  GLU370      0.1160
    113  CD        -3.7960   37.5250  -51.9630 C.2   370  GLU370      0.3649
    114  OE1       -2.8660   38.2370  -52.4180 O.co2 370  GLU370     -0.2457
    115  OE2       -3.5960   36.4860  -51.2740 O.co2 370  GLU370     -0.2457
    116  N         -6.7810   34.7470  -42.6890 N.3   462  TYR462     -0.1227
    117  CA        -6.8300   34.4730  -44.1100 C.3   462  TYR462      0.1736
    118  C         -5.7330   33.4740  -44.4940 C.2   462  TYR462      0.2596
    119  O         -4.6490   33.4070  -43.8830 O.2   462  TYR462     -0.2718
    120  CB        -6.7140   35.8090  -44.8670 C.3   462  TYR462      0.0548
    121  CG        -6.4670   35.7040  -46.3510 C.ar  462  TYR462     -0.0200
    122  CD1       -7.4760   35.3300  -47.2270 C.ar  462  TYR462     -0.0009
    123  CD2       -5.2280   36.0220  -46.8790 C.ar  462  TYR462     -0.0009
    124  CE1       -7.2310   35.2330  -48.5860 C.ar  462  TYR462      0.0417
    125  CE2       -4.9750   35.9370  -48.2330 C.ar  462  TYR462      0.0417
    126  CZ        -5.9710   35.5420  -49.0830 C.ar  462  TYR462      0.1957
    127  OH        -5.6890   35.4490  -50.4190 O.3   462  TYR462     -0.2866
    128  N         -6.0530   32.6200  -45.4500 N.am  463  SER463     -0.1938
    129  CA        -5.0380   31.7700  -46.0470 C.3   463  SER463      0.2055
    130  C         -5.3610   31.5860  -47.4930 C.2   463  SER463      0.2643
    131  O         -6.5330   31.5820  -47.8720 O.2   463  SER463     -0.2714
    132  CB        -4.9280   30.3900  -45.3770 C.3   463  SER463      0.2130
    133  OG        -4.1940   29.4690  -46.1870 O.3   463  SER463     -0.2179
    134  N         -4.3160   31.4240  -48.2900 N.am  464  ARG464     -0.1963
    135  CA        -4.4760   31.1990  -49.7140 C.3   464  ARG464      0.1729
    136  C         -4.7950   29.7500  -50.0620 C.2   464  ARG464      0.2617
    137  O         -4.8650   29.4240  -51.2400 O.2   464  ARG464     -0.2715
    138  CB        -3.1860   31.5930  -50.4230 C.3   464  ARG464      0.0348
    139  CG        -2.8520   33.0680  -50.3250 C.3   464  ARG464      0.0492
    140  CD        -1.4570   33.3260  -50.8590 C.3   464  ARG464      0.2205
    141  NE        -1.2390   34.7440  -51.1300 N.pl3 464  ARG464     -0.0865
    142  CZ        -0.1060   35.3980  -50.8850 C.cat 464  ARG464      0.5346
    143  NH1        0.9520   34.7730  -50.3470 N.pl3 464  ARG464      0.1354
    144  NH2       -0.0430   36.6950  -51.1610 N.pl3 464  ARG464      0.1354
    145  N         -4.8880   28.8770  -49.0620 N.am  465  GLY465     -0.1940
    146  CA        -5.2140   27.4880  -49.3130 C.3   465  GLY465      0.2014
    147  C         -4.5630   26.4800  -48.4010 C.2   465  GLY465      0.2639
    148  O         -5.1390   25.4270  -48.1050 O.2   465  GLY465     -0.2714
    149  N         -3.3630   26.7870  -47.9270 N.am  466  GLN466     -0.1963
    150  CA        -2.5980   25.7960  -47.1850 C.3   466  GLN466      0.1733
    151  C         -3.1910   25.5020  -45.7950 C.2   466  GLN466      0.2616
    152  O         -3.0670   24.3850  -45.2870 O.2   466  GLN466     -0.2715
    153  CB        -1.1420   26.2210  -47.1030 C.3   466  GLN466      0.0408
    154  CG        -0.2140   25.0950  -46.7000 C.3   466  GLN466      0.0908
    155  CD         1.2150   25.3010  -47.1760 C.2   466  GLN466      0.2608
    156  OE1        2.0280   24.3780  -47.1350 O.2   466  GLN466     -0.2717
    157  NE2        1.5280   26.5100  -47.6360 N.am  466  GLN466     -0.0878
    158  N         -3.9080   26.4760  -45.2260 N.am  467  GLY467     -0.1955
    159  CA        -4.6430   26.2700  -43.9780 C.3   467  GLY467      0.1869
    160  C         -6.1280   25.9340  -44.1140 C.2   467  GLY467      0.2309
    161  O         -6.7900   25.6350  -43.1220 O.2   467  GLY467     -0.2863
    162  N         -7.6730   23.5000  -51.4680 N.3   472  SER472     -0.1217
    163  CA        -6.5080   24.3870  -51.5650 C.3   472  SER472      0.1889
    164  C         -6.8310   25.8100  -51.9830 C.2   472  SER472      0.2288
    165  O         -5.9130   26.6000  -52.1440 O.2   472  SER472     -0.2866
    166  CB        -5.4800   23.8050  -52.5230 C.3   472  SER472      0.2089
    167  OG        -4.8220   22.7100  -51.9160 O.3   472  SER472     -0.2183
    168  N         -7.0770   33.7760  -56.1160 N.3   534  TYR534     -0.1241
    169  CA        -7.5120   33.9140  -54.7220 C.3   534  TYR534      0.1605
    170  C         -8.8820   34.6240  -54.5550 C.2   534  TYR534      0.2264
    171  O         -9.4070   34.7720  -53.4310 O.2   534  TYR534     -0.2867
    172  CB        -6.4360   34.6510  -53.9180 C.3   534  TYR534      0.0534
    173  CG        -5.0190   34.1590  -54.1570 C.ar  534  TYR534     -0.0201
    174  CD1       -4.6350   32.8600  -53.8190 C.ar  534  TYR534     -0.0009
    175  CD2       -4.0560   35.0040  -54.7050 C.ar  534  TYR534     -0.0009
    176  CE1       -3.3390   32.4190  -54.0320 C.ar  534  TYR534      0.0417
    177  CE2       -2.7640   34.5780  -54.9120 C.ar  534  TYR534      0.0417
    178  CZ        -2.4070   33.2890  -54.5770 C.ar  534  TYR534      0.1957
    179  OH        -1.1080   32.8870  -54.8150 O.3   534  TYR534     -0.2866
    180  N         -4.2600   20.5470  -41.8750 N.3   625  TYR625     -0.1241
    181  CA        -5.1980   21.6470  -41.8350 C.3   625  TYR625      0.1605
    182  C         -6.2800   21.4130  -42.8700 C.2   625  TYR625      0.2264
    183  O         -7.4380   21.8000  -42.6810 O.2   625  TYR625     -0.2867
    184  CB        -4.4950   22.9600  -42.1400 C.3   625  TYR625      0.0534
    185  CG        -3.3210   23.2250  -41.2370 C.ar  625  TYR625     -0.0201
    186  CD1       -3.3570   22.8550  -39.9040 C.ar  625  TYR625     -0.0009
    187  CD2       -2.1830   23.8450  -41.7110 C.ar  625  TYR625     -0.0009
    188  CE1       -2.2880   23.0980  -39.0670 C.ar  625  TYR625      0.0417
    189  CE2       -1.1030   24.0880  -40.8850 C.ar  625  TYR625      0.0417
    190  CZ        -1.1530   23.7120  -39.5620 C.ar  625  TYR625      0.1957
    191  OH        -0.0690   23.9620  -38.7380 O.3   625  TYR625     -0.2866
    192  N          4.3870   22.1380  -44.0210 N.3   679  VAL679     -0.1231
    193  CA         3.9900   23.1760  -44.9770 C.3   679  VAL679      0.1692
    194  C          5.0510   23.2810  -46.0810 C.2   679  VAL679      0.2591
    195  O          6.0630   22.5790  -46.0120 O.2   679  VAL679     -0.2718
    196  CB         3.7990   24.5530  -44.2950 C.3   679  VAL679      0.0266
    197  CG1        2.4620   24.6110  -43.5740 C.3   679  VAL679      0.0020
    198  CG2        4.9160   24.8370  -43.3010 C.3   679  VAL679      0.0020
    199  N          4.8070   24.1240  -47.0890 N.am  680  VAL680     -0.1980
    200  CA         5.7060   24.2720  -48.2330 C.3   680  VAL680      0.1595
    201  C          7.1410   24.5450  -47.7940 C.2   680  VAL680      0.2287
    202  O          7.3820   25.4990  -47.0680 O.2   680  VAL680     -0.2864
    203  CB         5.2630   25.4340  -49.1410 C.3   680  VAL680      0.0276
    204  CG1        6.3310   25.7400  -50.1820 C.3   680  VAL680      0.0022
    205  CG2        3.9580   25.0950  -49.8360 C.3   680  VAL680      0.0022
    206  N          8.8230   23.1520  -45.6200 N.3   682  ILE682     -0.1245
    207  CA         9.0310   22.9210  -44.1810 C.3   682  ILE682      0.1561
    208  C          8.4110   21.5940  -43.7900 C.2   682  ILE682      0.2260
    209  O          7.2330   21.4820  -43.5610 O.2   682  ILE682     -0.2867
    210  CB         8.4580   24.0310  -43.3010 C.3   682  ILE682      0.0252
    211  CG1        9.0420   25.3870  -43.7030 C.3   682  ILE682      0.0019
    212  CG2        8.7380   23.7270  -41.8320 C.3   682  ILE682      0.0019
    213  CD1        8.7600   26.4970  -42.7020 C.3   682  ILE682      0.0001
@<TRIPOS>BOND
     1   168   169    1
     2   177   175   ar
     3   177   178   ar
     4   179   178    1
     5   169   170    1
     6   169   172    1
     7   175   173   ar
     8   178   176   ar
     9   170   171    2
    10   173   172    1
    11   173   174   ar
    12   176   174   ar
    13    43    42    1
    14   110   109    2
    15    42    41    1
    16   166   167    1
    17   166   163    1
    18   114   113   ar
    19   112   113    1
    20   112   111    1
    21   165   164    2
    22   109   108    1
    23   108   111    1
    24   108   107    1
    25   164   163    1
    26   113   115   ar
    27    41    40    1
    28   163   162    1
    29   137   136    2
    30    40    39    1
    31   144   142    1
    32   141   142    2
    33   141   140    1
    34   142   143    1
    35   140   139    1
    36   138   139    1
    37   138   135    1
    38   127   126    1
    39   204   203    1
    40   136   135    1
    41   136   145   am
    42    35    36    1
    43   205   203    1
    44   135   134    1
    45    39    36    1
    46   146   145    1
    47   146   147    1
    48    36    37    1
    49   203   200    1
    50   126   124   ar
    51   126   125   ar
    52   124   122   ar
    53   147   148    2
    54   147   149   am
    55   134   130   am
    56   200   201    1
    57   200   199    1
    58   125   123   ar
    59   149   150    1
    60   131   130    2
    61    37    44   am
    62    37    38    2
    63   201   202    2
    64   157   155   am
    65   130   129    1
    66    44    45    1
    67   122   121   ar
    68   150   153    1
    69   150   151    1
    70   155   156    2
    71   155   154    1
    72   153   154    1
    73   199   194   am
    74   123   121   ar
    75   121   120    1
    76    52    50   am
    77   133   132    1
    78   194   195    2
    79   194   193    1
    80    49    50    1
    81    49    48    1
    82   129   128    1
    83   129   132    1
    84    45    48    1
    85    45    46    1
    86   151   152    2
    87   151   158   am
    88   206   207    1
    89    50    51    2
    90   128   118   am
    91    46    47    2
    92   158   159    1
    93   193   196    1
    94   193   192    1
    95   120   117    1
    96   118   117    1
    97   118   119    2
    98    82    79    1
    99   196   197    1
   100   196   198    1
   101    97    95    1
   102   207   208    1
   103   207   210    1
   104   160   159    1
   105   160   161    2
   106   117   116    1
   107    87    88    1
   108    87    85   am
   109    84    83    1
   110    84    85    1
   111   208   209    2
   112    81    80    2
   113   211   210    1
   114   211   213    1
   115    83    80   am
   116    80    79    1
   117    88    89    1
   118    96    95    1
   119   210   212    1
   120    85    86    2
   121    79    78    1
   122    91    89   am
   123    91    92    1
   124    95    92    1
   125   182   183    2
   126   182   181    1
   127    89    90    2
   128    23    21   ar
   129    23    22   ar
   130    92    93    1
   131   184   181    1
   132   184   185    1
   133    74    75    1
   134    74    71    1
   135    77    75   am
   136    21    19   ar
   137   180   181    1
   138    22    20   ar
   139   187   185   ar
   140   187   189   ar
   141    75    76    2
   142   185   186   ar
   143    71    72    1
   144    71    70    1
   145    93    98   am
   146    93    94    2
   147   189   190   ar
   148    19    17   ar
   149    19    18   ar
   150    34    32    1
   151    98    99    1
   152    20    17   ar
   153    72    73    2
   154    69    67   am
   155    17    15   ar
   156    66    67    1
   157    66    63    1
   158    18    16   ar
   159   186   188   ar
   160    67    68    2
   161   190   188   ar
   162   190   191    1
   163    32    33    1
   164    32    31    2
   165    65    64    2
   166    99   102    1
   167    99   100    1
   168   102   103    1
   169   105   104   ar
   170    16    15   ar
   171    15    14    1
   172    64    63    1
   173    63    62    1
   174    31    30    1
   175   101   100    2
   176   103   104    1
   177   104   106   ar
   178    62    55   am
   179    14    11    1
   180    61    59   am
   181    30    29    1
   182     9     7   am
   183    55    56    2
   184    55    54    1
   185    59    60    2
   186    59    58    1
   187    29    28    1
   188    11    12    1
   189    11    10    1
   190    57    58    1
   191    57    54    1
   192     7     8    2
   193     7     6    1
   194    54    53    1
   195    12    13    2
   196    12    24   am
   197     6     5    1
   198    24    25    1
   199    28    25    1
   200    25    26    1
   201     5     2    1
   202    26    27    2
   203     2     1    1
   204     2     3    1
   205     3     4    2
