@<TRIPOS>MOLECULE
tmp/5nc4A00.pdb
 213 205 0 0 0
SMALL
GASTEIGER

@<TRIPOS>ATOM
      1  N         -2.0130  182.5010  189.2400 N.3    43  GLN43      -0.1245
      2  CA        -2.3100  183.9260  189.2240 C.3    43  GLN43       0.1566
      3  C         -2.5270  184.4240  187.8150 C.2    43  GLN43       0.2260
      4  O         -1.8150  184.0420  186.8920 O.2    43  GLN43      -0.2867
      5  CB        -1.1520  184.6830  189.8960 C.3    43  GLN43       0.0367
      6  CG        -1.0330  184.2850  191.3680 C.3    43  GLN43       0.0905
      7  CD         0.0910  184.9590  192.1340 C.2    43  GLN43       0.2608
      8  OE1        0.8890  185.7080  191.5820 O.2    43  GLN43      -0.2717
      9  NE2        0.1180  184.7300  193.4360 N.am   43  GLN43      -0.0878
     10  N          6.0210  188.3900  191.7380 N.3    79  TRP79      -0.1227
     11  CA         6.8310  187.4740  192.5630 C.3    79  TRP79       0.1737
     12  C          6.8520  186.0700  191.9690 C.2    79  TRP79       0.2595
     13  O          7.9040  185.4320  191.8540 O.2    79  TRP79      -0.2718
     14  CB         6.2380  187.3970  193.9850 C.3    79  TRP79       0.0564
     15  CG         7.1710  186.8870  195.0720 C.ar   79  TRP79       0.0003
     16  CD1        7.9080  185.7240  195.0680 C.ar   79  TRP79       0.0946
     17  CD2        7.3470  187.4580  196.3710 C.ar   79  TRP79       0.0152
     18  NE1        8.5960  185.5930  196.2530 N.ar   79  TRP79      -0.2442
     19  CE2        8.2880  186.6550  197.0600 C.ar   79  TRP79       0.0810
     20  CE3        6.8350  188.5940  197.0000 C.ar   79  TRP79       0.0012
     21  CZ2        8.7100  186.9430  198.3520 C.ar   79  TRP79       0.0191
     22  CZ3        7.2960  188.9100  198.2580 C.ar   79  TRP79       0.0001
     23  CH2        8.2120  188.0760  198.9330 C.ar   79  TRP79       0.0015
     24  N          5.6820  185.6430  191.5020 N.am   80  ARG80      -0.1980
     25  CA         5.4500  184.2690  191.0690 C.3    80  ARG80       0.1597
     26  C          5.5220  184.1330  189.5620 C.2    80  ARG80       0.2287
     27  O          5.1100  183.0990  189.0430 O.2    80  ARG80      -0.2864
     28  CB         4.0530  183.8020  191.4860 C.3    80  ARG80       0.0334
     29  CG         3.6590  184.1380  192.8870 C.3    80  ARG80       0.0492
     30  CD         4.6140  183.4170  193.7980 C.3    80  ARG80       0.2205
     31  NE         4.6100  183.9540  195.1440 N.pl3  80  ARG80      -0.0865
     32  CZ         5.4610  183.5350  196.0600 C.cat  80  ARG80       0.5346
     33  NH1        6.2990  182.5640  195.7180 N.pl3  80  ARG80       0.1354
     34  NH2        5.4730  184.0730  197.2820 N.pl3  80  ARG80       0.1354
     35  N        -12.5360  186.8300  206.4900 N.3   194  LYS194     -0.1231
     36  CA       -12.6220  188.0490  205.7140 C.3   194  LYS194      0.1693
     37  C        -12.5330  187.8010  204.2240 C.2   194  LYS194      0.2591
     38  O        -13.0990  188.5770  203.4620 O.2   194  LYS194     -0.2718
     39  CB       -11.5870  189.0650  206.1820 C.3   194  LYS194      0.0285
     40  CG       -12.1580  189.9440  207.2860 C.3   194  LYS194      0.0035
     41  CD       -11.2750  190.0490  208.5170 C.3   194  LYS194      0.0206
     42  CE       -12.1310  190.1520  209.7660 C.3   194  LYS194      0.1093
     43  NZ       -11.3360  190.7630  210.8590 N.3   194  LYS194     -0.1314
     44  N        -12.0490  186.6290  203.8140 N.am  195  GLN195     -0.1979
     45  CA       -12.0350  186.3080  202.3890 C.3   195  GLN195      0.1601
     46  C        -13.3160  185.6230  201.9100 C.2   195  GLN195      0.2287
     47  O        -13.4480  185.2810  200.7350 O.2   195  GLN195     -0.2864
     48  CB       -10.7830  185.5020  202.0330 C.3   195  GLN195      0.0394
     49  CG        -9.4760  186.2900  202.1460 C.3   195  GLN195      0.0908
     50  CD        -9.6000  187.7810  201.8060 C.2   195  GLN195      0.2608
     51  OE1      -10.3510  188.1940  200.8950 O.2   195  GLN195     -0.2717
     52  NE2       -8.8130  188.5990  202.5130 N.am  195  GLN195     -0.0878
     53  N         -4.6740  189.5010  191.7190 N.3   243  GLN243     -0.1231
     54  CA        -3.6210  188.4970  191.7630 C.3   243  GLN243      0.1698
     55  C         -3.9690  187.3300  192.6820 C.2   243  GLN243      0.2592
     56  O         -3.8070  186.1760  192.2890 O.2   243  GLN243     -0.2718
     57  CB        -2.2840  189.0840  192.1570 C.3   243  GLN243      0.0381
     58  CG        -1.1990  188.0220  192.2830 C.3   243  GLN243      0.0905
     59  CD         0.0720  188.5310  192.9310 C.2   243  GLN243      0.2608
     60  OE1        0.8010  189.3140  192.3290 O.2   243  GLN243     -0.2717
     61  NE2        0.3870  188.0190  194.1290 N.am  243  GLN243     -0.0878
     62  N         -4.4470  187.6030  193.8850 N.am  244  ASN244     -0.1974
     63  CA        -4.7050  186.5180  194.8130 C.3   244  ASN244      0.1688
     64  C         -6.1550  186.1210  194.9600 C.2   244  ASN244      0.2292
     65  O         -6.4630  185.3330  195.8540 O.2   244  ASN244     -0.2864
     66  CB        -4.1270  186.8900  196.1660 C.3   244  ASN244      0.1181
     67  CG        -2.7090  187.3960  196.0430 C.2   244  ASN244      0.2629
     68  OD1       -1.8270  186.6620  195.5980 O.2   244  ASN244     -0.2716
     69  ND2       -2.5290  188.6900  196.2280 N.am  244  ASN244     -0.0877
     70  N         -8.5320  187.8480  196.1550 N.3   246  ASN246     -0.1240
     71  CA        -9.1520  188.6060  197.2430 C.3   246  ASN246      0.1653
     72  C         -9.8070  189.8210  196.6210 C.2   246  ASN246      0.2266
     73  O         -9.5330  190.1280  195.4590 O.2   246  ASN246     -0.2867
     74  CB        -8.0830  189.0360  198.2560 C.3   246  ASN246      0.1155
     75  CG        -6.9410  189.8260  197.6110 C.2   246  ASN246      0.2627
     76  OD1       -6.2540  189.3570  196.6850 O.2   246  ASN246     -0.2716
     77  ND2       -6.7640  191.0430  198.0640 N.am  246  ASN246     -0.0877
     78  N          2.4860  194.1870  198.2140 N.3   299  ALA299     -0.1231
     79  CA         2.8330  193.4910  199.4680 C.3   299  ALA299      0.1694
     80  C          1.8800  192.3510  199.7910 C.2   299  ALA299      0.2593
     81  O          0.6980  192.5680  200.0260 O.2   299  ALA299     -0.2718
     82  CB         2.8930  194.4720  200.6270 C.3   299  ALA299      0.0304
     83  N          2.4110  191.1290  199.7930 N.am  300  GLY300     -0.1942
     84  CA         1.6840  189.9810  200.3100 C.3   300  GLY300      0.2014
     85  C          0.4170  189.7000  199.5460 C.2   300  GLY300      0.2639
     86  O          0.3990  189.6630  198.3090 O.2   300  GLY300     -0.2714
     87  N         -0.6680  189.5390  200.2940 N.am  301  GLY301     -0.1939
     88  CA        -1.9890  189.5140  199.6740 C.3   301  GLY301      0.2014
     89  C         -2.3740  190.7460  198.8640 C.2   301  GLY301      0.2640
     90  O         -3.2150  190.6570  197.9800 O.2   301  GLY301     -0.2714
     91  N         -1.8390  191.9170  199.2090 N.am  302  THR302     -0.1936
     92  CA        -2.1910  193.1400  198.4660 C.3   302  THR302      0.2028
     93  C         -1.4720  193.2600  197.1320 C.2   302  THR302      0.2642
     94  O         -1.9320  193.9880  196.2390 O.2   302  THR302     -0.2714
     95  CB        -1.9410  194.4600  199.2080 C.3   302  THR302      0.1808
     96  OG1       -0.5490  194.5800  199.4990 O.3   302  THR302     -0.2208
     97  CG2       -2.7740  194.5550  200.4610 C.3   302  THR302      0.0379
     98  N         -0.5200  192.3840  196.8760 N.am  303  GLU303     -0.1976
     99  CA         0.0940  192.3410  195.5610 C.3   303  GLU303      0.1602
    100  C         -1.0140  192.0960  194.5170 C.2   303  GLU303      0.2287
    101  O         -1.7980  191.1460  194.6070 O.2   303  GLU303     -0.2864
    102  CB         1.1580  191.2290  195.5110 C.3   303  GLU303      0.0415
    103  CG         2.1410  191.3140  194.3500 C.3   303  GLU303      0.1163
    104  CD         2.9970  190.0680  194.2300 C.2   303  GLU303      0.3649
    105  OE1        2.9450  189.2040  195.1640 O.co2 303  GLU303     -0.2457
    106  OE2        3.6580  189.9360  193.1690 O.co2 303  GLU303     -0.2457
    107  N          7.8920  198.6050  207.5600 N.3   362  GLU362     -0.1245
    108  CA         7.3730  197.5030  208.3550 C.3   362  GLU362      0.1567
    109  C          8.3790  196.3630  208.4950 C.2   362  GLU362      0.2260
    110  O          8.6030  195.8740  209.5900 O.2   362  GLU362     -0.2867
    111  CB         6.0480  196.9920  207.8240 C.3   362  GLU362      0.0388
    112  CG         5.4180  195.9510  208.7350 C.3   362  GLU362      0.1160
    113  CD         4.0330  195.5040  208.2750 C.2   362  GLU362      0.3649
    114  OE1        3.0340  196.1330  208.7060 O.co2 362  GLU362     -0.2457
    115  OE2        3.9470  194.4800  207.5490 O.co2 362  GLU362     -0.2457
    116  N          7.0930  192.6590  199.1710 N.3   454  TYR454     -0.1227
    117  CA         7.1090  192.3730  200.5940 C.3   454  TYR454      0.1736
    118  C          5.9920  191.4150  200.9650 C.2   454  TYR454      0.2596
    119  O          4.9220  191.4110  200.3690 O.2   454  TYR454     -0.2718
    120  CB         6.9940  193.6830  201.3790 C.3   454  TYR454      0.0548
    121  CG         6.7590  193.5270  202.8640 C.ar  454  TYR454     -0.0200
    122  CD1        7.6880  192.8880  203.6780 C.ar  454  TYR454     -0.0009
    123  CD2        5.6240  194.0710  203.4550 C.ar  454  TYR454     -0.0009
    124  CE1        7.4600  192.7610  205.0340 C.ar  454  TYR454      0.0417
    125  CE2        5.3950  193.9680  204.8090 C.ar  454  TYR454      0.0417
    126  CZ         6.3070  193.3090  205.5970 C.ar  454  TYR454      0.1957
    127  OH         6.0270  193.1880  206.9380 O.3   454  TYR454     -0.2866
    128  N          6.2790  190.5470  201.9110 N.am  455  SER455     -0.1938
    129  CA         5.2580  189.6910  202.4770 C.3   455  SER455      0.2055
    130  C          5.5310  189.5480  203.9450 C.2   455  SER455      0.2643
    131  O          6.6910  189.5020  204.3500 O.2   455  SER455     -0.2714
    132  CB         5.3010  188.3050  201.8350 C.3   455  SER455      0.2130
    133  OG         4.4930  187.3920  202.5600 O.3   455  SER455     -0.2179
    134  N          4.4530  189.4280  204.7100 N.am  456  ARG456     -0.1963
    135  CA         4.5240  189.2240  206.1420 C.3   456  ARG456      0.1729
    136  C          4.8120  187.7840  206.5220 C.2   456  ARG456      0.2617
    137  O          4.8610  187.4550  207.7150 O.2   456  ARG456     -0.2715
    138  CB         3.1560  189.5570  206.7230 C.3   456  ARG456      0.0348
    139  CG         2.9070  191.0390  206.8780 C.3   456  ARG456      0.0492
    140  CD         1.5260  191.2970  207.4510 C.3   456  ARG456      0.2205
    141  NE         1.5080  192.4850  208.3030 N.pl3 456  ARG456     -0.0865
    142  CZ         0.6520  193.4990  208.1900 C.cat 456  ARG456      0.5346
    143  NH1       -0.2760  193.5210  207.2380 N.pl3 456  ARG456      0.1354
    144  NH2        0.7430  194.5150  209.0340 N.pl3 456  ARG456      0.1354
    145  N          4.8450  186.8910  205.5370 N.am  457  GLY457     -0.1940
    146  CA         5.1670  185.4940  205.8500 C.3   457  GLY457      0.2014
    147  C          4.6250  184.5490  204.8210 C.2   457  GLY457      0.2639
    148  O          5.3310  183.6760  204.3360 O.2   457  GLY457     -0.2714
    149  N          3.4010  184.8100  204.3840 N.am  458  GLN458     -0.1963
    150  CA         2.6460  183.8090  203.6260 C.3   458  GLN458      0.1733
    151  C          3.3110  183.4800  202.2820 C.2   458  GLN458      0.2616
    152  O          3.1220  182.3880  201.7520 O.2   458  GLN458     -0.2715
    153  CB         1.2190  184.3000  203.4170 C.3   458  GLN458      0.0408
    154  CG         0.2070  183.2160  203.1160 C.3   458  GLN458      0.0908
    155  CD        -1.0360  183.3310  203.9750 C.2   458  GLN458      0.2608
    156  OE1       -1.3900  182.3880  204.6700 O.2   458  GLN458     -0.2717
    157  NE2       -1.7110  184.4750  203.9200 N.am  458  GLN458     -0.0878
    158  N          4.1400  184.3960  201.7840 N.am  459  GLY459     -0.1955
    159  CA         4.7580  184.2510  200.4630 C.3   459  GLY459      0.1869
    160  C          6.2640  184.0180  200.4870 C.2   459  GLY459      0.2309
    161  O          6.9400  184.1110  199.4650 O.2   459  GLY459     -0.2863
    162  N          7.8820  181.5070  207.9910 N.3   464  SER464     -0.1217
    163  CA         6.6590  182.3260  208.1020 C.3   464  SER464      0.1889
    164  C          6.9450  183.7920  208.4240 C.2   464  SER464      0.2288
    165  O          6.0210  184.6070  208.5330 O.2   464  SER464     -0.2866
    166  CB         5.7800  181.7690  209.2060 C.3   464  SER464      0.2089
    167  OG         5.5280  180.4090  208.9570 O.3   464  SER464     -0.2183
    168  N          7.1480  191.6420  212.6020 N.3   526  TYR526     -0.1241
    169  CA         7.6430  191.7560  211.2210 C.3   526  TYR526      0.1605
    170  C          9.0100  192.4260  211.0470 C.2   526  TYR526      0.2264
    171  O          9.5510  192.4630  209.9270 O.2   526  TYR526     -0.2867
    172  CB         6.6210  192.4880  210.3480 C.3   526  TYR526      0.0534
    173  CG         5.2240  191.9600  210.5220 C.ar  526  TYR526     -0.0201
    174  CD1        4.9580  190.6090  210.3530 C.ar  526  TYR526     -0.0009
    175  CD2        4.1870  192.7940  210.9370 C.ar  526  TYR526     -0.0009
    176  CE1        3.6930  190.0990  210.5800 C.ar  526  TYR526      0.0417
    177  CE2        2.9220  192.2910  211.1850 C.ar  526  TYR526      0.0417
    178  CZ         2.6850  190.9430  211.0090 C.ar  526  TYR526      0.1957
    179  OH         1.4350  190.4250  211.2210 O.3   526  TYR526     -0.2866
    180  N          4.1840  178.4700  198.5370 N.3   617  TYR617     -0.1241
    181  CA         5.1780  179.5050  198.4260 C.3   617  TYR617      0.1605
    182  C          6.2140  179.3380  199.5360 C.2   617  TYR617      0.2264
    183  O          7.2380  180.0080  199.5260 O.2   617  TYR617     -0.2867
    184  CB         4.5350  180.8970  198.5020 C.3   617  TYR617      0.0534
    185  CG         3.3580  181.1430  197.5500 C.ar  617  TYR617     -0.0201
    186  CD1        3.4660  180.8930  196.1770 C.ar  617  TYR617     -0.0009
    187  CD2        2.1840  181.7600  198.0040 C.ar  617  TYR617     -0.0009
    188  CE1        2.3940  181.1390  195.3140 C.ar  617  TYR617      0.0417
    189  CE2        1.1370  182.0480  197.1390 C.ar  617  TYR617      0.0417
    190  CZ         1.2220  181.7130  195.8000 C.ar  617  TYR617      0.1957
    191  OH         0.1220  181.9320  194.9700 O.3   617  TYR617     -0.2866
    192  N         -4.2830  180.0180  200.6990 N.3   671  VAL671     -0.1231
    193  CA        -3.8610  180.9420  201.7570 C.3   671  VAL671      0.1692
    194  C         -4.9520  181.0460  202.8350 C.2   671  VAL671      0.2591
    195  O         -6.0620  180.5380  202.6120 O.2   671  VAL671     -0.2718
    196  CB        -3.6190  182.3430  201.1670 C.3   671  VAL671      0.0266
    197  CG1       -2.4730  182.2820  200.1730 C.3   671  VAL671      0.0020
    198  CG2       -4.8930  182.8870  200.5170 C.3   671  VAL671      0.0020
    199  N         -4.6930  181.8100  203.8980 N.am  672  VAL672     -0.1980
    200  CA        -5.6900  182.0750  204.9440 C.3   672  VAL672      0.1595
    201  C         -7.0200  182.6040  204.3820 C.2   672  VAL672      0.2287
    202  O         -7.0580  183.7080  203.8350 O.2   672  VAL672     -0.2864
    203  CB        -5.1800  183.1050  205.9750 C.3   672  VAL672      0.0276
    204  CG1       -6.3150  183.5390  206.8890 C.3   672  VAL672      0.0022
    205  CG2       -4.0470  182.5180  206.8070 C.3   672  VAL672      0.0022
    206  N         -8.6380  181.5070  201.8110 N.3   674  ILE674     -0.1245
    207  CA        -8.8150  181.1480  200.3940 C.3   674  ILE674      0.1561
    208  C         -8.1940  179.7970  200.0750 C.2   674  ILE674      0.2260
    209  O         -6.9980  179.6840  199.8000 O.2   674  ILE674     -0.2867
    210  CB        -8.2890  182.2230  199.4210 C.3   674  ILE674      0.0252
    211  CG1       -9.0460  183.5410  199.6150 C.3   674  ILE674      0.0019
    212  CG2       -8.4370  181.7500  197.9780 C.3   674  ILE674      0.0019
    213  CD1       -8.2820  184.7430  199.1050 C.3   674  ILE674      0.0001
@<TRIPOS>BOND
     1     4     3    2
     2     3     2    1
     3    27    26    2
     4     2     1    1
     5     2     5    1
     6    26    25    1
     7     5     6    1
     8    25    28    1
     9    25    24    1
    10     6     7    1
    11    28    29    1
    12    24    12   am
    13     8     7    2
    14    53    54    1
    15    10    11    1
    16    54    57    1
    17    54    55    1
    18    13    12    2
    19    12    11    1
    20     7     9   am
    21    57    58    1
    22    58    59    1
    23    56    55    2
    24    60    59    2
    25    11    14    1
    26    55    62   am
    27    29    30    1
    28    59    61   am
    29   106   104   ar
    30    30    31    1
    31    62    63    1
    32    14    15    1
    33   104   103    1
    34   104   105   ar
    35   103   102    1
    36   100   101    2
    37   100    99    1
    38    63    64    1
    39    63    66    1
    40    64    65    2
    41   191   190    1
    42    16    15   ar
    43    16    18   ar
    44    15    17   ar
    45    31    32    2
    46   188   190   ar
    47   188   186   ar
    48    73    72    2
    49   102    99    1
    50    99    98    1
    51    68    67    2
    52    33    32    1
    53   190   189   ar
    54    67    66    1
    55    67    69   am
    56    32    34    1
    57    70    71    1
    58   186   185   ar
    59    94    93    2
    60    18    19   ar
    61    17    20   ar
    62    17    19   ar
    63    72    71    1
    64    76    75    2
    65    98    93   am
    66    20    22   ar
    67    19    21   ar
    68    93    92    1
    69   189   187   ar
    70    71    74    1
    71   185   187   ar
    72   185   184    1
    73    75    77   am
    74    75    74    1
    75   212   210    1
    76    90    89    2
    77    78    79    1
    78    22    23   ar
    79    86    85    2
    80    21    23   ar
    81   181   184    1
    82   181   180    1
    83   181   182    1
    84    92    95    1
    85    92    91    1
    86    89    91   am
    87    89    88    1
    88   213   211    1
    89   116   117    1
    90    95    96    1
    91    95    97    1
    92   210   211    1
    93   210   207    1
    94   161   160    2
    95    79    80    1
    96    79    82    1
    97   183   182    2
    98    85    87   am
    99    85    84    1
   100    88    87    1
   101    80    83   am
   102    80    81    2
   103    83    84    1
   104   209   208    2
   105   208   207    1
   106   197   196    1
   107   119   118    2
   108   207   206    1
   109   159   160    1
   110   159   158    1
   111   198   196    1
   112   117   118    1
   113   117   120    1
   114   192   193    1
   115    47    46    2
   116    51    50    2
   117   118   128   am
   118   196   193    1
   119   120   121    1
   120   152   151    2
   121   193   194    1
   122   158   151   am
   123    50    49    1
   124    50    52   am
   125   132   129    1
   126   132   133    1
   127    46    45    1
   128   128   129    1
   129    48    49    1
   130    48    45    1
   131   151   150    1
   132    45    44    1
   133   129   130    1
   134   195   194    2
   135   194   199   am
   136   121   123   ar
   137   121   122   ar
   138   154   153    1
   139   154   155    1
   140   153   150    1
   141   123   125   ar
   142    38    37    2
   143   150   149    1
   144   122   124   ar
   145    44    37   am
   146   202   201    2
   147   199   200    1
   148   157   155   am
   149   130   131    2
   150   130   134   am
   151   155   156    2
   152    37    36    1
   153   148   147    2
   154   201   200    1
   155   149   147   am
   156   134   135    1
   157   125   126   ar
   158   147   146    1
   159   200   203    1
   160   124   126   ar
   161   145   146    1
   162   145   136   am
   163   126   127    1
   164    36    39    1
   165    36    35    1
   166   203   205    1
   167   203   204    1
   168   135   136    1
   169   135   138    1
   170    39    40    1
   171   136   137    2
   172   138   139    1
   173   139   140    1
   174   143   142    1
   175    40    41    1
   176   140   141    1
   177   115   113   ar
   178   107   108    1
   179   111   108    1
   180   111   112    1
   181   162   163    1
   182   163   164    1
   183   163   166    1
   184   142   141    2
   185   142   144    1
   186   113   114   ar
   187   113   112    1
   188   108   109    1
   189   164   165    2
   190   109   110    2
   191    41    42    1
   192   167   166    1
   193    42    43    1
   194   171   170    2
   195   172   173    1
   196   172   169    1
   197   174   173   ar
   198   174   176   ar
   199   173   175   ar
   200   176   178   ar
   201   175   177   ar
   202   178   177   ar
   203   178   179    1
   204   170   169    1
   205   169   168    1
