@<TRIPOS>MOLECULE
tmp/5nc6D00.pdb
 150 150 0 0 0
SMALL
GASTEIGER

@<TRIPOS>ATOM
      1  N         17.0570   30.2650  104.0690 N.3     9  ASP9       -0.1225
      2  CA        15.6470   30.0970  104.3460 C.3     9  ASP9        0.1805
      3  C         15.2280   30.8560  105.5990 C.2     9  ASP9        0.2597
      4  O         16.0320   31.1330  106.5010 O.2     9  ASP9       -0.2718
      5  CB        15.3240   28.6160  104.4940 C.3     9  ASP9        0.1424
      6  CG        15.2040   27.8920  103.1560 C.2     9  ASP9        0.3668
      7  OD1       15.6380   28.3970  102.0920 O.co2   9  ASP9       -0.2456
      8  OD2       14.6510   26.7890  103.1780 O.co2   9  ASP9       -0.2456
      9  N         13.9420   31.2010  105.6210 N.am   10  ASP10      -0.1974
     10  CA        13.2180   31.8650  106.7110 C.3    10  ASP10       0.1709
     11  C         13.4930   33.3630  106.8750 C.2    10  ASP10       0.2293
     12  O         13.0270   33.9300  107.8570 O.2    10  ASP10      -0.2864
     13  CB        13.4840   31.1870  108.0560 C.3    10  ASP10       0.1436
     14  CG        13.0640   29.7380  108.0850 C.2    10  ASP10       0.3671
     15  OD1       12.5160   29.2330  107.0840 O.co2  10  ASP10      -0.2456
     16  OD2       13.3140   29.0860  109.1160 O.co2  10  ASP10      -0.2456
     17  N          8.8530   31.1010  100.7420 N.3    59  HIS59      -0.1241
     18  CA         8.9610   30.0310  101.7240 C.3    59  HIS59       0.1621
     19  C          7.7620   30.1220  102.6550 C.2    59  HIS59       0.2264
     20  O          7.8610   29.8620  103.8540 O.2    59  HIS59      -0.2867
     21  CB        10.3300   30.0910  102.4200 C.3    59  HIS59       0.0745
     22  CG        10.6410   28.9910  103.4090 C.ar   59  HIS59       0.0817
     23  ND1       11.9010   28.8820  103.9630 N.ar   59  HIS59      -0.2268
     24  CD2        9.8870   28.0340  104.0030 C.ar   59  HIS59       0.1154
     25  CE1       11.9160   27.8890  104.8240 C.ar   59  HIS59       0.1986
     26  NE2       10.7000   27.3890  104.9110 N.ar   59  HIS59      -0.2212
     27  N          4.5200   29.3380  107.7230 N.3    63  HIS63      -0.1241
     28  CA         5.5550   28.3470  108.0220 C.3    63  HIS63       0.1621
     29  C          5.0290   27.2850  108.9790 C.2    63  HIS63       0.2264
     30  O          5.7690   26.7440  109.8030 O.2    63  HIS63      -0.2867
     31  CB         6.8070   29.0010  108.5780 C.3    63  HIS63       0.0745
     32  CG         8.0430   28.1760  108.4170 C.ar   63  HIS63       0.0817
     33  ND1        9.1770   28.6890  107.8180 N.ar   63  HIS63      -0.2268
     34  CD2        8.3550   26.9180  108.8100 C.ar   63  HIS63       0.1154
     35  CE1       10.1270   27.7760  107.8240 C.ar   63  HIS63       0.1986
     36  NE2        9.6550   26.6930  108.4150 N.ar   63  HIS63      -0.2212
     37  N          9.6440   24.4890  100.3790 N.3    98  PRO98      -0.2103
     38  CA         8.6360   24.0910  101.3690 C.3    98  PRO98       0.1489
     39  C          9.2050   24.1730  102.7720 C.2    98  PRO98       0.2418
     40  O         10.3400   23.7410  103.0190 O.2    98  PRO98      -0.2734
     41  CB         8.3020   22.6450  100.9770 C.3    98  PRO98       0.0282
     42  CG         8.9370   22.4540   99.5840 C.3    98  PRO98       0.0208
     43  CD        10.1110   23.3670   99.5510 C.3    98  PRO98       0.0893
     44  N          8.4920   24.8000  103.7010 N.am   99  PRO99      -0.2718
     45  CA         8.8560   24.6450  105.1070 C.3    99  PRO99       0.1535
     46  C          8.9480   23.1690  105.4420 C.2    99  PRO99       0.2599
     47  O          8.0830   22.3660  105.0820 O.2    99  PRO99      -0.2715
     48  CB         7.7050   25.3210  105.8490 C.3    99  PRO99       0.0310
     49  CG         7.2110   26.3020  104.9050 C.3    99  PRO99       0.0237
     50  CD         7.3830   25.7510  103.5320 C.3    99  PRO99       0.0939
     51  N         10.0280   22.8100  106.1150 N.am  100  TYR100     -0.1960
     52  CA        10.3070   21.4230  106.4530 C.3   100  TYR100      0.1771
     53  C         10.3890   20.5210  105.2320 C.2   100  TYR100      0.2620
     54  O         10.2070   19.2940  105.3480 O.2   100  TYR100     -0.2715
     55  CB         9.2790   20.8670  107.4430 C.3   100  TYR100      0.0574
     56  CG         8.7620   21.8530  108.4400 C.ar  100  TYR100     -0.0198
     57  CD1        9.6220   22.4180  109.3790 C.ar  100  TYR100     -0.0009
     58  CD2        7.4190   22.1580  108.5080 C.ar  100  TYR100     -0.0009
     59  CE1        9.1530   23.2950  110.3380 C.ar  100  TYR100      0.0417
     60  CE2        6.9330   23.0350  109.4690 C.ar  100  TYR100      0.0417
     61  CZ         7.8120   23.5990  110.3920 C.ar  100  TYR100      0.1957
     62  OH         7.3340   24.4710  111.3550 O.3   100  TYR100     -0.2866
     63  N         10.6800   21.1010  104.0670 N.am  101  GLY101     -0.1954
     64  CA        10.9340   20.3430  102.8570 C.3   101  GLY101      0.1869
     65  C          9.6690   19.7660  102.2530 C.2   101  GLY101      0.2309
     66  O          8.6140   19.7150  102.8890 O.2   101  GLY101     -0.2863
     67  N         16.6420   20.4590   98.6390 N.3   124  TRP124     -0.1241
     68  CA        18.0810   20.6760   98.6650 C.3   124  TRP124      0.1605
     69  C         18.7870   19.3330   98.7040 C.2   124  TRP124      0.2264
     70  O         18.1750   18.3000   98.9890 O.2   124  TRP124     -0.2867
     71  CB        18.4840   21.5050   99.8790 C.3   124  TRP124      0.0550
     72  CG        18.0640   20.8060  101.0840 C.ar  124  TRP124      0.0003
     73  CD1       18.7960   19.9070  101.7900 C.ar  124  TRP124      0.0946
     74  CD2       16.7790   20.8860  101.7190 C.ar  124  TRP124      0.0152
     75  NE1       18.0530   19.4250  102.8380 N.ar  124  TRP124     -0.2442
     76  CE2       16.8100   20.0030  102.8190 C.ar  124  TRP124      0.0810
     77  CE3       15.6170   21.6320  101.4790 C.ar  124  TRP124      0.0012
     78  CZ2       15.7260   19.8440  103.6860 C.ar  124  TRP124      0.0191
     79  CZ3       14.5340   21.4690  102.3360 C.ar  124  TRP124      0.0001
     80  CH2       14.5970   20.5740  103.4290 C.ar  124  TRP124      0.0015
     81  N         22.3000   19.6210  103.6450 N.3   127  ASP127     -0.1239
     82  CA        21.6190   20.2850  104.7390 C.3   127  ASP127      0.1674
     83  C         22.7300   20.6450  105.7130 C.2   127  ASP127      0.2266
     84  O         23.2100   19.7890  106.4610 O.2   127  ASP127     -0.2867
     85  CB        20.5550   19.3890  105.3750 C.3   127  ASP127      0.1410
     86  CG        19.9780   19.9460  106.6780 C.2   127  ASP127      0.3668
     87  OD1       20.4000   21.0370  107.1730 O.co2 127  ASP127     -0.2456
     88  OD2       19.0370   19.2820  107.1840 O.co2 127  ASP127     -0.2456
     89  N         22.5900   21.9520  108.3700 N.3   129  LEU129     -0.1245
     90  CA        22.1440   21.7620  109.7490 C.3   129  LEU129      0.1561
     91  C         22.4470   22.9860  110.6070 C.2   129  LEU129      0.2260
     92  O         22.5710   22.8890  111.8350 O.2   129  LEU129     -0.2867
     93  CB        22.7590   20.5030  110.3790 C.3   129  LEU129      0.0270
     94  CG        22.3290   19.1810  109.7740 C.3   129  LEU129      0.0019
     95  CD1       23.2120   18.0770  110.3010 C.3   129  LEU129      0.0001
     96  CD2       20.8940   18.9280  110.1260 C.3   129  LEU129      0.0001
     97  N         20.9040   25.5310  111.8430 N.3   131  TRP131     -0.1227
     98  CA        20.1060   26.0220  112.9540 C.3   131  TRP131      0.1737
     99  C         20.1810   25.1350  114.1710 C.2   131  TRP131      0.2595
    100  O         19.5970   25.4820  115.2010 O.2   131  TRP131     -0.2718
    101  CB        18.6350   26.1400  112.5720 C.3   131  TRP131      0.0564
    102  CG        18.0520   24.8180  112.2880 C.ar  131  TRP131      0.0003
    103  CD1       18.0150   24.2170  111.0870 C.ar  131  TRP131      0.0946
    104  CD2       17.4450   23.9040  113.2190 C.ar  131  TRP131      0.0152
    105  NE1       17.4350   22.9980  111.1970 N.ar  131  TRP131     -0.2442
    106  CE2       17.0700   22.7700  112.4880 C.ar  131  TRP131      0.0810
    107  CE3       17.1910   23.9330  114.5870 C.ar  131  TRP131      0.0012
    108  CZ2       16.4320   21.6780  113.0590 C.ar  131  TRP131      0.0191
    109  CZ3       16.5720   22.8330  115.1640 C.ar  131  TRP131      0.0001
    110  CH2       16.1970   21.7240  114.3950 C.ar  131  TRP131      0.0015
    111  N         20.8200   23.9870  114.0700 N.am  132  ARG132     -0.1980
    112  CA        20.9070   23.0980  115.2070 C.3   132  ARG132      0.1597
    113  C         22.1170   23.4320  116.0860 C.2   132  ARG132      0.2287
    114  O         22.2820   22.8430  117.1640 O.2   132  ARG132     -0.2864
    115  CB        20.9200   21.6450  114.7000 C.3   132  ARG132      0.0334
    116  CG        19.5460   21.0200  114.5540 C.3   132  ARG132      0.0492
    117  CD        19.5280   19.7200  113.6830 C.3   132  ARG132      0.2205
    118  NE        18.1840   19.0990  113.6110 N.pl3 132  ARG132     -0.0865
    119  CZ        17.5090   18.7640  112.4970 C.cat 132  ARG132      0.5346
    120  NH1       18.0080   18.9600  111.2800 N.pl3 132  ARG132      0.1354
    121  NH2       16.3020   18.2250  112.6070 N.pl3 132  ARG132      0.1354
    122  N         21.3660   23.9860  102.0130 N.3   161  LEU161     -0.1245
    123  CA        20.3380   24.5390  102.8900 C.3   161  LEU161      0.1561
    124  C         20.9750   25.3500  104.0140 C.2   161  LEU161      0.2260
    125  O         21.7540   24.8040  104.8020 O.2   161  LEU161     -0.2867
    126  CB        19.5050   23.3960  103.4530 C.3   161  LEU161      0.0270
    127  CG        18.3860   23.7920  104.4130 C.3   161  LEU161      0.0019
    128  CD1       17.3810   24.6400  103.6990 C.3   161  LEU161      0.0001
    129  CD2       17.7130   22.5850  105.0940 C.3   161  LEU161      0.0001
    130  N         20.0760   29.0750  106.7700 N.3   163  HIS163     -0.1241
    131  CA        19.1280   30.0340  107.3350 C.3   163  HIS163      0.1621
    132  C         19.8930   31.2960  107.7020 C.2   163  HIS163      0.2264
    133  O         20.8880   31.2290  108.4300 O.2   163  HIS163     -0.2867
    134  CB        18.4340   29.4570  108.5670 C.3   163  HIS163      0.0745
    135  CG        17.8480   28.1120  108.3230 C.ar  163  HIS163      0.0817
    136  ND1       18.6270   26.9810  108.2070 N.ar  163  HIS163     -0.2268
    137  CD2       16.5690   27.7170  108.1280 C.ar  163  HIS163      0.1154
    138  CE1       17.8490   25.9410  107.9610 C.ar  163  HIS163      0.1986
    139  NE2       16.5960   26.3610  107.9100 N.ar  163  HIS163     -0.2212
    140  N         12.4470   16.2110   96.7590 N.3   200  PHE200     -0.1241
    141  CA        12.5430   14.9030   97.3900 C.3   200  PHE200      0.1605
    142  C         11.6130   13.8790   96.7520 C.2   200  PHE200      0.2264
    143  O         11.8160   12.6750   96.9400 O.2   200  PHE200     -0.2867
    144  CB        12.2160   15.0270   98.8620 C.3   200  PHE200      0.0534
    145  CG        13.2080   15.8260   99.6550 C.ar  200  PHE200     -0.0203
    146  CD1       14.5460   15.8660   99.2940 C.ar  200  PHE200     -0.0042
    147  CD2       12.8020   16.5140  100.7990 C.ar  200  PHE200     -0.0042
    148  CE1       15.4710   16.6030  100.0590 C.ar  200  PHE200     -0.0003
    149  CE2       13.7180   17.2480  101.5600 C.ar  200  PHE200     -0.0003
    150  CZ        15.0510   17.2910  101.1940 C.ar  200  PHE200     -0.0000
@<TRIPOS>BOND
     1   142   143    2
     2   142   141    1
     3   140   141    1
     4   141   144    1
     5    67    68    1
     6    68    69    1
     7    68    71    1
     8    69    70    2
     9   144   145    1
    10   146   145   ar
    11   146   148   ar
    12    43    42    1
    13    43    37    1
    14    42    41    1
    15   145   147   ar
    16    71    72    1
    17   148   150   ar
    18    37    38    1
    19    17    18    1
    20   147   149   ar
    21    41    38    1
    22    72    74   ar
    23    72    73   ar
    24   150   149   ar
    25    38    39    1
    26    77    74   ar
    27    77    79   ar
    28    74    76   ar
    29    18    21    1
    30    18    19    1
    31    73    75   ar
    32   122   123    1
    33     7     6   ar
    34    65    64    1
    35    65    66    2
    36    79    80   ar
    37    21    22    1
    38    19    20    2
    39    39    40    2
    40    39    44   am
    41    76    75   ar
    42    76    78   ar
    43    64    63    1
    44   123   126    1
    45   123   124    1
    46     6     8   ar
    47     6     5    1
    48    22    23   ar
    49    22    24   ar
    50    80    78   ar
    51   126   127    1
    52    50    44    1
    53    50    49    1
    54    81    82    1
    55   128   127    1
    56    44    45    1
    57    23    25   ar
    58    24    26   ar
    59   124   125    2
    60    63    53   am
    61     1     2    1
    62     2     5    1
    63     2     3    1
    64   127   129    1
    65    82    85    1
    66    82    83    1
    67    25    26   ar
    68    49    48    1
    69    47    46    2
    70    45    46    1
    71    45    48    1
    72    53    54    2
    73    53    52    1
    74    85    86    1
    75    46    51   am
    76     3     9   am
    77     3     4    2
    78     9    10    1
    79    83    84    2
    80    51    52    1
    81    52    55    1
    82    86    87   ar
    83    86    88   ar
    84    10    11    1
    85    10    13    1
    86   130   131    1
    87    11    12    2
    88    15    14   ar
    89   131   132    1
    90   131   134    1
    91    55    56    1
    92   132   133    2
    93    27    28    1
    94    33    35   ar
    95    33    32   ar
    96    35    36   ar
    97   139   138   ar
    98   139   137   ar
    99   138   136   ar
   100    28    31    1
   101    28    29    1
   102    13    14    1
   103    14    16   ar
   104   137   135   ar
   105   136   135   ar
   106   135   134    1
   107    89    90    1
   108    36    34   ar
   109    32    31    1
   110    32    34   ar
   111    56    58   ar
   112    56    57   ar
   113    58    60   ar
   114    29    30    2
   115    57    59   ar
   116    60    61   ar
   117    90    93    1
   118    90    91    1
   119    94    96    1
   120    94    95    1
   121    94    93    1
   122    59    61   ar
   123    61    62    1
   124    91    92    2
   125   103   105   ar
   126   103   102   ar
   127   105   106   ar
   128   120   119    1
   129    97    98    1
   130   102   101    1
   131   102   104   ar
   132   106   108   ar
   133   106   104   ar
   134   119   121    1
   135   119   118    2
   136   101    98    1
   137    98    99    1
   138   108   110   ar
   139   104   107   ar
   140   118   117    1
   141   117   116    1
   142   111    99   am
   143   111   112    1
   144    99   100    2
   145   110   109   ar
   146   116   115    1
   147   107   109   ar
   148   115   112    1
   149   112   113    1
   150   113   114    2
