@<TRIPOS>MOLECULE
tmp/5nc7D01.pdb
 100 93 0 0 0
SMALL
GASTEIGER

@<TRIPOS>ATOM
      1  N        -75.7620   30.3120   35.4360 N.3     2  GLU2       -0.1245
      2  CA       -76.0840   29.6900   34.1550 C.3     2  GLU2        0.1567
      3  C        -74.9280   29.8800   33.1660 C.2     2  GLU2        0.2260
      4  O        -74.3130   30.9520   33.0790 O.2     2  GLU2       -0.2867
      5  CB       -77.4480   30.1890   33.6230 C.3     2  GLU2        0.0388
      6  CG       -77.4610   31.1650   32.4520 C.3     2  GLU2        0.1160
      7  CD       -78.8840   31.4960   31.9710 C.2     2  GLU2        0.3649
      8  OE1      -79.2770   32.6780   32.0650 O.co2   2  GLU2       -0.2457
      9  OE2      -79.6010   30.5850   31.4870 O.co2   2  GLU2       -0.2457
     10  N        -75.4570   32.1810   21.6630 N.3    35  HIS35      -0.1241
     11  CA       -75.1240   31.2300   22.7160 C.3    35  HIS35       0.1621
     12  C        -76.2710   30.2620   22.9820 C.2    35  HIS35       0.2264
     13  O        -77.4420   30.5680   22.7360 O.2    35  HIS35      -0.2867
     14  CB       -74.8050   31.9450   24.0270 C.3    35  HIS35       0.0745
     15  CG       -73.6770   32.9240   23.9400 C.ar   35  HIS35       0.0817
     16  ND1      -72.5210   32.7900   24.6770 N.ar   35  HIS35      -0.2268
     17  CD2      -73.5220   34.0440   23.1970 C.ar   35  HIS35       0.1154
     18  CE1      -71.7060   33.7910   24.3980 C.ar   35  HIS35       0.1986
     19  NE2      -72.2850   34.5640   23.4990 N.ar   35  HIS35      -0.2212
     20  N        -77.4110   28.7530   26.4870 N.3    37  TYR37      -0.1241
     21  CA       -77.1580   28.8870   27.9170 C.3    37  TYR37       0.1605
     22  C        -77.8180   27.7640   28.6990 C.2    37  TYR37       0.2264
     23  O        -78.9630   27.4030   28.4240 O.2    37  TYR37      -0.2867
     24  CB       -77.6500   30.2310   28.4430 C.3    37  TYR37       0.0534
     25  CG       -76.6750   31.3770   28.2350 C.ar   37  TYR37      -0.0201
     26  CD1      -75.6460   31.6270   29.1400 C.ar   37  TYR37      -0.0009
     27  CD2      -76.7870   32.2090   27.1460 C.ar   37  TYR37      -0.0009
     28  CE1      -74.7570   32.6840   28.9470 C.ar   37  TYR37       0.0417
     29  CE2      -75.9150   33.2560   26.9490 C.ar   37  TYR37       0.0417
     30  CZ       -74.9050   33.4960   27.8430 C.ar   37  TYR37       0.1957
     31  OH       -74.0640   34.5570   27.6080 O.3    37  TYR37      -0.2866
     32  N        -79.0150   26.7640   32.4560 N.3    39  HIS39      -0.1241
     33  CA       -79.2850   27.0220   33.8660 C.3    39  HIS39       0.1621
     34  C        -78.9940   25.7180   34.6010 C.2    39  HIS39       0.2264
     35  O        -79.6930   24.7130   34.4010 O.2    39  HIS39      -0.2867
     36  CB       -80.7330   27.4910   34.0330 C.3    39  HIS39       0.0745
     37  CG       -81.0120   28.1790   35.3350 C.ar   39  HIS39       0.0817
     38  ND1      -81.2170   27.4930   36.5160 N.ar   39  HIS39      -0.2268
     39  CD2      -81.0860   29.4980   35.6460 C.ar   39  HIS39       0.1154
     40  CE1      -81.4250   28.3590   37.4930 C.ar   39  HIS39       0.1986
     41  NE2      -81.3460   29.5820   36.9940 N.ar   39  HIS39      -0.2212
     42  N        -81.6750   27.9070   26.8630 N.3    46  ARG46      -0.1245
     43  CA       -82.2200   28.9220   25.9920 C.3    46  ARG46       0.1563
     44  C        -81.1620   29.3530   24.9910 C.2    46  ARG46       0.2260
     45  O        -79.9630   29.3090   25.2720 O.2    46  ARG46      -0.2867
     46  CB       -82.7200   30.1420   26.7750 C.3    46  ARG46       0.0307
     47  CG       -81.6570   31.0250   27.3680 C.3    46  ARG46       0.0489
     48  CD       -82.2520   32.0370   28.3300 C.3    46  ARG46       0.2205
     49  NE       -81.2790   32.6540   29.2380 N.pl3  46  ARG46      -0.0865
     50  CZ       -81.2260   33.9550   29.5210 C.cat  46  ARG46       0.5346
     51  NH1      -82.0710   34.8030   28.9600 N.pl3  46  ARG46       0.1354
     52  NH2      -80.3190   34.4070   30.3720 N.pl3  46  ARG46       0.1354
     53  N        -79.5710   32.5040   23.2030 N.3    48  VAL48      -0.1245
     54  CA       -79.4360   33.9490   23.3780 C.3    48  VAL48       0.1561
     55  C        -78.4560   34.4690   22.3450 C.2    48  VAL48       0.2260
     56  O        -77.4350   33.8330   22.0820 O.2    48  VAL48      -0.2867
     57  CB       -78.9600   34.3450   24.7870 C.3    48  VAL48       0.0252
     58  CG1      -78.6980   35.8170   24.7990 C.3    48  VAL48       0.0019
     59  CG2      -80.0040   33.9870   25.8560 C.3    48  VAL48       0.0019
     60  N        -76.6480   38.2520   20.7750 N.3    50  ARG50      -0.1245
     61  CA       -76.4920   39.6910   20.6540 C.3    50  ARG50       0.1563
     62  C        -75.7460   39.9600   19.3650 C.2    50  ARG50       0.2260
     63  O        -74.7540   39.2890   19.0640 O.2    50  ARG50      -0.2867
     64  CB       -75.7180   40.3250   21.8280 C.3    50  ARG50       0.0307
     65  CG       -76.2260   39.9850   23.2120 C.3    50  ARG50       0.0489
     66  CD       -75.5540   40.8510   24.2680 C.3    50  ARG50       0.2205
     67  NE       -76.2610   40.7830   25.5460 N.pl3  50  ARG50      -0.0865
     68  CZ       -76.9010   41.8060   26.1070 C.cat  50  ARG50       0.5346
     69  NH1      -76.9210   42.9860   25.5020 N.pl3  50  ARG50       0.1354
     70  NH2      -77.5230   41.6480   27.2720 N.pl3  50  ARG50       0.1354
     71  N        -74.3940   44.9340   20.3290 N.3    55  HIS55      -0.1241
     72  CA       -74.6210   44.1720   21.5540 C.3    55  HIS55       0.1621
     73  C        -76.0980   44.2050   21.9760 C.2    55  HIS55       0.2264
     74  O        -76.4250   43.9380   23.1380 O.2    55  HIS55      -0.2867
     75  CB       -73.6740   44.6060   22.6860 C.3    55  HIS55       0.0745
     76  CG       -72.2080   44.5020   22.3320 C.ar   55  HIS55       0.0817
     77  ND1      -71.2550   45.3930   22.7830 N.ar   55  HIS55      -0.2268
     78  CD2      -71.5340   43.5910   21.5870 C.ar   55  HIS55       0.1154
     79  CE1      -70.0680   45.0540   22.3080 C.ar   55  HIS55       0.1986
     80  NE2      -70.2100   43.9620   21.5800 N.ar   55  HIS55      -0.2212
     81  N        -79.6860   42.5080   22.0220 N.3    57  VAL57      -0.1245
     82  CA       -80.2180   41.1550   22.0040 C.3    57  VAL57       0.1561
     83  C        -81.1660   41.0190   20.8180 C.2    57  VAL57       0.2260
     84  O        -82.1470   41.7610   20.7040 O.2    57  VAL57      -0.2867
     85  CB       -80.9180   40.8340   23.3270 C.3    57  VAL57       0.0252
     86  CG1      -81.5750   39.4670   23.2740 C.3    57  VAL57       0.0019
     87  CG2      -79.9310   40.9230   24.4790 C.3    57  VAL57       0.0019
     88  N        -83.7660   35.5560   22.1740 N.3    60  ASN60      -0.1240
     89  CA       -83.7050   35.1060   23.5610 C.3    60  ASN60       0.1653
     90  C        -84.8030   34.0810   23.8240 C.2    60  ASN60       0.2266
     91  O        -85.7940   34.3550   24.5000 O.2    60  ASN60      -0.2867
     92  CB       -83.7960   36.3080   24.5130 C.3    60  ASN60       0.1155
     93  CG       -83.9620   35.8980   25.9670 C.2    60  ASN60       0.2627
     94  OD1      -83.5320   34.8190   26.3760 O.2    60  ASN60      -0.2716
     95  ND2      -84.5660   36.7690   26.7600 N.am   60  ASN60      -0.0877
     96  N        -86.3480   30.2480   24.7490 N.3    62  ALA62      -0.1245
     97  CA       -86.2270   29.0070   25.5000 C.3    62  ALA62       0.1562
     98  C        -86.1680   27.8070   24.5640 C.2    62  ALA62       0.2260
     99  O        -86.7860   27.7940   23.5020 O.2    62  ALA62      -0.2867
    100  CB       -87.4130   28.8420   26.4470 C.3    62  ALA62       0.0290
@<TRIPOS>BOND
     1    63    62    2
     2    62    61    1
     3    71    72    1
     4    61    60    1
     5    61    64    1
     6    84    83    2
     7    83    82    1
     8    72    73    1
     9    72    75    1
    10    80    78   ar
    11    80    79   ar
    12    78    76   ar
    13    10    11    1
    14    64    65    1
    15    73    74    2
    16    82    81    1
    17    82    85    1
    18    56    55    2
    19    88    89    1
    20    79    77   ar
    21    76    75    1
    22    76    77   ar
    23    55    54    1
    24    11    12    1
    25    11    14    1
    26    13    12    2
    27    17    19   ar
    28    17    15   ar
    29    53    54    1
    30    65    66    1
    31    86    85    1
    32    85    87    1
    33    54    57    1
    34    19    18   ar
    35    99    98    2
    36    89    90    1
    37    89    92    1
    38    90    91    2
    39    15    14    1
    40    15    16   ar
    41    66    67    1
    42    18    16   ar
    43    92    93    1
    44    98    97    1
    45    96    97    1
    46    57    58    1
    47    57    59    1
    48    44    45    2
    49    44    43    1
    50    97   100    1
    51    69    68    1
    52    67    68    2
    53    93    94    2
    54    93    95   am
    55    43    46    1
    56    43    42    1
    57    68    70    1
    58    20    21    1
    59    46    47    1
    60    29    27   ar
    61    29    30   ar
    62    27    25   ar
    63    47    48    1
    64    31    30    1
    65    30    28   ar
    66    21    24    1
    67    21    22    1
    68    25    24    1
    69    25    26   ar
    70    48    49    1
    71    23    22    2
    72    28    26   ar
    73    51    50    1
    74    49    50    2
    75    50    52    1
    76     9     7   ar
    77     7     8   ar
    78     7     6    1
    79     6     5    1
    80    32    33    1
    81     4     3    2
    82     3     2    1
    83     5     2    1
    84    33    36    1
    85    33    34    1
    86    36    37    1
    87     2     1    1
    88    35    34    2
    89    37    39   ar
    90    37    38   ar
    91    39    41   ar
    92    38    40   ar
    93    41    40   ar
