@<TRIPOS>MOLECULE
tmp/5nc7B02.pdb
 140 133 0 0 0
SMALL
GASTEIGER

@<TRIPOS>ATOM
      1  N        -62.6770   28.7510   18.7490 N.3     2  GLU2       -0.1245
      2  CA       -62.4290   28.0310   19.9980 C.3     2  GLU2        0.1567
      3  C        -63.5830   28.2790   20.9620 C.2     2  GLU2        0.2260
      4  O        -64.0410   29.4130   21.1170 O.2     2  GLU2       -0.2867
      5  CB       -61.1020   28.4990   20.6080 C.3     2  GLU2        0.0388
      6  CG       -60.3920   27.5180   21.5420 C.3     2  GLU2        0.1160
      7  CD       -59.0220   28.0300   21.9880 C.2     2  GLU2        0.3649
      8  OE1      -58.6600   29.1700   21.6150 O.co2   2  GLU2       -0.2457
      9  OE2      -58.3270   27.3090   22.7410 O.co2   2  GLU2       -0.2457
     10  N        -65.9420   28.0070   24.5030 N.3     4  SER4       -0.1217
     11  CA       -65.9440   27.9890   25.9510 C.3     4  SER4        0.1889
     12  C        -67.0230   27.0350   26.4100 C.2     4  SER4        0.2288
     13  O        -68.1980   27.2410   26.1010 O.2     4  SER4       -0.2866
     14  CB       -66.1690   29.3730   26.5300 C.3     4  SER4        0.2089
     15  OG       -66.1810   29.2500   27.9310 O.3     4  SER4       -0.2183
     16  N        -62.3170   35.0770   36.0030 N.3    33  ARG33      -0.1245
     17  CA       -63.2070   34.2580   35.1910 C.3    33  ARG33       0.1563
     18  C        -62.3770   33.1890   34.5230 C.2    33  ARG33       0.2260
     19  O        -61.4960   33.5110   33.7080 O.2    33  ARG33      -0.2867
     20  CB       -63.9690   35.0830   34.1490 C.3    33  ARG33       0.0307
     21  CG       -65.0650   35.9430   34.7590 C.3    33  ARG33       0.0489
     22  CD       -65.5630   37.0310   33.8420 C.3    33  ARG33       0.2205
     23  NE       -66.3420   38.0280   34.5760 N.pl3  33  ARG33      -0.0865
     24  CZ       -66.1500   39.3390   34.4570 C.cat  33  ARG33       0.5346
     25  NH1      -65.2200   39.7940   33.6290 N.pl3  33  ARG33       0.1354
     26  NH2      -66.8890   40.1990   35.1510 N.pl3  33  ARG33       0.1354
     27  N        -62.2250   29.8600   32.1740 N.3    35  HIS35      -0.1241
     28  CA       -62.8830   29.0670   31.1560 C.3    35  HIS35       0.1621
     29  C        -62.1070   27.7850   30.9020 C.2    35  HIS35       0.2264
     30  O        -60.8780   27.7300   31.0730 O.2    35  HIS35      -0.2867
     31  CB       -62.9870   29.8270   29.8420 C.3    35  HIS35       0.0745
     32  CG       -63.6800   31.1410   29.9670 C.ar   35  HIS35       0.0817
     33  ND1      -64.8930   31.4100   29.3600 N.ar   35  HIS35      -0.2268
     34  CD2      -63.3260   32.2680   30.6160 C.ar   35  HIS35       0.1154
     35  CE1      -65.2520   32.6480   29.6340 C.ar   35  HIS35       0.1986
     36  NE2      -64.3230   33.1900   30.4000 N.ar   35  HIS35      -0.2212
     37  N        -61.6500   26.0420   27.4290 N.3    37  TYR37      -0.1241
     38  CA       -61.8120   26.2570   26.0070 C.3    37  TYR37       0.1605
     39  C        -61.5680   24.9410   25.2810 C.2    37  TYR37       0.2264
     40  O        -60.6990   24.1510   25.6660 O.2    37  TYR37      -0.2867
     41  CB       -60.8390   27.3190   25.4920 C.3    37  TYR37       0.0534
     42  CG       -61.3000   28.7320   25.7250 C.ar   37  TYR37      -0.0201
     43  CD1      -62.1790   29.3570   24.8240 C.ar   37  TYR37      -0.0009
     44  CD2      -60.8760   29.4470   26.8490 C.ar   37  TYR37      -0.0009
     45  CE1      -62.6200   30.6590   25.0450 C.ar   37  TYR37       0.0417
     46  CE2      -61.3030   30.7540   27.0780 C.ar   37  TYR37       0.0417
     47  CZ       -62.1710   31.3570   26.1730 C.ar   37  TYR37       0.1957
     48  OH       -62.5940   32.6510   26.3860 O.3    37  TYR37      -0.2866
     49  N        -58.5490   19.5840   21.4640 N.3    44  THR44      -0.1203
     50  CA       -57.6860   19.9210   22.5820 C.3    44  THR44       0.1994
     51  C        -58.4250   20.8540   23.5360 C.2    44  THR44       0.2618
     52  O        -59.3570   21.5630   23.1510 O.2    44  THR44      -0.2717
     53  CB       -56.3560   20.5430   22.1010 C.3    44  THR44       0.1784
     54  OG1      -56.6040   21.6610   21.2350 O.3    44  THR44      -0.2211
     55  CG2      -55.5510   19.5170   21.3720 C.3    44  THR44       0.0376
     56  N        -58.0410   20.7980   24.7970 N.am   45  PHE45      -0.1961
     57  CA       -58.6350   21.6120   25.8420 C.3    45  PHE45       0.1771
     58  C        -57.5440   22.3840   26.5740 C.2    45  PHE45       0.2619
     59  O        -56.4260   21.8850   26.7500 O.2    45  PHE45      -0.2715
     60  CB       -59.4120   20.7500   26.8390 C.3    45  PHE45       0.0574
     61  CG       -60.6070   20.0930   26.2470 C.ar   45  PHE45      -0.0200
     62  CD1      -60.4720   18.9720   25.4550 C.ar   45  PHE45      -0.0042
     63  CD2      -61.8770   20.6120   26.4630 C.ar   45  PHE45      -0.0042
     64  CE1      -61.5850   18.3710   24.8960 C.ar   45  PHE45      -0.0003
     65  CE2      -62.9870   20.0210   25.9020 C.ar   45  PHE45      -0.0003
     66  CZ       -62.8430   18.8980   25.1240 C.ar   45  PHE45      -0.0000
     67  N        -57.8870   23.5880   27.0380 N.am   46  ARG46      -0.1977
     68  CA       -56.9820   24.3420   27.8950 C.3    46  ARG46       0.1597
     69  C        -57.8100   25.1370   28.8850 C.2    46  ARG46       0.2287
     70  O        -58.9610   25.4680   28.6110 O.2    46  ARG46      -0.2864
     71  CB       -56.0900   25.2650   27.0680 C.3    46  ARG46       0.0334
     72  CG       -56.8520   26.4230   26.4780 C.3    46  ARG46       0.0492
     73  CD       -56.1150   26.9820   25.3210 C.3    46  ARG46       0.2205
     74  NE       -55.4310   28.2180   25.6010 N.pl3  46  ARG46      -0.0865
     75  CZ       -55.7270   29.3460   24.9740 C.cat  46  ARG46       0.5346
     76  NH1      -56.6790   29.3330   24.0490 N.pl3  46  ARG46       0.1354
     77  NH2      -55.0680   30.4600   25.2550 N.pl3  46  ARG46       0.1354
     78  N        -58.1620   28.6880   30.7040 N.3    48  VAL48      -0.1245
     79  CA       -57.7930   30.0990   30.5550 C.3    48  VAL48       0.1561
     80  C        -58.5780   30.9270   31.5770 C.2    48  VAL48       0.2260
     81  O        -59.8100   30.8200   31.6640 O.2    48  VAL48      -0.2867
     82  CB       -58.0980   30.6230   29.1390 C.3    48  VAL48       0.0252
     83  CG1      -57.7710   32.0930   29.0650 C.3    48  VAL48       0.0019
     84  CG2      -57.3890   29.8000   28.0410 C.3    48  VAL48       0.0019
     85  N        -58.9200   35.0690   33.3550 N.3    50  ARG50      -0.1231
     86  CA       -58.5890   36.4960   33.4060 C.3    50  ARG50       0.1694
     87  C        -59.1030   37.1180   34.6940 C.2    50  ARG50       0.2591
     88  O        -60.2370   36.8550   35.0950 O.2    50  ARG50      -0.2718
     89  CB       -59.1870   37.2510   32.2180 C.3    50  ARG50       0.0321
     90  CG       -58.8750   36.5920   30.8710 C.3    50  ARG50       0.0489
     91  CD       -59.2570   37.4330   29.6670 C.3    50  ARG50       0.2205
     92  NE       -58.1400   38.2980   29.2940 N.pl3  50  ARG50      -0.0865
     93  CZ       -57.5480   38.3120   28.1050 C.cat  50  ARG50       0.5346
     94  NH1      -57.9680   37.5010   27.1530 N.pl3  50  ARG50       0.1354
     95  NH2      -56.5350   39.1390   27.8700 N.pl3  50  ARG50       0.1354
     96  N        -58.2830   37.9590   35.3310 N.am   51  LYS51      -0.1980
     97  CA       -58.7260   38.6300   36.5510 C.3    51  LYS51       0.1596
     98  C        -59.9020   39.5470   36.2440 C.2    51  LYS51       0.2287
     99  O        -59.9210   40.2260   35.2150 O.2    51  LYS51      -0.2864
    100  CB       -57.6030   39.4660   37.1460 C.3    51  LYS51       0.0298
    101  CG       -56.7240   38.7470   38.0910 C.3    51  LYS51       0.0038
    102  CD       -57.4050   38.5830   39.4050 C.3    51  LYS51       0.0206
    103  CE       -56.3770   38.7480   40.4870 C.3    51  LYS51       0.1093
    104  NZ       -55.7410   40.1000   40.4080 N.3    51  LYS51      -0.1314
    105  N        -58.5080   42.3640   34.0120 N.3    55  HIS55      -0.1241
    106  CA       -58.5090   41.4520   32.8520 C.3    55  HIS55       0.1621
    107  C        -57.1370   40.8090   32.5420 C.2    55  HIS55       0.2264
    108  O        -56.9280   40.2970   31.4370 O.2    55  HIS55      -0.2867
    109  CB       -59.0290   42.1920   31.6110 C.3    55  HIS55       0.0745
    110  CG       -60.2460   43.0100   31.8920 C.ar   55  HIS55       0.0817
    111  ND1      -61.5050   42.4590   32.0240 N.ar   55  HIS55      -0.2268
    112  CD2      -60.3870   44.3320   32.1410 C.ar   55  HIS55       0.1154
    113  CE1      -62.3710   43.4130   32.3090 C.ar   55  HIS55       0.1986
    114  NE2      -61.7180   44.5600   32.3870 N.ar   55  HIS55      -0.2212
    115  N        -54.4630   37.9520   32.1960 N.3    57  VAL57      -0.1245
    116  CA       -54.4370   36.5010   32.0530 C.3    57  VAL57       0.1561
    117  C        -53.5740   35.9340   33.1770 C.2    57  VAL57       0.2260
    118  O        -52.3830   36.2270   33.2700 O.2    57  VAL57      -0.2867
    119  CB       -53.9250   36.0760   30.6750 C.3    57  VAL57       0.0252
    120  CG1      -53.7780   34.5760   30.6080 C.3    57  VAL57       0.0019
    121  CG2      -54.9230   36.5100   29.6060 C.3    57  VAL57       0.0019
    122  N        -53.2660   30.0380   31.6060 N.3    60  ASN60      -0.1225
    123  CA       -53.4710   29.6860   30.2200 C.3    60  ASN60       0.1785
    124  C        -52.7530   28.3680   29.9710 C.2    60  ASN60       0.2597
    125  O        -51.6950   28.3430   29.3510 O.2    60  ASN60      -0.2718
    126  CB       -52.9400   30.7890   29.3220 C.3    60  ASN60       0.1169
    127  CG       -52.9580   30.4110   27.8860 C.2    60  ASN60       0.2627
    128  OD1      -53.7870   29.5990   27.4450 O.2    60  ASN60      -0.2716
    129  ND2      -52.0780   31.0220   27.1220 N.am   60  ASN60      -0.0877
    130  N        -53.3510   27.2770   30.4360 N.am   61  CYS61      -0.1956
    131  CA       -52.6950   25.9990   30.6690 C.3    61  CYS61       0.1843
    132  C        -53.4500   24.9080   29.9240 C.2    61  CYS61       0.2625
    133  O        -54.6790   24.8150   30.0290 O.2    61  CYS61      -0.2714
    134  CB       -52.6790   25.7080   32.1770 C.3    61  CYS61       0.0997
    135  SG       -52.0500   24.1370   32.6540 S.3    61  CYS61      -0.0797
    136  N        -52.7230   24.0790   29.1870 N.am   62  ALA62      -0.1977
    137  CA       -53.3580   23.0200   28.4190 C.3    62  ALA62       0.1597
    138  C        -53.8170   21.8780   29.3070 C.2    62  ALA62       0.2287
    139  O        -53.1890   21.5560   30.3180 O.2    62  ALA62      -0.2864
    140  CB       -52.4050   22.4610   27.3810 C.3    62  ALA62       0.0319
@<TRIPOS>BOND
     1     1     2    1
     2     2     5    1
     3     2     3    1
     4     5     6    1
     5     3     4    2
     6    54    53    1
     7    55    53    1
     8    49    50    1
     9     6     7    1
    10     8     7   ar
    11     7     9   ar
    12    53    50    1
    13    50    51    1
    14    52    51    2
    15    51    56   am
    16    76    75    1
    17    10    11    1
    18    56    57    1
    19    43    45   ar
    20    43    42   ar
    21    64    66   ar
    22    64    62   ar
    23    75    77    1
    24    75    74    2
    25    45    47   ar
    26    66    65   ar
    27    39    40    2
    28    39    38    1
    29    73    74    1
    30    73    72    1
    31    62    61   ar
    32    41    42    1
    33    41    38    1
    34    42    44   ar
    35    57    58    1
    36    57    60    1
    37    65    63   ar
    38    11    12    1
    39    11    14    1
    40    38    37    1
    41    13    12    2
    42    47    48    1
    43    47    46   ar
    44    61    63   ar
    45    61    60    1
    46    72    71    1
    47    14    15    1
    48    58    59    2
    49    58    67   am
    50    44    46   ar
    51    67    68    1
    52    71    68    1
    53   129   127   am
    54    94    93    1
    55   140   137    1
    56   128   127    2
    57    95    93    1
    58   127   126    1
    59    68    69    1
    60    84    82    1
    61    93    92    2
    62   137   136    1
    63   137   138    1
    64    70    69    2
    65    83    82    1
    66    82    79    1
    67   136   132   am
    68    92    91    1
    69   138   139    2
    70   126   123    1
    71   125   124    2
    72    33    35   ar
    73    33    32   ar
    74   121   119    1
    75    35    36   ar
    76    91    90    1
    77    31    32    1
    78    31    28    1
    79   132   133    2
    80   132   131    1
    81    32    34   ar
    82   124   123    1
    83   124   130   am
    84   123   122    1
    85    36    34   ar
    86   130   131    1
    87    79    78    1
    88    79    80    1
    89   120   119    1
    90   131   134    1
    91   119   116    1
    92    90    89    1
    93    29    30    2
    94    29    28    1
    95    28    27    1
    96   108   107    2
    97    80    81    2
    98   109   110    1
    99   109   106    1
   100   110   111   ar
   101   110   112   ar
   102   111   113   ar
   103   116   115    1
   104   116   117    1
   105   112   114   ar
   106   134   135    1
   107    89    86    1
   108   113   114   ar
   109   107   106    1
   110   106   105    1
   111   117   118    2
   112    85    86    1
   113    86    87    1
   114    25    24    1
   115    19    18    2
   116    22    23    1
   117    22    21    1
   118    20    21    1
   119    20    17    1
   120    24    23    2
   121    24    26    1
   122    18    17    1
   123    87    88    2
   124    87    96   am
   125    17    16    1
   126    99    98    2
   127    96    97    1
   128    98    97    1
   129    97   100    1
   130   100   101    1
   131   101   102    1
   132   102   103    1
   133   104   103    1
