@<TRIPOS>MOLECULE
tmp/5nc8A00.pdb
 142 139 0 0 0
SMALL
GASTEIGER

@<TRIPOS>ATOM
      1  N          6.6430   15.4140   13.3660 N.3     7  GLY7       -0.1210
      2  CA         7.7190   16.3070   12.8860 C.3     7  GLY7        0.1956
      3  C          7.7940   17.5350   13.7590 C.2     7  GLY7        0.2612
      4  O          6.7780   18.1820   13.9890 O.2     7  GLY7       -0.2717
      5  N          8.9660   17.8320   14.2940 N.am    8  TYR8       -0.1962
      6  CA         9.0940   18.9270   15.2400 C.3     8  TYR8        0.1771
      7  C         10.3230   19.7300   14.9350 C.2     8  TYR8        0.2620
      8  O         11.1230   20.0500   15.8060 O.2     8  TYR8       -0.2715
      9  CB         9.1140   18.4190   16.6770 C.3     8  TYR8        0.0574
     10  CG         8.5440   19.4110   17.6720 C.ar    8  TYR8       -0.0198
     11  CD1        7.2060   19.8280   17.5770 C.ar    8  TYR8       -0.0009
     12  CD2        9.3080   19.8980   18.7240 C.ar    8  TYR8       -0.0009
     13  CE1        6.6530   20.7120   18.4890 C.ar    8  TYR8        0.0417
     14  CE2        8.7620   20.7820   19.6400 C.ar    8  TYR8        0.0417
     15  CZ         7.4340   21.1820   19.5130 C.ar    8  TYR8        0.1957
     16  OH         6.8760   22.0600   20.4070 O.3     8  TYR8       -0.2866
     17  N         10.4440   20.0700   13.6620 N.am    9  GLY9       -0.1940
     18  CA        11.5140   20.9090   13.2330 C.3     9  GLY9        0.2014
     19  C         11.0680   22.3350   13.3710 C.2     9  GLY9        0.2639
     20  O         10.2330   22.6550   14.2330 O.2     9  GLY9       -0.2714
     21  N         11.6090   23.1910   12.5070 N.am   10  ARG10      -0.1963
     22  CA        11.2050   24.5850   12.4590 C.3    10  ARG10       0.1729
     23  C          9.6940   24.7470   12.2760 C.2    10  ARG10       0.2616
     24  O          9.0620   25.5990   12.8980 O.2    10  ARG10      -0.2715
     25  CB        11.8880   25.2780   11.3290 C.3    10  ARG10       0.0348
     26  CG        13.3840   25.4310   11.4970 C.3    10  ARG10       0.0492
     27  CD        14.0220   25.7090   10.1550 C.3    10  ARG10       0.2205
     28  NE        13.3710   24.9220    9.1150 N.pl3  10  ARG10      -0.0865
     29  CZ        13.5170   25.1200    7.8130 C.cat  10  ARG10       0.5346
     30  NH1       14.3720   26.0260    7.3460 N.pl3  10  ARG10       0.1354
     31  NH2       12.8280   24.3730    6.9710 N.pl3  10  ARG10       0.1354
     32  N          9.1110   23.9120   11.4350 N.am   11  PHE11      -0.1974
     33  CA         7.6990   24.0020   11.1600 C.3    11  PHE11       0.1639
     34  C          6.8940   23.5690   12.3660 C.2    11  PHE11       0.2290
     35  O          6.1140   24.3550   12.8890 O.2    11  PHE11      -0.2864
     36  CB         7.3450   23.1940    9.9220 C.3    11  PHE11       0.0560
     37  CG         6.1400   23.7100    9.1910 C.ar   11  PHE11      -0.0200
     38  CD1        6.2800   24.5970    8.1240 C.ar   11  PHE11      -0.0042
     39  CD2        4.8550   23.2830    9.5540 C.ar   11  PHE11      -0.0042
     40  CE1        5.1680   25.0550    7.4410 C.ar   11  PHE11      -0.0003
     41  CE2        3.7440   23.7320    8.8690 C.ar   11  PHE11      -0.0003
     42  CZ         3.9010   24.6140    7.8110 C.ar   11  PHE11      -0.0000
     43  N          5.9450   13.6920   17.6270 N.3    29  LEU29      -0.1231
     44  CA         6.7870   12.6310   17.0480 C.3    29  LEU29       0.1693
     45  C          7.9180   13.2600   16.2400 C.2    29  LEU29       0.2592
     46  O          7.6690   14.1640   15.4480 O.2    29  LEU29      -0.2718
     47  CB         5.9640   11.7240   16.1210 C.3    29  LEU29       0.0284
     48  CG         4.6240   11.1720   16.6420 C.3    29  LEU29       0.0019
     49  CD1        4.0860   10.1330   15.6760 C.3    29  LEU29       0.0001
     50  CD2        4.7780   10.5720   18.0330 C.3    29  LEU29       0.0001
     51  N          9.1550   12.7930   16.4320 N.am   30  ASP30      -0.1960
     52  CA        10.3040   13.2700   15.6230 C.3    30  ASP30       0.1840
     53  C         11.4310   12.2280   15.5300 C.2    30  ASP30       0.2622
     54  O         11.6830   11.4890   16.4760 O.2    30  ASP30      -0.2715
     55  CB        10.8540   14.5910   16.2170 C.3    30  ASP30       0.1450
     56  CG        11.7880   15.3960   15.2530 C.2    30  ASP30       0.3671
     57  OD1       12.7140   16.0290   15.8000 O.co2  30  ASP30      -0.2456
     58  OD2       11.6040   15.4620   14.0010 O.co2  30  ASP30      -0.2456
     59  N         12.0840   12.1660   14.3690 N.am   31  HIS31      -0.1959
     60  CA        13.3790   11.5210   14.2210 C.3    31  HIS31       0.1787
     61  C         14.3890   12.1150   15.2100 C.2    31  HIS31       0.2620
     62  O         14.4730   13.3420   15.3650 O.2    31  HIS31      -0.2715
     63  CB        13.9890   11.8840   12.8810 C.3    31  HIS31       0.0785
     64  CG        13.5510   11.0570   11.7260 C.ar   31  HIS31       0.0821
     65  ND1       12.7080    9.9750   11.8400 N.ar   31  HIS31      -0.2267
     66  CD2       13.8990   11.1350   10.4200 C.ar   31  HIS31       0.1154
     67  CE1       12.5300    9.4400   10.6440 C.ar   31  HIS31       0.1986
     68  NE2       13.2440   10.1240    9.7670 N.ar   31  HIS31      -0.2212
     69  N         15.2180   11.2710   15.8010 N.am   32  SER32      -0.1950
     70  CA        16.3810   11.7450   16.5630 C.3    32  SER32       0.1924
     71  C         16.0620   12.5520   17.8350 C.2    32  SER32       0.2314
     72  O         15.4420   13.6200   17.7640 O.2    32  SER32      -0.2863
     73  CB        17.3270   12.5640   15.6610 C.3    32  SER32       0.2116
     74  OG        18.6000   12.7560   16.2820 O.3    32  SER32      -0.2180
     75  N         10.8470    8.5080   16.6810 N.3    45  GLY45      -0.1210
     76  CA        10.7460    7.4770   15.6650 C.3    45  GLY45       0.1956
     77  C         10.1710    7.9790   14.3570 C.2    45  GLY45       0.2612
     78  O          9.9060    9.1840   14.1920 O.2    45  GLY45      -0.2717
     79  N          9.9720    7.0470   13.4250 N.am   46  ASP46      -0.1959
     80  CA         9.3320    7.3470   12.1500 C.3    46  ASP46       0.1840
     81  C          7.8160    7.5470   12.3450 C.2    46  ASP46       0.2622
     82  O          7.1060    6.6390   12.7740 O.2    46  ASP46      -0.2715
     83  CB         9.5810    6.2300   11.1590 C.3    46  ASP46       0.1450
     84  CG         9.2700    6.6340    9.7620 C.2    46  ASP46       0.3671
     85  OD1        8.4030    7.4980    9.5650 O.co2  46  ASP46      -0.2456
     86  OD2        9.8880    6.0970    8.8350 O.co2  46  ASP46      -0.2456
     87  N          7.3520    8.7630   12.0560 N.am   47  ALA47      -0.1963
     88  CA         5.9680    9.1450   12.2640 C.3    47  ALA47       0.1728
     89  C          5.0330    8.3260   11.3830 C.2    47  ALA47       0.2616
     90  O          3.8610    8.1000   11.7370 O.2    47  ALA47      -0.2715
     91  CB         5.7980   10.6360   11.9930 C.3    47  ALA47       0.0334
     92  N          5.5540    7.8800   10.2420 N.am   48  ALA48      -0.1977
     93  CA         4.8050    6.9930    9.3420 C.3    48  ALA48       0.1597
     94  C          4.7090    5.5150    9.8090 C.2    48  ALA48       0.2287
     95  O          4.3390    4.6550    9.0200 O.2    48  ALA48      -0.2864
     96  CB         5.4020    7.0650    7.9440 C.3    48  ALA48       0.0319
     97  N          4.0330   17.8570    9.7890 N.3    67  ALA67      -0.1231
     98  CA         4.9570   18.9940    9.8190 C.3    67  ALA67       0.1694
     99  C          6.3750   18.5450    9.5210 C.2    67  ALA67       0.2592
    100  O          7.3370   19.2370    9.8830 O.2    67  ALA67      -0.2718
    101  CB         4.8960   19.6460   11.1870 C.3    67  ALA67       0.0304
    102  N          6.4990   17.4060    8.8350 N.am   68  ILE68      -0.1966
    103  CA         7.7900   16.8460    8.4360 C.3    68  ILE68       0.1727
    104  C          8.2070   17.3090    7.0440 C.2    68  ILE68       0.2616
    105  O          7.3650   17.7040    6.2160 O.2    68  ILE68      -0.2715
    106  CB         7.7730   15.3160    8.4590 C.3    68  ILE68       0.0290
    107  CG1        6.9220   14.7450    7.3010 C.3    68  ILE68       0.0022
    108  CG2        7.3160   14.8330    9.8250 C.3    68  ILE68       0.0023
    109  CD1        6.5710   13.2620    7.4040 C.3    68  ILE68       0.0001
    110  N          9.5140   17.2290    6.7880 N.am   69  ASP69      -0.1957
    111  CA        10.1210   17.7410    5.5450 C.3    69  ASP69       0.1840
    112  C         10.1650   16.7360    4.3870 C.2    69  ASP69       0.2621
    113  O         10.4400   17.1240    3.2410 O.2    69  ASP69      -0.2715
    114  CB        11.5310   18.2820    5.8220 C.3    69  ASP69       0.1450
    115  CG        12.4740   17.2270    6.4140 C.2    69  ASP69       0.3671
    116  OD1       12.0410   16.0910    6.6690 O.co2  69  ASP69      -0.2456
    117  OD2       13.6650   17.5340    6.6250 O.co2  69  ASP69      -0.2456
    118  N          9.8760   15.4630    4.6830 N.am   70  ALA70      -0.1977
    119  CA         9.8480   14.3720    3.6760 C.3    70  ALA70       0.1597
    120  C          8.4370   14.1930    3.0540 C.2    70  ALA70       0.2287
    121  O          7.5210   13.7070    3.7430 O.2    70  ALA70      -0.2864
    122  CB        10.3170   13.0510    4.3030 C.3    70  ALA70       0.0319
    123  N          6.7780   10.2550    2.7440 N.3    73  LYS73      -0.1245
    124  CA         6.3010    9.8820    4.0770 C.3    73  LYS73       0.1561
    125  C          5.0700   10.6500    4.4680 C.2    73  LYS73       0.2260
    126  O          4.1840   10.1120    5.1160 O.2    73  LYS73      -0.2867
    127  CB         7.3420   10.2020    5.1490 C.3    73  LYS73       0.0271
    128  CG         8.4400    9.1790    5.2780 C.3    73  LYS73       0.0035
    129  CD         7.9590    7.9510    6.0080 C.3    73  LYS73       0.0206
    130  CE         8.9980    6.8500    5.8890 C.3    73  LYS73       0.1093
    131  NZ         8.4540    5.5290    6.3190 N.3    73  LYS73      -0.1314
    132  N          1.7810   20.2330    6.0050 N.3    93  ARG93      -0.1245
    133  CA         2.8090   21.0310    5.3560 C.3    93  ARG93       0.1563
    134  C          3.0600   20.5140    3.9630 C.2    93  ARG93       0.2260
    135  O          3.4320   19.3640    3.8110 O.2    93  ARG93      -0.2867
    136  CB         4.0810   20.8690    6.1810 C.3    93  ARG93       0.0307
    137  CG         5.3730   21.3740    5.5630 C.3    93  ARG93       0.0489
    138  CD         6.5030   20.9380    6.4780 C.3    93  ARG93       0.2205
    139  NE         7.7700   21.5870    6.2030 N.pl3  93  ARG93      -0.0865
    140  CZ         8.8140   21.4980    7.0140 C.cat  93  ARG93       0.5346
    141  NH1        8.7380   20.7770    8.1330 N.pl3  93  ARG93       0.1354
    142  NH2        9.9420   22.1220    6.7150 N.pl3  93  ARG93       0.1354
@<TRIPOS>BOND
     1   123   124    1
     2   120   119    1
     3   120   121    2
     4   113   112    2
     5   119   122    1
     6   119   118    1
     7   135   134    2
     8   134   133    1
     9   124   125    1
    10   124   127    1
    11   112   118   am
    12   112   111    1
    13   125   126    2
    14   127   128    1
    15   128   129    1
    16   133   132    1
    17   133   136    1
    18   111   114    1
    19   111   110    1
    20   137   136    1
    21   137   138    1
    22   114   115    1
    23   130   129    1
    24   130   131    1
    25   139   138    1
    26   139   140    2
    27   105   104    2
    28   115   117   ar
    29   115   116   ar
    30   142   140    1
    31   110   104   am
    32    31    29    1
    33   140   141    1
    34   104   103    1
    35   107   109    1
    36   107   106    1
    37    30    29    1
    38    40    42   ar
    39    40    38   ar
    40    42    41   ar
    41    29    28    2
    42    96    93    1
    43    38    37   ar
    44   103   106    1
    45   103   102    1
    46   106   108    1
    47   102    99   am
    48    86    84   ar
    49    41    39   ar
    50    95    94    2
    51    28    27    1
    52    37    39   ar
    53    37    36    1
    54    93    94    1
    55    93    92    1
    56    99    98    1
    57    99   100    2
    58    85    84   ar
    59    84    83    1
    60    68    66   ar
    61    68    67   ar
    62    97    98    1
    63    98   101    1
    64    36    33    1
    65    27    26    1
    66    92    89   am
    67    66    64   ar
    68    67    65   ar
    69    83    80    1
    70    33    32    1
    71    33    34    1
    72    25    26    1
    73    25    22    1
    74    89    90    2
    75    89    88    1
    76    32    23   am
    77    64    65   ar
    78    64    63    1
    79    91    88    1
    80    87    88    1
    81    87    81   am
    82    80    81    1
    83    80    79    1
    84    23    22    1
    85    23    24    2
    86    81    82    2
    87    34    35    2
    88    22    21    1
    89    21    19   am
    90    63    60    1
    91     2     1    1
    92     2     3    1
    93    18    19    1
    94    18    17    1
    95    19    20    2
    96    79    77   am
    97    17     7   am
    98     3     4    2
    99     3     5   am
   100    58    56   ar
   101    78    77    2
   102    60    59    1
   103    60    61    1
   104     5     6    1
   105    77    76    1
   106    59    53   am
   107     7     6    1
   108     7     8    2
   109    61    62    2
   110    61    69   am
   111     6     9    1
   112    56    57   ar
   113    56    55    1
   114    46    45    2
   115    53    52    1
   116    53    54    2
   117    52    55    1
   118    52    51    1
   119    73    74    1
   120    73    70    1
   121    76    75    1
   122    49    48    1
   123    69    70    1
   124    47    48    1
   125    47    44    1
   126    45    51   am
   127    45    44    1
   128    70    71    1
   129    48    50    1
   130     9    10    1
   131    44    43    1
   132    11    10   ar
   133    11    13   ar
   134    10    12   ar
   135    72    71    2
   136    13    15   ar
   137    12    14   ar
   138    15    14   ar
   139    15    16    1
