@<TRIPOS>MOLECULE
tmp/5nc9A00.pdb
 146 146 0 0 0
SMALL
GASTEIGER

@<TRIPOS>ATOM
      1  N         16.0170    0.0640   91.6530 N.3     9  ASP9       -0.1225
      2  CA        14.9900    0.2340   92.6640 C.3     9  ASP9        0.1805
      3  C         13.5610    0.2990   92.1190 C.2     9  ASP9        0.2597
      4  O         13.3310    0.6300   90.9560 O.2     9  ASP9       -0.2718
      5  CB        15.2490    1.5200   93.4420 C.3     9  ASP9        0.1424
      6  CG        16.4550    1.4360   94.3670 C.2     9  ASP9        0.3668
      7  OD1       17.3550    0.5980   94.1350 O.co2   9  ASP9       -0.2456
      8  OD2       16.5040    2.2390   95.3290 O.co2   9  ASP9       -0.2456
      9  N         12.6200    0.0150   93.0140 N.am   10  ASP10      -0.1974
     10  CA        11.1850    0.2090   92.8190 C.3    10  ASP10       0.1709
     11  C         10.5580   -0.7960   91.8760 C.2    10  ASP10       0.2293
     12  O          9.3760   -0.6820   91.5640 O.2    10  ASP10      -0.2864
     13  CB        10.8810    1.6270   92.3040 C.3    10  ASP10       0.1436
     14  CG        11.5180    2.7400   93.1520 C.2    10  ASP10       0.3671
     15  OD1       11.7540    2.5600   94.3710 O.co2  10  ASP10      -0.2456
     16  OD2       11.7830    3.8220   92.5740 O.co2  10  ASP10      -0.2456
     17  N         12.8100   -3.2040   99.3190 N.3    59  HIS59      -0.1241
     18  CA        12.6870   -1.7760   99.1630 C.3    59  HIS59       0.1621
     19  C         11.3210   -1.3850   99.7390 C.2    59  HIS59       0.2264
     20  O         10.7780   -0.3150   99.4300 O.2    59  HIS59      -0.2867
     21  CB        12.8370   -1.3820   97.6850 C.3    59  HIS59       0.0745
     22  CG        13.1350    0.0740   97.4580 C.ar   59  HIS59       0.0817
     23  ND1       14.0760    0.7690   98.1860 N.ar   59  HIS59      -0.2268
     24  CD2       12.6220    0.9610   96.5690 C.ar   59  HIS59       0.1154
     25  CE1       14.1370    2.0130   97.7510 C.ar   59  HIS59       0.1986
     26  NE2       13.2540    2.1620   96.7790 N.ar   59  HIS59      -0.2212
     27  N          6.5870    2.2010  100.3170 N.3    63  HIS63      -0.1241
     28  CA         7.4620    3.2670   99.8330 C.3    63  HIS63       0.1621
     29  C          6.9260    4.6180  100.3400 C.2    63  HIS63       0.2264
     30  O          7.0670    5.6570   99.6850 O.2    63  HIS63      -0.2867
     31  CB         7.5550    3.2400   98.2980 C.3    63  HIS63       0.0745
     32  CG         8.8450    3.7780   97.7450 C.ar   63  HIS63       0.0817
     33  ND1        9.1880    5.1120   97.8040 N.ar   63  HIS63      -0.2268
     34  CD2        9.8610    3.1610   97.0910 C.ar   63  HIS63       0.1154
     35  CE1       10.3640    5.2900   97.2240 C.ar   63  HIS63       0.1986
     36  NE2       10.7920    4.1230   96.7770 N.ar   63  HIS63      -0.2212
     37  N         16.7580    1.4950  101.6480 N.3    98  PRO98      -0.2103
     38  CA        15.7930    2.4540  102.1760 C.3    98  PRO98       0.1489
     39  C         15.2210    3.3310  101.0750 C.2    98  PRO98       0.2418
     40  O         15.9650    3.9580  100.3190 O.2    98  PRO98      -0.2734
     41  CB        16.6200    3.2970  103.1620 C.3    98  PRO98       0.0282
     42  CG        17.8580    2.5700  103.3820 C.3    98  PRO98       0.0208
     43  CD        18.1060    1.6820  102.2110 C.3    98  PRO98       0.0893
     44  N         13.8900    3.3660  100.9830 N.am   99  PRO99      -0.2718
     45  CA        13.2340    4.3750  100.1590 C.3    99  PRO99       0.1535
     46  C         13.6620    5.7350  100.6760 C.2    99  PRO99       0.2599
     47  O         13.6310    5.9430  101.8970 O.2    99  PRO99      -0.2715
     48  CB        11.7440    4.1350  100.4150 C.3    99  PRO99       0.0310
     49  CG        11.6630    2.7270  100.8970 C.3    99  PRO99       0.0237
     50  CD        12.9230    2.5040  101.6820 C.3    99  PRO99       0.0939
     51  N         14.0840    6.6130   99.7700 N.am  100  TYR100     -0.1960
     52  CA        14.4950    7.9760  100.0940 C.3   100  TYR100      0.1771
     53  C         15.7970    8.0360  100.8810 C.2   100  TYR100      0.2620
     54  O         16.1010    9.0670  101.4880 O.2   100  TYR100     -0.2715
     55  CB        13.3910    8.6950  100.8710 C.3   100  TYR100      0.0574
     56  CG        12.0240    8.5580  100.2350 C.ar  100  TYR100     -0.0198
     57  CD1       11.7730    9.0790   98.9840 C.ar  100  TYR100     -0.0009
     58  CD2       10.9770    7.9270  100.9040 C.ar  100  TYR100     -0.0009
     59  CE1       10.5280    8.9610   98.3990 C.ar  100  TYR100      0.0417
     60  CE2        9.7250    7.8150  100.3300 C.ar  100  TYR100      0.0417
     61  CZ         9.5020    8.3460   99.0740 C.ar  100  TYR100      0.1957
     62  OH         8.2590    8.2370   98.4720 O.3   100  TYR100     -0.2866
     63  N         16.5710    6.9490  100.8360 N.am  101  GLY101     -0.1954
     64  CA        17.8130    6.8190  101.5930 C.3   101  GLY101      0.1869
     65  C         17.5670    6.6480  103.0730 C.2   101  GLY101      0.2309
     66  O         16.4350    6.7970  103.5220 O.2   101  GLY101     -0.2863
     67  N         23.7840    4.3250   98.5490 N.3   124  TRP124     -0.1241
     68  CA        24.5570    4.3230   97.3040 C.3   124  TRP124      0.1605
     69  C         25.7020    5.3280   97.3580 C.2   124  TRP124      0.2264
     70  O         25.7560    6.1620   98.2510 O.2   124  TRP124     -0.2867
     71  CB        23.6520    4.6490   96.1140 C.3   124  TRP124      0.0550
     72  CG        22.8920    5.9120   96.3310 C.ar  124  TRP124      0.0003
     73  CD1       23.2480    7.1740   95.9230 C.ar  124  TRP124      0.0946
     74  CD2       21.6470    6.0510   97.0290 C.ar  124  TRP124      0.0152
     75  NE1       22.2950    8.0810   96.3200 N.ar  124  TRP124     -0.2442
     76  CE2       21.3040    7.4220   97.0010 C.ar  124  TRP124      0.0810
     77  CE3       20.7890    5.1520   97.6740 C.ar  124  TRP124      0.0012
     78  CZ2       20.1330    7.9130   97.5930 C.ar  124  TRP124      0.0191
     79  CZ3       19.6260    5.6430   98.2640 C.ar  124  TRP124      0.0001
     80  CH2       19.3090    7.0110   98.2170 C.ar  124  TRP124      0.0015
     81  N         24.3310    8.7520   92.5710 N.3   127  ASP127     -0.1239
     82  CA        22.9490    8.9280   92.1620 C.3   127  ASP127      0.1674
     83  C         22.9000    9.2600   90.6750 C.2   127  ASP127      0.2266
     84  O         23.2410   10.3640   90.2600 O.2   127  ASP127     -0.2867
     85  CB        22.2640   10.0110   92.9910 C.3   127  ASP127      0.1410
     86  CG        20.7730   10.1280   92.7050 C.2   127  ASP127      0.3668
     87  OD1       20.2830    9.6090   91.6760 O.co2 127  ASP127     -0.2456
     88  OD2       20.0750   10.7310   93.5440 O.co2 127  ASP127     -0.2456
     89  N         15.6230   10.0500   87.5100 N.3   131  TRP131     -0.1241
     90  CA        14.2390   10.5190   87.6440 C.3   131  TRP131      0.1605
     91  C         13.9920   11.9030   87.0190 C.2   131  TRP131      0.2264
     92  O         12.8420   12.2960   86.8030 O.2   131  TRP131     -0.2867
     93  CB        13.8390   10.5710   89.1230 C.3   131  TRP131      0.0550
     94  CG        14.7070   11.5280   89.9340 C.ar  131  TRP131      0.0003
     95  CD1       15.8330   11.2110   90.6380 C.ar  131  TRP131      0.0946
     96  CD2       14.5560   12.9490   90.0440 C.ar  131  TRP131      0.0152
     97  NE1       16.3660   12.3310   91.2110 N.ar  131  TRP131     -0.2442
     98  CE2       15.6040   13.4160   90.8640 C.ar  131  TRP131      0.0810
     99  CE3       13.6240   13.8690   89.5500 C.ar  131  TRP131      0.0012
    100  CZ2       15.7510   14.7760   91.2050 C.ar  131  TRP131      0.0191
    101  CZ3       13.7720   15.2170   89.8870 C.ar  131  TRP131      0.0001
    102  CH2       14.8290   15.6570   90.7050 C.ar  131  TRP131      0.0015
    103  N         12.3540   12.1830   83.1530 N.3   134  ASN134     -0.1240
    104  CA        11.1630   11.3610   83.0010 C.3   134  ASN134      0.1653
    105  C         10.2170   11.9650   81.9860 C.2   134  ASN134      0.2266
    106  O         10.1320   13.1980   81.8750 O.2   134  ASN134     -0.2867
    107  CB        10.4440   11.1860   84.3430 C.3   134  ASN134      0.1155
    108  CG        11.0730   10.0900   85.2270 C.2   134  ASN134      0.2627
    109  OD1       12.1730    9.5910   84.9560 O.2   134  ASN134     -0.2716
    110  ND2       10.3730    9.7320   86.3000 N.am  134  ASN134     -0.0877
    111  N         22.8870    4.0860   91.9100 N.3   161  LEU161     -0.1245
    112  CA        21.4540    4.0990   92.1600 C.3   161  LEU161      0.1561
    113  C         20.7400    4.2860   90.8420 C.2   161  LEU161      0.2260
    114  O         20.8680    5.3380   90.2170 O.2   161  LEU161     -0.2867
    115  CB        21.0640    5.2250   93.1350 C.3   161  LEU161      0.0270
    116  CG        19.5610    5.5290   93.2510 C.3   161  LEU161      0.0019
    117  CD1       18.8600    4.3220   93.8370 C.3   161  LEU161      0.0001
    118  CD2       19.2390    6.7810   94.0740 C.3   161  LEU161      0.0001
    119  N         16.9020    2.9410   88.4730 N.3   163  HIS163     -0.1241
    120  CA        15.4880    2.5970   88.5940 C.3   163  HIS163      0.1621
    121  C         15.0360    1.8980   87.3080 C.2   163  HIS163      0.2264
    122  O         14.9300    2.5280   86.2650 O.2   163  HIS163     -0.2867
    123  CB        14.6450    3.8600   88.8630 C.3   163  HIS163      0.0745
    124  CG        15.0480    4.6100   90.1080 C.ar  163  HIS163      0.0817
    125  ND1       16.2140    5.3450   90.1970 N.ar  163  HIS163     -0.2268
    126  CD2       14.4370    4.7360   91.3120 C.ar  163  HIS163      0.1154
    127  CE1       16.3130    5.8720   91.4040 C.ar  163  HIS163      0.1986
    128  NE2       15.2460    5.5230   92.0990 N.ar  163  HIS163     -0.2212
    129  N         12.2220    0.8800   86.5110 N.3   165  ILE165     -0.1231
    130  CA        10.8300    1.1510   86.2030 C.3   165  ILE165      0.1692
    131  C         10.7210    2.3620   85.2890 C.2   165  ILE165      0.2592
    132  O          9.6200    2.7420   84.9180 O.2   165  ILE165     -0.2718
    133  CB        10.0090    1.3970   87.4820 C.3   165  ILE165      0.0266
    134  CG1       10.5780    2.5980   88.2500 C.3   165  ILE165      0.0019
    135  CG2       10.0540    0.1590   88.3600 C.3   165  ILE165      0.0020
    136  CD1        9.6620    3.1750   89.3200 C.3   165  ILE165      0.0001
    137  N         11.8720    2.8880   84.8580 N.am  166  HIS166     -0.1976
    138  CA        11.9480    4.0170   83.9280 C.3   166  HIS166      0.1656
    139  C         12.6430    3.6080   82.6460 C.2   166  HIS166      0.2291
    140  O         13.7360    3.0540   82.6910 O.2   166  HIS166     -0.2864
    141  CB        12.7430    5.2040   84.5020 C.3   166  HIS166      0.0771
    142  CG        12.1740    5.7940   85.7510 C.ar  166  HIS166      0.0820
    143  ND1       10.8190    5.9460   85.9570 N.ar  166  HIS166     -0.2267
    144  CD2       12.7870    6.3090   86.8460 C.ar  166  HIS166      0.1154
    145  CE1       10.6220    6.5000   87.1410 C.ar  166  HIS166      0.1986
    146  NE2       11.7990    6.7310   87.6990 N.ar  166  HIS166     -0.2212
@<TRIPOS>BOND
     1   106   105    2
     2   105   104    1
     3   139   140    2
     4   139   138    1
     5   104   103    1
     6   104   107    1
     7   138   141    1
     8   138   137    1
     9   107   108    1
    10   141   142    1
    11   137   131   am
    12   132   131    2
    13   109   108    2
    14   108   110   am
    15   131   130    1
    16   142   143   ar
    17   142   144   ar
    18   143   145   ar
    19   130   129    1
    20   130   133    1
    21   122   121    2
    22    92    91    2
    23   144   146   ar
    24    91    90    1
    25   145   146   ar
    26   121   120    1
    27   133   134    1
    28   133   135    1
    29    89    90    1
    30    90    93    1
    31   134   136    1
    32   119   120    1
    33   120   123    1
    34   123   124    1
    35    93    94    1
    36    99   101   ar
    37    99    96   ar
    38   101   102   ar
    39    94    96   ar
    40    94    95   ar
    41    96    98   ar
    42   124   125   ar
    43   124   126   ar
    44   125   127   ar
    45   114   113    2
    46    84    83    2
    47    95    97   ar
    48    83    82    1
    49   102   100   ar
    50   113   112    1
    51    98   100   ar
    52    98    97   ar
    53     4     3    2
    54   126   128   ar
    55   127   128   ar
    56    12    11    2
    57     1     2    1
    58    87    86   ar
    59    11    10    1
    60   111   112    1
    61     3     2    1
    62     3     9   am
    63   112   115    1
    64    82    81    1
    65    82    85    1
    66    13    10    1
    67    13    14    1
    68    16    14   ar
    69     2     5    1
    70    86    85    1
    71    86    88   ar
    72    10     9    1
    73   115   116    1
    74    14    15   ar
    75   116   117    1
    76   116   118    1
    77     5     6    1
    78     7     6   ar
    79     6     8   ar
    80    73    75   ar
    81    73    72   ar
    82    71    72    1
    83    71    68    1
    84    75    76   ar
    85    72    74   ar
    86    24    26   ar
    87    24    22   ar
    88    36    34   ar
    89    36    35   ar
    90    26    25   ar
    91    76    74   ar
    92    76    78   ar
    93    74    77   ar
    94    34    32   ar
    95    35    33   ar
    96    68    69    1
    97    68    67    1
    98    69    70    2
    99    22    21    1
   100    22    23   ar
   101    78    80   ar
   102    77    79   ar
   103    21    18    1
   104    32    33   ar
   105    32    31    1
   106    25    23   ar
   107    80    79   ar
   108    31    28    1
   109    59    57   ar
   110    59    61   ar
   111    62    61    1
   112    57    56   ar
   113    61    60   ar
   114    18    17    1
   115    18    19    1
   116    20    19    2
   117    30    29    2
   118    51    52    1
   119    51    46   am
   120    28    27    1
   121    28    29    1
   122    52    55    1
   123    52    53    1
   124    45    48    1
   125    45    46    1
   126    45    44    1
   127    56    55    1
   128    56    58   ar
   129    40    39    2
   130    60    58   ar
   131    48    49    1
   132    46    47    2
   133    63    53   am
   134    63    64    1
   135    53    54    2
   136    49    50    1
   137    44    39   am
   138    44    50    1
   139    39    38    1
   140    64    65    1
   141    37    38    1
   142    37    43    1
   143    38    41    1
   144    43    42    1
   145    65    66    2
   146    41    42    1
