@<TRIPOS>MOLECULE
tmp/5ncbA01.pdb
 103 98 0 0 0
SMALL
GASTEIGER

@<TRIPOS>ATOM
      1  N         11.0880   20.2440   55.8530 N.3    70  PHE70      -0.1241
      2  CA        12.3100   20.3480   55.0690 C.3    70  PHE70       0.1605
      3  C         13.6290   20.1900   55.8390 C.2    70  PHE70       0.2264
      4  O         14.6580   19.8560   55.2110 O.2    70  PHE70      -0.2867
      5  CB        12.3980   21.6770   54.3290 C.3    70  PHE70       0.0534
      6  CG        11.4280   21.8570   53.2060 C.ar   70  PHE70      -0.0203
      7  CD1       10.7390   20.7990   52.6430 C.ar   70  PHE70      -0.0042
      8  CD2       11.2550   23.1240   52.6630 C.ar   70  PHE70      -0.0042
      9  CE1        9.9110   21.0270   51.5540 C.ar   70  PHE70      -0.0003
     10  CE2       10.4290   23.3310   51.5610 C.ar   70  PHE70      -0.0003
     11  CZ         9.7520   22.2620   51.0190 C.ar   70  PHE70      -0.0000
     12  N         15.2280   28.7040   52.0120 N.3    76  ILE76      -0.1245
     13  CA        14.2780   29.6580   52.5310 C.3    76  ILE76       0.1561
     14  C         14.4480   29.9770   54.0220 C.2    76  ILE76       0.2260
     15  O         13.8970   30.9440   54.4880 O.2    76  ILE76      -0.2867
     16  CB        12.8200   29.1640   52.2480 C.3    76  ILE76       0.0252
     17  CG1       12.5130   27.8730   53.0300 C.3    76  ILE76       0.0019
     18  CG2       12.5510   29.0500   50.7570 C.3    76  ILE76       0.0019
     19  CD1       11.0630   27.4370   52.9140 C.3    76  ILE76       0.0001
     20  N          4.0800   20.7510   54.5340 N.3   163  PHE163     -0.1241
     21  CA         4.7080   22.0530   54.7660 C.3   163  PHE163      0.1605
     22  C          3.6910   23.0380   55.3810 C.2   163  PHE163      0.2264
     23  O          4.0530   23.8670   56.1750 O.2   163  PHE163     -0.2867
     24  CB         5.2030   22.6110   53.4120 C.3   163  PHE163      0.0534
     25  CG         6.0170   23.8970   53.5130 C.ar  163  PHE163     -0.0203
     26  CD1        5.4060   25.1230   53.6950 C.ar  163  PHE163     -0.0042
     27  CD2        7.3820   23.8590   53.4500 C.ar  163  PHE163     -0.0042
     28  CE1        6.1360   26.2680   53.7820 C.ar  163  PHE163     -0.0003
     29  CE2        8.1360   25.0100   53.5190 C.ar  163  PHE163     -0.0003
     30  CZ         7.5050   26.2070   53.7030 C.ar  163  PHE163     -0.0000
     31  N         12.8180   22.0880   48.6350 N.3   234  VAL234     -0.1231
     32  CA        12.2220   23.3930   48.2970 C.3   234  VAL234      0.1692
     33  C         11.7820   23.3820   46.8320 C.2   234  VAL234      0.2592
     34  O         10.7120   23.9000   46.4540 O.2   234  VAL234     -0.2718
     35  CB        13.2290   24.5480   48.5720 C.3   234  VAL234      0.0266
     36  CG1       12.7830   25.8390   47.9700 C.3   234  VAL234      0.0020
     37  CG2       13.4400   24.7200   50.0510 C.3   234  VAL234      0.0020
     38  N         12.6600   22.8640   45.9470 N.am  235  TYR235     -0.1976
     39  CA        12.3060   22.7890   44.5300 C.3   235  TYR235      0.1639
     40  C         11.1670   21.8360   44.2520 C.2   235  TYR235      0.2290
     41  O         10.2810   22.1580   43.4480 O.2   235  TYR235     -0.2864
     42  CB        13.5040   22.4130   43.6770 C.3   235  TYR235      0.0560
     43  CG        14.3280   23.5890   43.1740 C.ar  235  TYR235     -0.0198
     44  CD1       14.8870   24.5070   44.0510 C.ar  235  TYR235     -0.0009
     45  CD2       14.5890   23.7490   41.8230 C.ar  235  TYR235     -0.0009
     46  CE1       15.6940   25.5520   43.6100 C.ar  235  TYR235      0.0417
     47  CE2       15.4020   24.7700   41.3670 C.ar  235  TYR235      0.0417
     48  CZ        15.9110   25.6860   42.2550 C.ar  235  TYR235      0.1957
     49  OH        16.7450   26.6850   41.8140 O.3   235  TYR235     -0.2866
     50  N          8.7070   21.0070   45.9820 N.3   237  LEU237     -0.1231
     51  CA         7.4490   21.6080   46.3940 C.3   237  LEU237      0.1693
     52  C          7.1420   22.8070   45.5140 C.2   237  LEU237      0.2593
     53  O          6.5590   22.6280   44.4220 O.2   237  LEU237     -0.2718
     54  CB         7.4350   21.8910   47.8840 C.3   237  LEU237      0.0284
     55  CG         6.0750   22.2140   48.5350 C.3   237  LEU237      0.0019
     56  CD1        6.1670   22.5770   49.9940 C.3   237  LEU237      0.0001
     57  CD2        5.0280   22.8570   47.7550 C.3   237  LEU237      0.0001
     58  N          7.5940   24.0010   45.8990 N.am  238  GLY238     -0.1942
     59  CA         7.1490   25.1960   45.2040 C.3   238  GLY238      0.2014
     60  C          7.6230   25.3900   43.7930 C.2   238  GLY238      0.2638
     61  O          6.8630   25.8470   42.9420 O.2   238  GLY238     -0.2714
     62  N          8.8780   25.0440   43.4810 N.am  239  ALA239     -0.1977
     63  CA         9.3570   25.3150   42.1280 C.3   239  ALA239      0.1597
     64  C          8.5780   24.4160   41.1390 C.2   239  ALA239      0.2287
     65  O          8.2590   24.8530   40.0670 O.2   239  ALA239     -0.2864
     66  CB        10.8330   25.1260   42.0130 C.3   239  ALA239      0.0319
     67  N          2.2730   31.3720   45.8280 N.3   283  ILE283     -0.1245
     68  CA         2.8440   31.3090   47.1540 C.3   283  ILE283      0.1561
     69  C          2.1270   32.4280   47.9440 C.2   283  ILE283      0.2260
     70  O          2.3900   33.6320   47.7820 O.2   283  ILE283     -0.2867
     71  CB         4.3630   31.4320   47.1820 C.3   283  ILE283      0.0252
     72  CG1        4.9410   30.2890   46.3440 C.3   283  ILE283      0.0019
     73  CG2        4.8260   31.4550   48.6160 C.3   283  ILE283      0.0019
     74  CD1        6.3810   29.9300   46.5200 C.3   283  ILE283      0.0001
     75  N          3.5780   31.2020   52.5550 N.3   286  ALA286     -0.1231
     76  CA         4.4650   30.1070   52.8510 C.3   286  ALA286      0.1694
     77  C          5.7030   30.4640   53.6310 C.2   286  ALA286      0.2592
     78  O          6.2800   29.5860   54.2540 O.2   286  ALA286     -0.2718
     79  CB         4.8530   29.3660   51.5760 C.3   286  ALA286      0.0304
     80  N          6.1790   31.6970   53.4830 N.am  287  THR287     -0.1953
     81  CA         7.4370   32.1070   54.0510 C.3   287  THR287      0.1897
     82  C          7.2620   33.0980   55.1760 C.2   287  THR287      0.2313
     83  O          6.1550   33.6170   55.4270 O.2   287  THR287     -0.2863
     84  CB         8.4050   32.6280   52.9470 C.3   287  THR287      0.1794
     85  OG1        7.8100   33.7520   52.2950 O.3   287  THR287     -0.2208
     86  CG2        8.7190   31.5180   51.9510 C.3   287  THR287      0.0378
     87  N         12.1200   35.4250   45.4850 N.3   346  CYS346     -0.1235
     88  CA        12.1880   34.3340   44.5540 C.3   346  CYS346      0.1677
     89  C         13.4420   34.4530   43.6750 C.2   346  CYS346      0.2270
     90  O         13.7030   35.4980   43.0450 O.2   346  CYS346     -0.2867
     91  CB        10.9710   34.3660   43.6570 C.3   346  CYS346      0.0956
     92  SG        10.9110   33.0450   42.4170 S.3   346  CYS346     -0.0801
     93  N          0.1260   27.6840   50.0180 N.3   384  PHE384     -0.1241
     94  CA         0.2030   27.7070   48.5750 C.3   384  PHE384      0.1605
     95  C         -1.2420   27.6070   48.0670 C.2   384  PHE384      0.2264
     96  O         -1.9820   26.7690   48.5540 O.2   384  PHE384     -0.2867
     97  CB         1.0220   26.5360   48.0140 C.3   384  PHE384      0.0534
     98  CG         2.3780   26.3780   48.6540 C.ar  384  PHE384     -0.0203
     99  CD1        3.4640   27.0630   48.1460 C.ar  384  PHE384     -0.0042
    100  CD2        2.5590   25.5890   49.7520 C.ar  384  PHE384     -0.0042
    101  CE1        4.6890   26.9550   48.7360 C.ar  384  PHE384     -0.0003
    102  CE2        3.8170   25.4610   50.3540 C.ar  384  PHE384     -0.0003
    103  CZ         4.8710   26.1780   49.8200 C.ar  384  PHE384     -0.0000
@<TRIPOS>BOND
     1    65    64    2
     2    64    63    1
     3    47    45   ar
     4    47    48   ar
     5    49    48    1
     6    45    43   ar
     7    66    63    1
     8    63    62    1
     9    48    46   ar
    10    92    91    1
    11    61    60    2
    12    90    89    2
    13    43    42    1
    14    43    44   ar
    15    41    40    2
    16    62    60   am
    17    46    44   ar
    18    91    88    1
    19    89    88    1
    20    42    39    1
    21    60    59    1
    22    40    39    1
    23    53    52    2
    24    39    38    1
    25    88    87    1
    26    59    58    1
    27    52    58   am
    28    52    51    1
    29    67    68    1
    30    38    33   am
    31    50    51    1
    32    72    74    1
    33    72    71    1
    34    51    54    1
    35    34    33    2
    36    33    32    1
    37    68    71    1
    38    68    69    1
    39    71    73    1
    40    57    55    1
    41    70    69    2
    42    54    55    1
    43    36    35    1
    44    97    94    1
    45    97    98    1
    46    95    96    2
    47    95    94    1
    48    99    98   ar
    49    99   101   ar
    50    32    35    1
    51    32    31    1
    52    55    56    1
    53    35    37    1
    54    94    93    1
    55    98   100   ar
    56   101   103   ar
    57   100   102   ar
    58   103   102   ar
    59    18    16    1
    60    11     9   ar
    61    11    10   ar
    62     9     7   ar
    63    10     8   ar
    64    79    76    1
    65    86    84    1
    66    12    13    1
    67    16    13    1
    68    16    17    1
    69    85    84    1
    70    13    14    1
    71    75    76    1
    72     7     6   ar
    73     8     6   ar
    74    76    77    1
    75    19    17    1
    76    84    81    1
    77     6     5    1
    78    24    25    1
    79    24    21    1
    80    27    25   ar
    81    27    29   ar
    82    80    77   am
    83    80    81    1
    84    25    26   ar
    85    29    30   ar
    86    77    78    2
    87    26    28   ar
    88    30    28   ar
    89    14    15    2
    90    81    82    1
    91     5     2    1
    92    20    21    1
    93    21    22    1
    94     2     3    1
    95     2     1    1
    96    82    83    2
    97     4     3    2
    98    22    23    2
