@<TRIPOS>MOLECULE
tmp/5nccA01.pdb
 207 193 0 0 0
SMALL
GASTEIGER

@<TRIPOS>ATOM
      1  N          3.7400   -8.4030   49.1830 N.3    68  ALA68      -0.1245
      2  CA         3.3120   -9.7670   48.8300 C.3    68  ALA68       0.1562
      3  C          1.9070   -9.7820   48.2340 C.2    68  ALA68       0.2260
      4  O          1.5440  -10.7180   47.4970 O.2    68  ALA68      -0.2867
      5  CB         3.4010  -10.7020   50.0210 C.3    68  ALA68       0.0290
      6  N          0.9220   -8.0800   45.8860 N.3    70  ILE70      -0.1231
      7  CA         1.0300   -7.9860   44.4200 C.3    70  ILE70       0.1692
      8  C          0.1370   -9.0320   43.7220 C.2    70  ILE70       0.2592
      9  O         -0.5280   -8.7250   42.7430 O.2    70  ILE70      -0.2718
     10  CB         2.5050   -8.0130   43.9230 C.3    70  ILE70       0.0266
     11  CG1        2.5690   -7.6520   42.4180 C.3    70  ILE70       0.0019
     12  CG2        3.2070   -9.3290   44.2630 C.3    70  ILE70       0.0020
     13  CD1        3.8730   -8.0010   41.7150 C.3    70  ILE70       0.0001
     14  N          0.1080  -10.2430   44.2740 N.am   71  THR71      -0.1953
     15  CA        -0.7120  -11.3650   43.7870 C.3    71  THR71       0.1897
     16  C         -2.2050  -11.0410   43.6780 C.2    71  THR71       0.2313
     17  O         -2.8590  -11.4150   42.6970 O.2    71  THR71      -0.2863
     18  CB        -0.5560  -12.5680   44.7170 C.3    71  THR71       0.1794
     19  OG1       -0.8580  -12.1550   46.0640 O.3    71  THR71      -0.2208
     20  CG2        0.8680  -13.1220   44.6440 C.3    71  THR71       0.0378
     21  N         -3.3400   -8.4640   40.7370 N.3    74  PHE74      -0.1241
     22  CA        -3.1520   -8.7850   39.3290 C.3    74  PHE74       0.1605
     23  C         -4.3640   -8.6680   38.4200 C.2    74  PHE74       0.2264
     24  O         -4.4010   -7.7550   37.6200 O.2    74  PHE74      -0.2867
     25  CB        -2.4010  -10.0880   39.1080 C.3    74  PHE74       0.0534
     26  CG        -0.9360   -9.9080   38.8780 C.ar   74  PHE74      -0.0203
     27  CD1       -0.4620   -9.2240   37.7720 C.ar   74  PHE74      -0.0042
     28  CD2       -0.0180  -10.4180   39.7890 C.ar   74  PHE74      -0.0042
     29  CE1        0.8980   -9.0640   37.5530 C.ar   74  PHE74      -0.0003
     30  CE2        1.3530  -10.2630   39.5970 C.ar   74  PHE74      -0.0003
     31  CZ         1.8050   -9.5840   38.4700 C.ar   74  PHE74      -0.0000
     32  N          6.3660   -5.1060   40.8700 N.3   111  ALA111     -0.1245
     33  CA         7.1140   -6.1240   41.6170 C.3   111  ALA111      0.1562
     34  C          8.3650   -5.4600   42.2510 C.2   111  ALA111      0.2260
     35  O          9.3900   -6.1170   42.4600 O.2   111  ALA111     -0.2867
     36  CB         7.4990   -7.3030   40.7220 C.3   111  ALA111      0.0290
     37  N          9.4960  -20.1110   32.2310 N.3   323  LEU323     -0.1245
     38  CA         9.5210  -20.6510   33.5760 C.3   323  LEU323      0.1561
     39  C         10.0150  -22.0820   33.6690 C.2   323  LEU323      0.2260
     40  O          9.6120  -22.9410   32.8680 O.2   323  LEU323     -0.2867
     41  CB         8.0920  -20.6270   34.1060 C.3   323  LEU323      0.0270
     42  CG         7.8680  -20.3240   35.5770 C.3   323  LEU323      0.0019
     43  CD1        8.0550  -18.8270   35.8330 C.3   323  LEU323      0.0001
     44  CD2        6.4490  -20.7290   35.8770 C.3   323  LEU323      0.0001
     45  N          8.9010  -20.7100   50.2280 N.3   335  ILE335     -0.1231
     46  CA         8.4600  -19.4450   50.8510 C.3   335  ILE335      0.1692
     47  C          6.9410  -19.4760   51.0020 C.2   335  ILE335      0.2591
     48  O          6.4210  -19.0160   52.0120 O.2   335  ILE335     -0.2718
     49  CB         8.8770  -18.1570   50.0600 C.3   335  ILE335      0.0266
     50  CG1        8.2840  -16.8840   50.7200 C.3   335  ILE335      0.0019
     51  CG2        8.4930  -18.2340   48.5770 C.3   335  ILE335      0.0020
     52  CD1        8.5190  -15.6100   49.9320 C.3   335  ILE335      0.0001
     53  N          6.2610  -20.0010   49.9740 N.am  336  ALA336     -0.1980
     54  CA         4.8690  -20.4190   50.0220 C.3   336  ALA336      0.1597
     55  C          4.5140  -20.8110   51.4540 C.2   336  ALA336      0.2287
     56  O          3.5460  -20.3360   52.0450 O.2   336  ALA336     -0.2864
     57  CB         4.6680  -21.6050   49.0780 C.3   336  ALA336      0.0319
     58  N          4.6160  -18.4850   54.8670 N.3   339  ASP339     -0.1239
     59  CA         3.4160  -17.6090   55.0080 C.3   339  ASP339      0.1674
     60  C          2.0680  -18.2040   54.5060 C.2   339  ASP339      0.2266
     61  O          1.1530  -17.4500   54.1650 O.2   339  ASP339     -0.2867
     62  CB         3.6430  -16.2570   54.3190 C.3   339  ASP339      0.1410
     63  CG         3.7830  -16.3990   52.8170 C.2   339  ASP339      0.3668
     64  OD1        3.0660  -15.6720   52.0510 O.co2 339  ASP339     -0.2456
     65  OD2        4.5880  -17.2960   52.4100 O.co2 339  ASP339     -0.2456
     66  N          8.4160   -9.5560   50.8690 N.3   362  SER362     -0.1217
     67  CA         8.3050   -9.9500   49.4790 C.3   362  SER362      0.1889
     68  C          9.2010   -9.1130   48.5510 C.2   362  SER362      0.2288
     69  O         10.1940   -8.5220   49.0230 O.2   362  SER362     -0.2866
     70  CB         6.8470   -9.8960   49.0370 C.3   362  SER362      0.2089
     71  OG         6.3310  -11.1910   48.8420 O.3   362  SER362     -0.2183
     72  N          8.2040  -12.1110   45.3750 N.3   364  GLY364     -0.1210
     73  CA         9.0400  -13.3020   45.0800 C.3   364  GLY364      0.1956
     74  C         10.1070  -12.7260   44.1810 C.2   364  GLY364      0.2612
     75  O         10.2150  -11.5070   44.0890 O.2   364  GLY364     -0.2717
     76  N         10.8640  -13.5550   43.4900 N.am  365  CYS365     -0.1970
     77  CA        11.7270  -13.0830   42.3730 C.3   365  CYS365      0.1712
     78  C         12.6450  -11.8800   42.6760 C.2   365  CYS365      0.2296
     79  O         12.9990  -11.1040   41.7860 O.2   365  CYS365     -0.2864
     80  CB        10.8800  -12.8460   41.1090 C.3   365  CYS365      0.0983
     81  SG         9.9440  -11.3100   41.0090 S.3   365  CYS365     -0.0798
     82  N         15.1020  -14.7100   37.1820 N.3   384  ARG384     -0.1245
     83  CA        14.4660  -14.3680   38.4380 C.3   384  ARG384      0.1563
     84  C         14.2050  -15.6170   39.2590 C.2   384  ARG384      0.2260
     85  O         13.4260  -16.4850   38.8510 O.2   384  ARG384     -0.2867
     86  CB        13.1610  -13.6030   38.1780 C.3   384  ARG384      0.0307
     87  CG        13.3080  -12.2020   37.6690 C.3   384  ARG384      0.0489
     88  CD        11.8480  -11.7150   37.7570 C.3   384  ARG384      0.2205
     89  NE        11.7350  -10.2920   37.7020 N.pl3 384  ARG384     -0.0865
     90  CZ        10.5910   -9.6280   37.5570 C.cat 384  ARG384      0.5346
     91  NH1        9.4060  -10.2490   37.4640 N.pl3 384  ARG384      0.1354
     92  NH2       10.6080   -8.2870   37.5040 N.pl3 384  ARG384      0.1354
     93  N         12.7140  -17.4860   42.4090 N.3   386  VAL386     -0.1245
     94  CA        11.6970  -17.4540   43.4640 C.3   386  VAL386      0.1561
     95  C         11.8680  -18.6620   44.3850 C.2   386  VAL386      0.2260
     96  O         11.9460  -19.8030   43.9030 O.2   386  VAL386     -0.2867
     97  CB        10.2670  -17.4490   42.8850 C.3   386  VAL386      0.0252
     98  CG1        9.2450  -17.2980   43.9950 C.3   386  VAL386      0.0019
     99  CG2       10.1060  -16.3820   41.8330 C.3   386  VAL386      0.0019
    100  N          9.7440  -20.2460   45.8600 N.3   388  GLY388     -0.1210
    101  CA         8.4190  -20.8750   45.9060 C.3   388  GLY388      0.1956
    102  C          8.1740  -21.6070   44.6030 C.2   388  GLY388      0.2612
    103  O          8.7660  -21.2530   43.5820 O.2   388  GLY388     -0.2717
    104  N          7.3200  -22.6320   44.6200 N.am  389  MET389     -0.1965
    105  CA         7.0670  -23.4250   43.4020 C.3   389  MET389      0.1736
    106  C          5.8610  -22.9280   42.6010 C.2   389  MET389      0.2616
    107  O          4.7420  -22.8810   43.1080 O.2   389  MET389     -0.2715
    108  CB         6.9220  -24.9150   43.7190 C.3   389  MET389      0.0427
    109  CG         7.0170  -25.7910   42.4690 C.3   389  MET389      0.0599
    110  SD         6.3020  -27.4170   42.7020 S.3   389  MET389     -0.1393
    111  CE         5.4830  -27.6850   41.0930 C.3   389  MET389      0.0692
    112  N          6.1070  -22.5710   41.3430 N.am  390  ALA390     -0.1977
    113  CA         5.0540  -22.1150   40.4440 C.3   390  ALA390      0.1597
    114  C          4.1590  -23.2770   40.0640 C.2   390  ALA390      0.2287
    115  O          4.6550  -24.3960   39.8410 O.2   390  ALA390     -0.2864
    116  CB         5.6460  -21.4930   39.2110 C.3   390  ALA390      0.0319
    117  N          3.9790  -17.2950   34.8850 N.3   395  GLY395     -0.1210
    118  CA         4.3460  -16.8440   36.2410 C.3   395  GLY395      0.1956
    119  C          3.2910  -15.9020   36.7770 C.2   395  GLY395      0.2611
    120  O          2.9210  -15.9890   37.9410 O.2   395  GLY395     -0.2717
    121  N          2.7160  -15.0670   35.9140 N.am  396  VAL396     -0.1979
    122  CA         1.7260  -14.0900   36.3350 C.3   396  VAL396      0.1595
    123  C          0.4860  -14.8280   36.8720 C.2   396  VAL396      0.2287
    124  O         -0.0470  -14.4920   37.9630 O.2   396  VAL396     -0.2864
    125  CB         1.3380  -13.1160   35.1760 C.3   396  VAL396      0.0276
    126  CG1        0.2050  -12.1790   35.5670 C.3   396  VAL396      0.0022
    127  CG2        2.5310  -12.2850   34.7280 C.3   396  VAL396      0.0022
    128  N          0.3090  -17.7870   37.9640 N.3   398  THR398     -0.1203
    129  CA         0.6460  -18.5030   39.2310 C.3   398  THR398      0.1994
    130  C          0.3780  -17.6020   40.4490 C.2   398  THR398      0.2617
    131  O         -0.2380  -18.0120   41.3960 O.2   398  THR398     -0.2717
    132  CB         2.0300  -19.1640   39.2220 C.3   398  THR398      0.1784
    133  OG1        1.8600  -20.4960   38.7290 O.3   398  THR398     -0.2211
    134  CG2        2.5750  -19.3030   40.6140 C.3   398  THR398      0.0376
    135  N          0.8550  -16.3600   40.3670 N.am  399  TYR399     -0.1975
    136  CA         0.5850  -15.3630   41.3620 C.3   399  TYR399      0.1639
    137  C         -0.9120  -15.1710   41.5580 C.2   399  TYR399      0.2290
    138  O         -1.3800  -15.0910   42.7160 O.2   399  TYR399     -0.2864
    139  CB         1.2830  -14.0420   41.0610 C.3   399  TYR399      0.0560
    140  CG         2.7310  -13.9400   41.5180 C.ar  399  TYR399     -0.0198
    141  CD1        3.5540  -15.0680   41.5840 C.ar  399  TYR399     -0.0009
    142  CD2        3.3040  -12.7050   41.8210 C.ar  399  TYR399     -0.0009
    143  CE1        4.8870  -14.9710   41.9780 C.ar  399  TYR399      0.0417
    144  CE2        4.6310  -12.6050   42.2150 C.ar  399  TYR399      0.0417
    145  CZ         5.4190  -13.7470   42.2980 C.ar  399  TYR399      0.1957
    146  OH         6.7350  -13.6520   42.6930 O.3   399  TYR399     -0.2866
    147  N         -2.2100  -18.0200   43.5520 N.3   402  PHE402     -0.1241
    148  CA        -1.6720  -17.8710   44.9160 C.3   402  PHE402      0.1605
    149  C         -2.5380  -16.9440   45.7470 C.2   402  PHE402      0.2264
    150  O         -2.8050  -17.2480   46.8950 O.2   402  PHE402     -0.2867
    151  CB        -0.2250  -17.3780   44.9000 C.3   402  PHE402      0.0534
    152  CG         0.4890  -17.5590   46.2060 C.ar  402  PHE402     -0.0203
    153  CD1        1.0720  -18.7830   46.5370 C.ar  402  PHE402     -0.0042
    154  CD2        0.5890  -16.5020   47.1100 C.ar  402  PHE402     -0.0042
    155  CE1        1.7380  -18.9500   47.7500 C.ar  402  PHE402     -0.0003
    156  CE2        1.2760  -16.6580   48.3200 C.ar  402  PHE402     -0.0003
    157  CZ         1.8370  -17.8830   48.6440 C.ar  402  PHE402     -0.0000
    158  N          0.3470  -25.5450   49.3360 N.3   412  TRP412     -0.1241
    159  CA         1.1450  -25.2080   48.1630 C.3   412  TRP412      0.1605
    160  C          2.4240  -26.1000   48.1540 C.2   412  TRP412      0.2264
    161  O          3.2470  -26.0240   49.0910 O.2   412  TRP412     -0.2867
    162  CB         1.4640  -23.7090   48.1590 C.3   412  TRP412      0.0550
    163  CG         1.8670  -23.1470   46.8230 C.ar  412  TRP412      0.0003
    164  CD1        3.1100  -23.1820   46.2640 C.ar  412  TRP412      0.0946
    165  CD2        1.0340  -22.4430   45.8920 C.ar  412  TRP412      0.0152
    166  NE1        3.0990  -22.5780   45.0310 N.ar  412  TRP412     -0.2442
    167  CE2        1.8440  -22.1030   44.7800 C.ar  412  TRP412      0.0810
    168  CE3       -0.3210  -22.0800   45.8800 C.ar  412  TRP412      0.0012
    169  CZ2        1.3510  -21.4100   43.6670 C.ar  412  TRP412      0.0191
    170  CZ3       -0.8170  -21.3960   44.7700 C.ar  412  TRP412      0.0001
    171  CH2        0.0210  -21.0610   43.6810 C.ar  412  TRP412      0.0015
    172  N         11.3300  -21.8200   41.7870 N.3   417  THR417     -0.1218
    173  CA        11.0180  -21.3980   40.4300 C.3   417  THR417      0.1862
    174  C         12.1480  -20.5080   39.9190 C.2   417  THR417      0.2287
    175  O         12.7290  -19.7280   40.6830 O.2   417  THR417     -0.2866
    176  CB         9.6840  -20.6260   40.3780 C.3   417  THR417      0.1770
    177  OG1        8.6460  -21.4170   40.9560 O.3   417  THR417     -0.2211
    178  CG2        9.3150  -20.3330   38.9480 C.3   417  THR417      0.0375
    179  N         12.4670  -17.9170   36.7210 N.3   419  GLN419     -0.1245
    180  CA        11.8430  -17.2190   35.6100 C.3   419  GLN419      0.1566
    181  C         12.9180  -16.6770   34.6830 C.2   419  GLN419      0.2260
    182  O         13.9400  -16.1530   35.1310 O.2   419  GLN419     -0.2867
    183  CB        10.9520  -16.0830   36.1150 C.3   419  GLN419      0.0367
    184  CG         9.9770  -15.5490   35.0530 C.3   419  GLN419      0.0905
    185  CD         9.1880  -14.3430   35.4600 C.2   419  GLN419      0.2608
    186  OE1        8.4010  -13.8180   34.6560 O.2   419  GLN419     -0.2717
    187  NE2        9.3830  -13.8930   36.7000 N.am  419  GLN419     -0.0878
    188  N          4.5070  -11.9650   30.2110 N.3   506  SER506     -0.1202
    189  CA         5.1690  -10.6780   30.3300 C.3   506  SER506      0.2020
    190  C          5.9040  -10.5390   31.6440 C.2   506  SER506      0.2619
    191  O          5.3730  -10.8800   32.6980 O.2   506  SER506     -0.2717
    192  CB         4.1460   -9.5580   30.2380 C.3   506  SER506      0.2103
    193  OG         4.8120   -8.3130   30.2600 O.3   506  SER506     -0.2182
    194  N          7.1230  -10.0290   31.5690 N.am  507  SER507     -0.1937
    195  CA         7.8880   -9.6180   32.7540 C.3   507  SER507      0.2055
    196  C          7.6050   -8.1500   33.0790 C.2   507  SER507      0.2643
    197  O          8.3150   -7.5130   33.8850 O.2   507  SER507     -0.2714
    198  CB         9.3740   -9.8470   32.5570 C.3   507  SER507      0.2130
    199  OG         9.9100   -8.8390   31.7270 O.3   507  SER507     -0.2179
    200  N          6.5880   -7.6350   32.3940 N.am  508  ASN508     -0.1971
    201  CA         5.9010   -6.3730   32.6870 C.3   508  ASN508      0.1688
    202  C          6.7440   -5.1180   32.6330 C.2   508  ASN508      0.2292
    203  O          6.8520   -4.3750   33.6070 O.2   508  ASN508     -0.2864
    204  CB         5.1300   -6.5050   33.9880 C.3   508  ASN508      0.1181
    205  CG         4.0800   -7.5520   33.9050 C.2   508  ASN508      0.2629
    206  OD1        4.1820   -8.5660   34.5860 O.2   508  ASN508     -0.2716
    207  ND2        3.0740   -7.3440   33.0330 N.am  508  ASN508     -0.0877
@<TRIPOS>BOND
     1   188   189    1
     2   192   193    1
     3   192   189    1
     4   189   190    1
     5   194   190   am
     6   194   195    1
     7   190   191    2
     8   199   198    1
     9    37    38    1
    10   200   201    1
    11   200   196   am
    12   198   195    1
    13   202   201    1
    14   202   203    2
    15   201   204    1
    16   195   196    1
    17    40    39    2
    18   207   205   am
    19   196   197    2
    20    38    39    1
    21    38    41    1
    22   205   204    1
    23   205   206    2
    24    41    42    1
    25   186   185    2
    26   181   182    2
    27   181   180    1
    28   127   125    1
    29   117   118    1
    30   184   185    1
    31   184   183    1
    32   125   126    1
    33   125   122    1
    34   185   187   am
    35    42    43    1
    36    42    44    1
    37   180   183    1
    38   180   179    1
    39   121   122    1
    40   121   119   am
    41   118   119    1
    42   122   123    1
    43   119   120    2
    44   123   124    2
    45    82    83    1
    46    91    90    1
    47    92    90    1
    48    29    27   ar
    49    29    31   ar
    50    90    89    2
    51    24    23    2
    52    87    88    1
    53    87    86    1
    54    89    88    1
    55    27    26   ar
    56   128   129    1
    57    86    83    1
    58    23    22    1
    59    83    84    1
    60    31    30   ar
    61   133   132    1
    62    85    84    2
    63    26    25    1
    64    26    28   ar
    65   178   176    1
    66    25    22    1
    67   116   113    1
    68   132   129    1
    69   132   134    1
    70   129   130    1
    71    22    21    1
    72    30    28   ar
    73   115   114    2
    74   174   173    1
    75   174   175    2
    76   114   113    1
    77   135   130   am
    78   135   136    1
    79   176   173    1
    80   176   177    1
    81   173   172    1
    82   113   112    1
    83   130   131    2
    84    36    33    1
    85    32    33    1
    86    81    80    1
    87   139   136    1
    88   139   140    1
    89   111   110    1
    90    80    77    1
    91   112   106   am
    92   136   137    1
    93   140   141   ar
    94   140   142   ar
    95   137   138    2
    96   141   143   ar
    97    33    34    1
    98    13    11    1
    99    79    78    2
   100   142   144   ar
   101    99    97    1
   102   143   145   ar
   103   144   145   ar
   104    34    35    2
   105   145   146    1
   106    77    78    1
   107    77    76    1
   108    93    94    1
   109    11    10    1
   110   109   110    1
   111   109   108    1
   112   106   107    2
   113   106   105    1
   114    17    16    2
   115     9     8    2
   116    97    94    1
   117    97    98    1
   118   105   108    1
   119   105   104    1
   120    94    95    1
   121    76    74   am
   122   147   148    1
   123   103   102    2
   124   169   171   ar
   125   169   167   ar
   126    16    15    1
   127   171   170   ar
   128     8    14   am
   129     8     7    1
   130    15    14    1
   131    15    18    1
   132    96    95    2
   133    10    12    1
   134    10     7    1
   135    75    74    2
   136    74    73    1
   137     7     6    1
   138   102   104   am
   139   102   101    1
   140    20    18    1
   141    18    19    1
   142   170   168   ar
   143   167   166   ar
   144   167   165   ar
   145   151   148    1
   146   151   152    1
   147   148   149    1
   148   166   164   ar
   149    73    72    1
   150   149   150    2
   151   100   101    1
   152   168   165   ar
   153   165   163   ar
   154   152   153   ar
   155   152   154   ar
   156   164   163   ar
   157   153   155   ar
   158   163   162    1
   159   154   156   ar
   160     4     3    2
   161   155   157   ar
   162   160   159    1
   163   160   161    2
   164   162   159    1
   165   159   158    1
   166     3     2    1
   167   156   157   ar
   168    68    69    2
   169    68    67    1
   170    51    49    1
   171     2     1    1
   172     2     5    1
   173    71    70    1
   174    70    67    1
   175    57    54    1
   176    67    66    1
   177    52    50    1
   178    53    54    1
   179    53    47   am
   180    54    55    1
   181    49    50    1
   182    49    46    1
   183    45    46    1
   184    46    47    1
   185    47    48    2
   186    55    56    2
   187    64    63   ar
   188    65    63   ar
   189    63    62    1
   190    61    60    2
   191    62    59    1
   192    60    59    1
   193    58    59    1
