@<TRIPOS>MOLECULE
tmp/5ncdB00.pdb
 127 128 0 0 0
SMALL
GASTEIGER

@<TRIPOS>ATOM
      1  N         24.5590   10.4780  131.6640 N.3     9  ASP9       -0.1225
      2  CA        23.2300   10.6500  132.2000 C.3     9  ASP9        0.1805
      3  C         22.1660    9.8880  131.4190 C.2     9  ASP9        0.2597
      4  O         22.3290    9.6090  130.2160 O.2     9  ASP9       -0.2718
      5  CB        22.8340   12.1500  132.1870 C.3     9  ASP9        0.1424
      6  CG        23.6140   13.0130  133.2020 C.2     9  ASP9        0.3668
      7  OD1       24.7200   12.6320  133.6620 O.co2   9  ASP9       -0.2456
      8  OD2       23.0940   14.1000  133.5350 O.co2   9  ASP9       -0.2456
      9  N         21.0670    9.6060  132.1230 N.am   10  ASP10      -0.1974
     10  CA        19.8260    9.0280  131.5930 C.3    10  ASP10       0.1709
     11  C         19.9220    7.5220  131.3250 C.2    10  ASP10       0.2293
     12  O         18.9450    6.9090  130.9010 O.2    10  ASP10      -0.2864
     13  CB        19.3750    9.7360  130.3040 C.3    10  ASP10       0.1436
     14  CG        19.1220   11.2460  130.4790 C.2    10  ASP10       0.3671
     15  OD1       19.1090   11.8110  131.6060 O.co2  10  ASP10      -0.2456
     16  OD2       18.9100   11.8880  129.4350 O.co2  10  ASP10      -0.2456
     17  N         19.4590    9.7640  138.9270 N.3    59  HIS59      -0.1241
     18  CA        18.9330   10.7630  138.0040 C.3    59  HIS59       0.1621
     19  C         17.3940   10.6840  137.9170 C.2    59  HIS59       0.2264
     20  O         16.8080   11.0240  136.8940 O.2    59  HIS59      -0.2867
     21  CB        19.5710   10.5870  136.6200 C.3    59  HIS59       0.0745
     22  CG        19.4470   11.7880  135.7100 C.ar   59  HIS59       0.0817
     23  ND1       19.8180   13.0630  136.0870 N.ar   59  HIS59      -0.2268
     24  CD2       19.0300   11.8890  134.4220 C.ar   59  HIS59       0.1154
     25  CE1       19.6240   13.8940  135.0790 C.ar   59  HIS59       0.1986
     26  NE2       19.1450   13.2070  134.0550 N.ar   59  HIS59      -0.2212
     27  N         12.1080   11.6520  135.3620 N.3    63  HIS63      -0.1241
     28  CA        12.7870   12.7020  134.5640 C.3    63  HIS63       0.1621
     29  C         11.8050   13.7700  134.1000 C.2    63  HIS63       0.2264
     30  O         11.9990   14.3760  133.0680 O.2    63  HIS63      -0.2867
     31  CB        13.5030   12.1140  133.3350 C.3    63  HIS63       0.0745
     32  CG        14.6220   12.9640  132.8050 C.ar   63  HIS63       0.0817
     33  ND1       14.4190   14.2050  132.2440 N.ar   63  HIS63      -0.2268
     34  CD2       15.9620   12.7470  132.7590 C.ar   63  HIS63       0.1154
     35  CE1       15.5830   14.7150  131.8720 C.ar   63  HIS63       0.1986
     36  NE2       16.5370   13.8490  132.1670 N.ar   63  HIS63      -0.2212
     37  N         20.4780   16.2750  138.9700 N.3    98  PRO98      -0.2103
     38  CA        19.1160   16.7270  138.6910 C.3    98  PRO98       0.1489
     39  C         18.8580   16.7160  137.2030 C.2    98  PRO98       0.2418
     40  O         19.7260   17.1520  136.4510 O.2    98  PRO98      -0.2734
     41  CB        19.0870   18.1660  139.2250 C.3    98  PRO98       0.0282
     42  CG        20.4210   18.3990  139.8630 C.3    98  PRO98       0.0208
     43  CD        21.3660   17.3870  139.3440 C.3    98  PRO98       0.0893
     44  N         17.6890   16.2170  136.7820 N.am   99  PRO99      -0.2718
     45  CA        17.2680   16.3470  135.3820 C.3    99  PRO99       0.1535
     46  C         17.0710   17.8190  135.0170 C.2    99  PRO99       0.2598
     47  O         16.5720   18.5710  135.8500 O.2    99  PRO99      -0.2715
     48  CB        15.9420   15.5750  135.3370 C.3    99  PRO99       0.0310
     49  CG        16.0010   14.6520  136.5100 C.3    99  PRO99       0.0237
     50  CD        16.7450   15.4110  137.5690 C.3    99  PRO99       0.0939
     51  N         17.4700   18.1990  133.8010 N.am  100  TYR100     -0.1974
     52  CA        17.4020   19.5740  133.2890 C.3   100  TYR100      0.1639
     53  C         18.2490   20.5460  134.1300 C.2   100  TYR100      0.2290
     54  O         18.1050   21.7750  134.0280 O.2   100  TYR100     -0.2864
     55  CB        15.9370   20.0500  133.2080 C.3   100  TYR100      0.0560
     56  CG        15.0080   19.0730  132.4960 C.ar  100  TYR100     -0.0198
     57  CD1       15.0310   18.9220  131.1030 C.ar  100  TYR100     -0.0009
     58  CD2       14.1130   18.2960  133.2200 C.ar  100  TYR100     -0.0009
     59  CE1       14.1720   18.0190  130.4540 C.ar  100  TYR100      0.0417
     60  CE2       13.2580   17.3960  132.5910 C.ar  100  TYR100      0.0417
     61  CZ        13.2870   17.2520  131.2100 C.ar  100  TYR100      0.1957
     62  OH        12.4270   16.3340  130.6240 O.3   100  TYR100     -0.2866
     63  N         27.0970   20.4510  136.4020 N.3   124  TRP124     -0.1241
     64  CA        28.2640   20.2640  135.5380 C.3   124  TRP124      0.1605
     65  C         28.9220   21.6010  135.2300 C.2   124  TRP124      0.2264
     66  O         28.2860   22.6360  135.3260 O.2   124  TRP124     -0.2867
     67  CB        27.8650   19.5770  134.2270 C.3   124  TRP124      0.0550
     68  CG        26.8360   20.3360  133.5050 C.ar  124  TRP124      0.0003
     69  CD1       27.0420   21.2890  132.5470 C.ar  124  TRP124      0.0946
     70  CD2       25.4160   20.2390  133.6780 C.ar  124  TRP124      0.0152
     71  NE1       25.8320   21.7850  132.1020 N.ar  124  TRP124     -0.2442
     72  CE2       24.8190   21.1660  132.7820 C.ar  124  TRP124      0.0810
     73  CE3       24.5900   19.4490  134.4840 C.ar  124  TRP124      0.0012
     74  CZ2       23.4400   21.3220  132.6720 C.ar  124  TRP124      0.0191
     75  CZ3       23.2180   19.6280  134.3990 C.ar  124  TRP124      0.0001
     76  CH2       22.6560   20.5650  133.4970 C.ar  124  TRP124      0.0015
     77  N         29.0750   21.4610  129.2680 N.3   127  ASP127     -0.1239
     78  CA        27.9370   20.8340  128.6010 C.3   127  ASP127      0.1674
     79  C         28.3230   20.4440  127.1770 C.2   127  ASP127      0.2266
     80  O         28.4470   21.2920  126.2980 O.2   127  ASP127     -0.2867
     81  CB        26.7210   21.7620  128.5940 C.3   127  ASP127      0.1410
     82  CG        25.5190   21.1250  127.9710 C.2   127  ASP127      0.3668
     83  OD1       25.6820   20.0310  127.3860 O.co2 127  ASP127     -0.2456
     84  OD2       24.4110   21.7000  128.0680 O.co2 127  ASP127     -0.2456
     85  N         23.5040   15.4190  122.9570 N.3   131  TRP131     -0.1227
     86  CA        22.2340   14.8840  122.4890 C.3   131  TRP131      0.1737
     87  C         21.5890   15.7180  121.4010 C.2   131  TRP131      0.2595
     88  O         20.6000   15.2960  120.7980 O.2   131  TRP131     -0.2718
     89  CB        21.2460   14.7670  123.6400 C.3   131  TRP131      0.0564
     90  CG        20.9950   16.0640  124.3060 C.ar  131  TRP131      0.0003
     91  CD1       21.6670   16.5660  125.3690 C.ar  131  TRP131      0.0946
     92  CD2       20.0030   17.0330  123.9600 C.ar  131  TRP131      0.0152
     93  NE1       21.1670   17.7920  125.7080 N.ar  131  TRP131     -0.2442
     94  CE2       20.1390   18.1040  124.8610 C.ar  131  TRP131      0.0810
     95  CE3       19.0120   17.0990  122.9810 C.ar  131  TRP131      0.0012
     96  CZ2       19.3160   19.2310  124.8220 C.ar  131  TRP131      0.0191
     97  CZ3       18.1980   18.2280  122.9360 C.ar  131  TRP131      0.0001
     98  CH2       18.3580   19.2780  123.8560 C.ar  131  TRP131      0.0015
     99  N         22.1110   16.9130  121.1730 N.am  132  ARG132     -0.1980
    100  CA        21.5540   17.7770  120.1340 C.3   132  ARG132      0.1597
    101  C         22.0220   17.3390  118.7410 C.2   132  ARG132      0.2287
    102  O         21.2890   17.4490  117.7890 O.2   132  ARG132     -0.2864
    103  CB        21.9340   19.2290  120.4000 C.3   132  ARG132      0.0334
    104  CG        21.3710   19.7320  121.6980 C.3   132  ARG132      0.0492
    105  CD        21.8440   21.1360  122.0160 C.3   132  ARG132      0.2205
    106  NE        20.9440   21.7580  122.9840 N.pl3 132  ARG132     -0.0865
    107  CZ        19.9280   22.5480  122.6510 C.cat 132  ARG132      0.5346
    108  NH1       19.6940   22.8210  121.3720 N.pl3 132  ARG132      0.1354
    109  NH2       19.1470   23.0610  123.5920 N.pl3 132  ARG132      0.1354
    110  N         29.3040   16.9830  131.0700 N.3   161  LEU161     -0.1245
    111  CA        27.9740   16.4070  130.9580 C.3   161  LEU161      0.1561
    112  C         27.7890   15.7050  129.6280 C.2   161  LEU161      0.2260
    113  O         27.8960   16.3340  128.5820 O.2   161  LEU161     -0.2867
    114  CB        26.9260   17.4880  131.1150 C.3   161  LEU161      0.0270
    115  CG        25.5040   17.1130  130.7150 C.3   161  LEU161      0.0019
    116  CD1       24.9560   15.9800  131.5550 C.3   161  LEU161      0.0001
    117  CD2       24.6430   18.3690  130.8540 C.3   161  LEU161      0.0001
    118  N         25.6270   11.9550  127.7730 N.3   163  HIS163     -0.1241
    119  CA        24.4910   11.0520  127.8630 C.3   163  HIS163      0.1621
    120  C         24.8940    9.7460  127.1900 C.2   163  HIS163      0.2264
    121  O         25.2150    9.7510  126.0100 O.2   163  HIS163     -0.2867
    122  CB        23.2630   11.6520  127.1820 C.3   163  HIS163      0.0745
    123  CG        22.7230   12.8770  127.8520 C.ar  163  HIS163      0.0817
    124  ND1       23.4000   14.0830  127.8760 N.ar  163  HIS163     -0.2268
    125  CD2       21.5490   13.0910  128.4950 C.ar  163  HIS163      0.1154
    126  CE1       22.6760   14.9730  128.5290 C.ar  163  HIS163      0.1986
    127  NE2       21.5410   14.4030  128.9020 N.ar  163  HIS163     -0.2212
@<TRIPOS>BOND
     1   102   101    2
     2   101   100    1
     3   100   103    1
     4   100    99    1
     5   103   104    1
     6    88    87    2
     7    99    87   am
     8   108   107    1
     9    87    86    1
    10   104   105    1
    11   105   106    1
    12    86    85    1
    13    86    89    1
    14   107   106    2
    15   107   109    1
    16    97    95   ar
    17    97    98   ar
    18    95    92   ar
    19    89    90    1
    20    98    96   ar
    21    92    90   ar
    22    92    94   ar
    23    90    91   ar
    24    96    94   ar
    25    94    93   ar
    26    91    93   ar
    27   121   120    2
    28    80    79    2
    29    79    78    1
    30   122   123    1
    31   122   119    1
    32   120   119    1
    33    83    82   ar
    34   118   119    1
    35   123   124   ar
    36   123   125   ar
    37   124   126   ar
    38    82    84   ar
    39    82    81    1
    40   125   127   ar
    41   126   127   ar
    42   113   112    2
    43    81    78    1
    44    78    77    1
    45    16    14   ar
    46   112   111    1
    47     4     3    2
    48    13    14    1
    49    13    10    1
    50    59    57   ar
    51    59    61   ar
    52    14    15   ar
    53    62    61    1
    54   115   117    1
    55   115   114    1
    56   115   116    1
    57    12    11    2
    58   111   110    1
    59   111   114    1
    60    57    56   ar
    61    61    60   ar
    62    11    10    1
    63     3     9   am
    64     3     2    1
    65    10     9    1
    66     1     2    1
    67    35    36   ar
    68    35    33   ar
    69    71    69   ar
    70    71    72   ar
    71    36    34   ar
    72     5     2    1
    73     5     6    1
    74    33    32   ar
    75    56    55    1
    76    56    58   ar
    77    69    68   ar
    78    60    58   ar
    79    74    72   ar
    80    74    76   ar
    81    34    32   ar
    82    72    70   ar
    83    32    31    1
    84    30    29    2
    85     6     8   ar
    86     6     7   ar
    87    55    52    1
    88    52    51    1
    89    52    53    1
    90    31    28    1
    91    76    75   ar
    92    68    70   ar
    93    68    67    1
    94    70    73   ar
    95    51    46   am
    96    54    53    2
    97    26    24   ar
    98    26    25   ar
    99    29    28    1
   100    67    64    1
   101    75    73   ar
   102    24    22   ar
   103    28    27    1
   104    46    45    1
   105    46    47    2
   106    25    23   ar
   107    65    66    2
   108    65    64    1
   109    48    45    1
   110    48    49    1
   111    45    44    1
   112    64    63    1
   113    22    23   ar
   114    22    21    1
   115    40    39    2
   116    49    50    1
   117    21    18    1
   118    44    39   am
   119    44    50    1
   120    20    19    2
   121    39    38    1
   122    19    18    1
   123    18    17    1
   124    38    37    1
   125    38    41    1
   126    37    43    1
   127    41    42    1
   128    43    42    1
