@<TRIPOS>MOLECULE
tmp/5ncfA00.pdb
 123 119 0 0 0
SMALL
GASTEIGER

@<TRIPOS>ATOM
      1  N          1.1250   27.1460  -11.1310 N.3    16  MET16      -0.1245
      2  CA         1.1930   25.8540  -10.4660 C.3    16  MET16       0.1570
      3  C          2.0970   25.9680   -9.2460 C.2    16  MET16       0.2261
      4  O          2.9990   26.8070   -9.2010 O.2    16  MET16      -0.2867
      5  CB         1.7790   24.7810  -11.3980 C.3    16  MET16       0.0387
      6  CG         1.2900   24.8180  -12.8380 C.3    16  MET16       0.0595
      7  SD        -0.4480   24.3740  -12.9940 S.3    16  MET16      -0.1393
      8  CE        -0.6490   24.3710  -14.7750 C.3    16  MET16       0.0692
      9  N          4.2940   23.1440   -6.5900 N.3    18  TYR18      -0.1241
     10  CA         4.7490   21.7650   -6.5900 C.3    18  TYR18       0.1605
     11  C          4.4040   21.1190   -5.2580 C.2    18  TYR18       0.2264
     12  O          4.8040   21.6040   -4.2000 O.2    18  TYR18      -0.2867
     13  CB         6.2440   21.6720   -6.8860 C.3    18  TYR18       0.0534
     14  CG         6.6950   20.2840   -7.1840 C.ar   18  TYR18      -0.0201
     15  CD1        6.3500   19.6660   -8.3660 C.ar   18  TYR18      -0.0009
     16  CD2        7.4780   19.5750   -6.2790 C.ar   18  TYR18      -0.0009
     17  CE1        6.7610   18.3900   -8.6450 C.ar   18  TYR18       0.0417
     18  CE2        7.8850   18.2840   -6.5520 C.ar   18  TYR18       0.0417
     19  CZ         7.5270   17.7100   -7.7250 C.ar   18  TYR18       0.1957
     20  OH         7.9410   16.4490   -8.0180 O.3    18  TYR18      -0.2866
     21  N          2.7490   18.5970   -9.7330 N.3    25  TRP25      -0.1241
     22  CA         2.3020   19.9830   -9.7720 C.3    25  TRP25       0.1605
     23  C          0.8070   20.0350   -9.5080 C.2    25  TRP25       0.2264
     24  O          0.0570   19.1530   -9.9250 O.2    25  TRP25      -0.2867
     25  CB         2.5900   20.6260  -11.1330 C.3    25  TRP25       0.0550
     26  CG         4.0620   20.8740  -11.4190 C.ar   25  TRP25       0.0003
     27  CD1        4.8930   20.0860  -12.1600 C.ar   25  TRP25       0.0946
     28  CD2        4.8580   21.9790  -10.9730 C.ar   25  TRP25       0.0152
     29  NE1        6.1520   20.6270  -12.2050 N.ar   25  TRP25      -0.2442
     30  CE2        6.1520   21.7970  -11.4890 C.ar   25  TRP25       0.0810
     31  CE3        4.6020   23.1050  -10.1950 C.ar   25  TRP25       0.0012
     32  CZ2        7.1830   22.6790  -11.2240 C.ar   25  TRP25       0.0191
     33  CZ3        5.6250   23.9890   -9.9470 C.ar   25  TRP25       0.0001
     34  CH2        6.8970   23.7800  -10.4690 C.ar   25  TRP25       0.0015
     35  N         17.1400   32.4390   -8.2900 N.3    71  LYS71      -0.1245
     36  CA        17.4650   31.6700   -9.4800 C.3    71  LYS71       0.1561
     37  C         16.1630   31.3520  -10.2170 C.2    71  LYS71       0.2260
     38  O         15.3130   30.6010   -9.7130 O.2    71  LYS71      -0.2867
     39  CB        18.1800   30.3910   -9.0660 C.3    71  LYS71       0.0271
     40  CG        18.8640   29.6330  -10.1840 C.3    71  LYS71       0.0035
     41  CD        19.6610   28.4350   -9.6400 C.3    71  LYS71       0.0206
     42  CE        20.8170   28.8610   -8.7110 C.3    71  LYS71       0.1093
     43  NZ        21.4450   27.7470   -7.9450 N.3    71  LYS71      -0.1314
     44  N         14.4140   29.6830  -13.3800 N.3    73  ASN73      -0.1240
     45  CA        14.6800   28.5970  -14.3030 C.3    73  ASN73       0.1653
     46  C         13.7050   28.6590  -15.4670 C.2    73  ASN73       0.2266
     47  O         12.4970   28.4900  -15.2830 O.2    73  ASN73      -0.2867
     48  CB        14.5560   27.2600  -13.5710 C.3    73  ASN73       0.1155
     49  CG        14.9120   26.0810  -14.4560 C.2    73  ASN73       0.2627
     50  OD1       14.1270   25.1570  -14.6510 O.2    73  ASN73      -0.2716
     51  ND2       16.0950   26.1340  -15.0280 N.am   73  ASN73      -0.0877
     52  N         12.7390   26.4740  -17.8450 N.3    75  ALA75      -0.1231
     53  CA        12.8340   25.0460  -18.1290 C.3    75  ALA75       0.1694
     54  C         12.5320   24.7460  -19.5840 C.2    75  ALA75       0.2592
     55  O         13.2180   23.9320  -20.2060 O.2    75  ALA75      -0.2718
     56  CB        11.8740   24.2800  -17.2250 C.3    75  ALA75       0.0304
     57  N         11.4780   25.3540  -20.1290 N.am   76  THR76      -0.1953
     58  CA        11.2030   25.3810  -21.5640 C.3    76  THR76       0.1897
     59  C         10.8610   26.8160  -21.9620 C.2    76  THR76       0.2313
     60  O         10.8170   27.7280  -21.1310 O.2    76  THR76      -0.2863
     61  CB        10.0580   24.4240  -21.9280 C.3    76  THR76       0.1794
     62  OG1        8.8260   24.9370  -21.4150 O.3    76  THR76      -0.2208
     63  CG2       10.3050   23.0490  -21.3470 C.3    76  THR76       0.0378
     64  N          7.4760   27.1920  -20.0250 N.3    79  PHE79      -0.1241
     65  CA         7.3080   26.8140  -18.6160 C.3    79  PHE79       0.1605
     66  C          8.5190   27.2740  -17.8210 C.2    79  PHE79       0.2264
     67  O          9.6050   26.7020  -17.9640 O.2    79  PHE79      -0.2867
     68  CB         7.0940   25.3020  -18.4270 C.3    79  PHE79       0.0534
     69  CG         6.7840   24.9190  -16.9990 C.ar   79  PHE79      -0.0203
     70  CD1        5.4900   25.0020  -16.5060 C.ar   79  PHE79      -0.0042
     71  CD2        7.8010   24.5160  -16.1370 C.ar   79  PHE79      -0.0042
     72  CE1        5.2190   24.6930  -15.1980 C.ar   79  PHE79      -0.0003
     73  CE2        7.5280   24.1930  -14.8270 C.ar   79  PHE79      -0.0003
     74  CZ         6.2380   24.2770  -14.3610 C.ar   79  PHE79      -0.0000
     75  N         10.0080   28.5060  -13.7810 N.3    81  GLN81      -0.1231
     76  CA         9.7470   28.1090  -12.4110 C.3    81  GLN81       0.1698
     77  C         10.8240   28.6880  -11.5170 C.2    81  GLN81       0.2592
     78  O         11.9070   29.0560  -11.9810 O.2    81  GLN81      -0.2718
     79  CB         9.7170   26.5830  -12.2980 C.3    81  GLN81       0.0381
     80  CG        10.8450   25.9080  -13.0220 C.3    81  GLN81       0.0905
     81  CD        10.8110   24.4100  -12.9100 C.2    81  GLN81       0.2608
     82  OE1       10.1550   23.8590  -12.0420 O.2    81  GLN81      -0.2717
     83  NE2       11.5420   23.7450  -13.7760 N.am   81  GLN81      -0.0878
     84  N         10.5220   28.7420  -10.2230 N.am   82  TRP82      -0.1962
     85  CA        11.4790   29.2180   -9.2390 C.3    82  TRP82       0.1771
     86  C         11.0580   28.6770   -7.8870 C.2    82  TRP82       0.2619
     87  O          9.9440   28.1820   -7.7220 O.2    82  TRP82      -0.2715
     88  CB        11.5740   30.7540   -9.1770 C.3    82  TRP82       0.0590
     89  CG        10.3240   31.4500   -8.6800 C.ar   82  TRP82       0.0006
     90  CD1       10.0580   31.8750   -7.4040 C.ar   82  TRP82       0.0946
     91  CD2        9.1850   31.8010   -9.4660 C.ar   82  TRP82       0.0152
     92  NE1        8.8230   32.4640   -7.3530 N.ar   82  TRP82      -0.2442
     93  CE2        8.2670   32.4330   -8.6050 C.ar   82  TRP82       0.0810
     94  CE3        8.8580   31.6540  -10.8220 C.ar   82  TRP82       0.0012
     95  CZ2        7.0370   32.8840   -9.0490 C.ar   82  TRP82       0.0191
     96  CZ3        7.6370   32.1010  -11.2560 C.ar   82  TRP82       0.0001
     97  CH2        6.7440   32.7200  -10.3760 C.ar   82  TRP82       0.0015
     98  N         11.9550   28.8160   -6.9150 N.am   83  ARG83      -0.1977
     99  CA        11.7870   28.2610   -5.5880 C.3    83  ARG83       0.1597
    100  C         11.9960   29.3640   -4.5650 C.2    83  ARG83       0.2287
    101  O         12.6960   30.3570   -4.8090 O.2    83  ARG83      -0.2864
    102  CB        12.8440   27.1680   -5.3120 C.3    83  ARG83       0.0334
    103  CG        12.9710   26.1370   -6.4090 C.3    83  ARG83       0.0492
    104  CD        14.1610   25.1700   -6.2380 C.3    83  ARG83       0.2205
    105  NE        15.4790   25.8080   -6.0860 N.pl3  83  ARG83      -0.0865
    106  CZ        16.6310   25.2670   -6.4960 C.cat  83  ARG83       0.5346
    107  NH1       16.6500   24.0860   -7.0990 N.pl3  83  ARG83       0.1354
    108  NH2       17.7770   25.9080   -6.3190 N.pl3  83  ARG83       0.1354
    109  N          7.7590   25.7490   -4.3970 N.3    88  VAL88      -0.1245
    110  CA         8.2250   25.7980   -5.7770 C.3    88  VAL88       0.1561
    111  C          7.0470   26.1900   -6.6580 C.2    88  VAL88       0.2260
    112  O          5.9660   25.5720   -6.5910 O.2    88  VAL88      -0.2867
    113  CB         8.8170   24.4550   -6.2310 C.3    88  VAL88       0.0252
    114  CG1        9.4720   24.5860   -7.5860 C.3    88  VAL88       0.0019
    115  CG2        9.8130   23.9830   -5.2220 C.3    88  VAL88       0.0019
    116  N          3.0040   28.0910  -16.4130 N.3    92  ASN92      -0.1240
    117  CA         2.8080   27.4620  -17.7120 C.3    92  ASN92       0.1653
    118  C          2.1560   28.5140  -18.5970 C.2    92  ASN92       0.2266
    119  O          0.9370   28.7290  -18.5550 O.2    92  ASN92      -0.2867
    120  CB         1.9860   26.1850  -17.6340 C.3    92  ASN92       0.1155
    121  CG         2.1640   25.3090  -18.8620 C.2    92  ASN92       0.2627
    122  OD1        3.2890   25.0220  -19.2900 O.2    92  ASN92      -0.2716
    123  ND2        1.0470   24.9060  -19.4590 N.am   92  ASN92      -0.0877
@<TRIPOS>BOND
     1    59    58    1
     2    59    60    2
     3    61    58    1
     4    61    62    1
     5    61    63    1
     6    58    57    1
     7    55    54    2
     8    57    54   am
     9    64    65    1
    10    54    53    1
    11   123   121   am
    12   122   121    2
    13   121   120    1
    14    65    68    1
    15    65    66    1
    16   118   119    2
    17   118   117    1
    18    68    69    1
    19    53    52    1
    20    53    56    1
    21    67    66    2
    22   117   120    1
    23   117   116    1
    24    69    70   ar
    25    69    71   ar
    26    70    72   ar
    27    71    73   ar
    28    46    47    2
    29    46    45    1
    30    72    74   ar
    31    51    49   am
    32    73    74   ar
    33     8     7    1
    34    50    49    2
    35    49    48    1
    36    45    48    1
    37    45    44    1
    38    75    76    1
    39    83    81   am
    40    80    81    1
    41    80    79    1
    42     7     6    1
    43    81    82    2
    44     6     5    1
    45    76    79    1
    46    76    77    1
    47    29    27   ar
    48    29    30   ar
    49    27    26   ar
    50    78    77    2
    51    77    84   am
    52    30    32   ar
    53    30    28   ar
    54    26    25    1
    55    26    28   ar
    56     5     2    1
    57    96    94   ar
    58    96    97   ar
    59    32    34   ar
    60    25    22    1
    61     1     2    1
    62    28    31   ar
    63    94    91   ar
    64    34    33   ar
    65     2     3    1
    66    97    95   ar
    67    84    85    1
    68    37    38    2
    69    37    36    1
    70    31    33   ar
    71    40    41    1
    72    40    39    1
    73    24    23    2
    74    22    21    1
    75    22    23    1
    76    41    42    1
    77    36    39    1
    78    36    35    1
    79    91    89   ar
    80    91    93   ar
    81     3     4    2
    82    85    88    1
    83    85    86    1
    84    88    89    1
    85    95    93   ar
    86    42    43    1
    87    89    90   ar
    88    17    15   ar
    89    17    19   ar
    90    93    92   ar
    91    15    14   ar
    92    20    19    1
    93    86    87    2
    94    86    98   am
    95    19    18   ar
    96   114   113    1
    97    90    92   ar
    98    14    13    1
    99    14    16   ar
   100   107   106    1
   101    98    99    1
   102    13    10    1
   103   111   112    2
   104   111   110    1
   105     9    10    1
   106    10    11    1
   107    18    16   ar
   108   106   108    1
   109   106   105    2
   110   103   104    1
   111   103   102    1
   112   104   105    1
   113   113   110    1
   114   113   115    1
   115   110   109    1
   116    99   102    1
   117    99   100    1
   118    11    12    2
   119   101   100    2
