@<TRIPOS>MOLECULE
tmp/5ncgB02.pdb
 104 97 0 0 0
SMALL
GASTEIGER

@<TRIPOS>ATOM
      1  N         37.9430   18.6470    8.9260 N.3     2  SER2       -0.1202
      2  CA        38.1390   20.0680    8.6680 C.3     2  SER2        0.2020
      3  C         37.3640   20.5570    7.4510 C.2     2  SER2        0.2618
      4  O         36.9210   21.7190    7.4320 O.2     2  SER2       -0.2717
      5  CB        39.6260   20.3610    8.4610 C.3     2  SER2        0.2103
      6  OG        40.2680   20.4770    9.7130 O.3     2  SER2       -0.2182
      7  N         37.1860   19.6940    6.4360 N.am    3  MET3       -0.1979
      8  CA        36.6750   20.0830    5.1200 C.3     3  MET3        0.1605
      9  C         35.1680   20.3160    5.0740 C.2     3  MET3        0.2287
     10  O         34.6860   20.9010    4.0920 O.2     3  MET3       -0.2864
     11  CB        37.0250   19.0250    4.0590 C.3     3  MET3        0.0413
     12  CG        38.5100   18.7130    3.9410 C.3     3  MET3        0.0598
     13  SD        39.5010   20.1840    3.6230 S.3     3  MET3       -0.1393
     14  CE        41.0990   19.4590    3.3350 C.3     3  MET3        0.0692
     15  N         33.7760   22.3050    6.9960 N.3     5  GLU5       -0.1231
     16  CA        33.6850   23.7290    7.2510 C.3     5  GLU5        0.1699
     17  C         34.2930   24.4630    6.0530 C.2     5  GLU5        0.2592
     18  O         35.4320   24.1770    5.6620 O.2     5  GLU5       -0.2718
     19  CB        34.4400   24.1140    8.5300 C.3     5  GLU5        0.0402
     20  CG        34.2240   25.5740    8.8820 C.3     5  GLU5        0.1161
     21  CD        34.8500   26.0190   10.1990 C.2     5  GLU5        0.3649
     22  OE1       35.8720   25.4320   10.6290 O.co2   5  GLU5       -0.2457
     23  OE2       34.3220   26.9880   10.7860 O.co2   5  GLU5       -0.2457
     24  N         33.5310   25.3970    5.4660 N.am    6  GLN6       -0.1966
     25  CA        33.9020   26.0260    4.2020 C.3     6  GLN6        0.1733
     26  C         33.8020   27.5330    4.3540 C.2     6  GLN6        0.2617
     27  O         32.8880   28.0410    5.0020 O.2     6  GLN6       -0.2715
     28  CB        32.9430   25.5710    3.0870 C.3     6  GLN6        0.0408
     29  CG        33.1480   24.1150    2.6960 C.3     6  GLN6        0.0908
     30  CD        34.3510   23.9180    1.7920 C.2     6  GLN6        0.2608
     31  OE1       34.7060   24.8160    1.0230 O.2     6  GLN6       -0.2717
     32  NE2       34.9670   22.7610    1.8610 N.am    6  GLN6       -0.0878
     33  N         34.7280   28.2440    3.7350 N.am    7  SER7       -0.1950
     34  CA        34.6410   29.6870    3.6710 C.3     7  SER7        0.1924
     35  C         33.6150   30.0760    2.6210 C.2     7  SER7        0.2314
     36  O         33.6420   29.5570    1.5020 O.2     7  SER7       -0.2863
     37  CB        35.9820   30.2950    3.2980 C.3     7  SER7        0.2116
     38  OG        35.8560   31.7040    3.2150 O.3     7  SER7       -0.2180
     39  N         37.3560   36.0120    7.0650 N.3    38  HIS38      -0.1241
     40  CA        36.4750   35.0210    6.4580 C.3    38  HIS38       0.1621
     41  C         35.2120   34.8560    7.2870 C.2    38  HIS38       0.2264
     42  O         35.2220   34.9930    8.5140 O.2    38  HIS38      -0.2867
     43  CB        37.1500   33.6420    6.4230 C.3    38  HIS38       0.0745
     44  CG        38.2690   33.5160    5.4430 C.ar   38  HIS38       0.0817
     45  ND1       38.1080   32.8730    4.2380 N.ar   38  HIS38      -0.2268
     46  CD2       39.5700   33.8910    5.5000 C.ar   38  HIS38       0.1154
     47  CE1       39.2520   32.8900    3.5780 C.ar   38  HIS38       0.1986
     48  NE2       40.1540   33.5130    4.3150 N.ar   38  HIS38      -0.2212
     49  N         33.0460   31.4970    7.8540 N.3    40  TYR40      -0.1241
     50  CA        33.0670   30.0560    7.6450 C.3    40  TYR40       0.1605
     51  C         31.7250   29.4600    8.0360 C.2    40  TYR40       0.2264
     52  O         31.1290   29.8450    9.0470 O.2    40  TYR40      -0.2867
     53  CB        34.1490   29.3790    8.5010 C.3    40  TYR40       0.0534
     54  CG        35.5830   29.6530    8.0700 C.ar   40  TYR40      -0.0201
     55  CD1       36.1580   28.9420    7.0470 C.ar   40  TYR40      -0.0009
     56  CD2       36.3660   30.6070    8.7020 C.ar   40  TYR40      -0.0009
     57  CE1       37.4510   29.1800    6.6240 C.ar   40  TYR40       0.0417
     58  CE2       37.6760   30.8470    8.2870 C.ar   40  TYR40       0.0417
     59  CZ        38.2140   30.1100    7.2530 C.ar   40  TYR40       0.1957
     60  OH        39.5120   30.3630    6.8760 O.3    40  TYR40      -0.2866
     61  N         30.9550   31.2020   11.6970 N.3    49  ARG49      -0.1245
     62  CA        31.8660   31.9960   12.5260 C.3    49  ARG49       0.1563
     63  C         32.6420   32.9690   11.6430 C.2    49  ARG49       0.2260
     64  O         32.8030   32.7520   10.4360 O.2    49  ARG49      -0.2867
     65  CB        32.8320   31.1020   13.3410 C.3    49  ARG49       0.0307
     66  CG        33.7720   30.2490   12.5250 C.3    49  ARG49       0.0489
     67  CD        34.8340   29.6220   13.3800 C.3    49  ARG49       0.2205
     68  NE        35.6270   28.6510   12.6410 N.pl3  49  ARG49      -0.0865
     69  CZ        36.8520   28.2500   12.9650 C.cat  49  ARG49       0.5346
     70  NH1       37.5300   28.8000   13.9590 N.pl3  49  ARG49       0.1354
     71  NH2       37.4200   27.2960   12.2580 N.pl3  49  ARG49       0.1354
     72  N         36.3850   34.5370   11.2490 N.3    51  VAL51      -0.1245
     73  CA        37.7780   34.3490   11.6350 C.3    51  VAL51       0.1561
     74  C         38.6050   35.3040   10.7870 C.2    51  VAL51       0.2260
     75  O         38.4820   35.3080    9.5550 O.2    51  VAL51      -0.2867
     76  CB        38.2800   32.9000   11.4730 C.3    51  VAL51       0.0252
     77  CG1       39.6940   32.8200   12.0210 C.3    51  VAL51       0.0019
     78  CG2       37.3500   31.9200   12.1600 C.3    51  VAL51       0.0019
     79  N         42.6390   37.1050   10.2280 N.3    53  ARG53      -0.1245
     80  CA        44.0710   37.0050   10.4870 C.3    53  ARG53       0.1563
     81  C         44.7890   38.1940    9.8610 C.2    53  ARG53       0.2260
     82  O         44.5240   38.5570    8.7150 O.2    53  ARG53      -0.2867
     83  CB        44.6280   35.7000    9.9020 C.3    53  ARG53       0.0307
     84  CG        43.8910   34.4650   10.4080 C.3    53  ARG53       0.0489
     85  CD        44.4890   33.1930    9.9200 C.3    53  ARG53       0.2205
     86  NE        45.7360   32.9320   10.6210 N.pl3  53  ARG53      -0.0865
     87  CZ        46.2360   31.7380   10.8550 C.cat  53  ARG53       0.5346
     88  NH1       45.6330   30.6520   10.4140 N.pl3  53  ARG53       0.1354
     89  NH2       47.3600   31.6630   11.5440 N.pl3  53  ARG53       0.1354
     90  N         45.9570   35.4570   14.4070 N.3    60  VAL60      -0.1245
     91  CA        44.5010   35.3800   14.5200 C.3    60  VAL60       0.1561
     92  C         44.0330   36.5050   15.4360 C.2    60  VAL60       0.2260
     93  O         44.4450   36.5770   16.5960 O.2    60  VAL60      -0.2867
     94  CB        44.0630   34.0110   15.0710 C.3    60  VAL60       0.0252
     95  CG1       42.5530   33.9780   15.2290 C.3    60  VAL60       0.0019
     96  CG2       44.5410   32.8630   14.1650 C.3    60  VAL60       0.0019
     97  N         37.8730   35.3100   16.1970 N.3    63  ASN63      -0.1240
     98  CA        37.4650   33.9260   15.9710 C.3    63  ASN63       0.1653
     99  C         36.2010   33.7520   16.8150 C.2    63  ASN63       0.2266
    100  O         36.2780   33.3630   17.9790 O.2    63  ASN63      -0.2867
    101  CB        38.5900   33.0060   16.3940 C.3    63  ASN63       0.1155
    102  CG        38.3420   31.5490   16.0500 C.2    63  ASN63       0.2627
    103  OD1       37.2320   31.1680   15.6280 O.2    63  ASN63      -0.2716
    104  ND2       39.3800   30.6970   16.2510 N.am   63  ASN63      -0.0877
@<TRIPOS>BOND
     1    31    30    2
     2    36    35    2
     3    30    32   am
     4    30    29    1
     5    35    34    1
     6    29    28    1
     7    28    25    1
     8    38    37    1
     9    37    34    1
    10    14    13    1
    11    47    45   ar
    12    47    48   ar
    13    13    12    1
    14    34    33    1
    15    33    26   am
    16    12    11    1
    17    11     8    1
    18    10     9    2
    19    25    26    1
    20    25    24    1
    21    45    44   ar
    22    48    46   ar
    23    26    27    2
    24     9     8    1
    25     8     7    1
    26    44    46   ar
    27    44    43    1
    28    24    17   am
    29    18    17    2
    30    17    16    1
    31    43    40    1
    32     7     3   am
    33    40    39    1
    34    40    41    1
    35    57    55   ar
    36    57    59   ar
    37    60    59    1
    38    15    16    1
    39    55    54   ar
    40    16    19    1
    41    59    58   ar
    42    41    42    2
    43     4     3    2
    44     3     2    1
    45    50    49    1
    46    50    51    1
    47    50    53    1
    48    51    52    2
    49    54    53    1
    50    54    56   ar
    51    58    56   ar
    52     5     2    1
    53     5     6    1
    54    19    20    1
    55     2     1    1
    56    82    81    2
    57    20    21    1
    58    75    74    2
    59    81    80    1
    60    83    84    1
    61    83    80    1
    62    85    84    1
    63    85    86    1
    64    21    22   ar
    65    21    23   ar
    66    79    80    1
    67    88    87    1
    68    64    63    2
    69    86    87    2
    70    74    73    1
    71    87    89    1
    72    72    73    1
    73    76    73    1
    74    76    77    1
    75    76    78    1
    76    63    62    1
    77    61    62    1
    78    71    69    1
    79    66    65    1
    80    66    67    1
    81    62    65    1
    82    68    69    2
    83    68    67    1
    84    69    70    1
    85    96    94    1
    86    90    91    1
    87    91    94    1
    88    91    92    1
    89    94    95    1
    90    92    93    2
    91   103   102    2
    92    98    97    1
    93    98   101    1
    94    98    99    1
    95   102   104   am
    96   102   101    1
    97    99   100    2
