@<TRIPOS>MOLECULE
tmp/5ncgA02.pdb
 105 100 0 0 0
SMALL
GASTEIGER

@<TRIPOS>ATOM
      1  N         20.7820   15.4630   18.4870 N.3    17  VAL17      -0.1245
      2  CA        19.8150   15.2020   19.5450 C.3    17  VAL17       0.1561
      3  C         19.6540   16.4770   20.3450 C.2    17  VAL17       0.2260
      4  O         20.5730   17.2900   20.4570 O.2    17  VAL17      -0.2867
      5  CB        20.2000   14.0140   20.4490 C.3    17  VAL17       0.0252
      6  CG1       20.2290   12.7300   19.6130 C.3    17  VAL17       0.0019
      7  CG2       21.5180   14.2160   21.1830 C.3    17  VAL17       0.0019
      8  N         24.6300   13.8170   17.5870 N.3    28  ALA28      -0.1231
      9  CA        24.4350   12.4500   18.0320 C.3    28  ALA28       0.1694
     10  C         25.7730   11.7280   18.0230 C.2    28  ALA28       0.2593
     11  O         26.5200   11.7940   17.0500 O.2    28  ALA28      -0.2718
     12  CB        23.4280   11.7560   17.1150 C.3    28  ALA28       0.0304
     13  N         26.0930   11.0500   19.1180 N.am   29  GLY29      -0.1942
     14  CA        27.3540   10.3520   19.2480 C.3    29  GLY29       0.2014
     15  C         28.5580   11.1950   19.5910 C.2    29  GLY29       0.2639
     16  O         29.6510   10.6370   19.7420 O.2    29  GLY29      -0.2714
     17  N         28.3910   12.4980   19.7260 N.am   30  GLY30      -0.1954
     18  CA        29.4100   13.3640   20.2780 C.3    30  GLY30       0.1869
     19  C         30.1630   14.2600   19.3170 C.2    30  GLY30       0.2309
     20  O         30.8270   15.1970   19.7870 O.2    30  GLY30      -0.2863
     21  N         30.8350    5.4120   12.7760 N.3    59  GLN59      -0.1231
     22  CA        30.2530    5.3810   14.1060 C.3    59  GLN59       0.1698
     23  C         28.7370    5.3300   13.9790 C.2    59  GLN59       0.2592
     24  O         28.1470    6.1530   13.2680 O.2    59  GLN59      -0.2718
     25  CB        30.6380    6.6390   14.8850 C.3    59  GLN59       0.0381
     26  CG        30.1250    6.6050   16.3320 C.3    59  GLN59       0.0905
     27  CD        30.2280    7.9400   17.0690 C.2    59  GLN59       0.2608
     28  OE1       30.5640    8.9770   16.4990 O.2    59  GLN59      -0.2717
     29  NE2       29.8890    7.9200   18.3440 N.am   59  GLN59      -0.0878
     30  N         28.0940    4.4360   14.7290 N.am   60  VAL60      -0.1966
     31  CA        26.6360    4.3910   14.7610 C.3    60  VAL60       0.1727
     32  C         26.1610    5.5010   15.6840 C.2    60  VAL60       0.2616
     33  O         26.4790    5.5010   16.8790 O.2    60  VAL60      -0.2715
     34  CB        26.1290    3.0280   15.2410 C.3    60  VAL60       0.0290
     35  CG1       24.6070    3.0180   15.2530 C.3    60  VAL60       0.0023
     36  CG2       26.6740    1.8990   14.3720 C.3    60  VAL60       0.0023
     37  N         25.4480    6.4760   15.1230 N.am   61  VAL61      -0.1963
     38  CA        25.0060    7.6380   15.8860 C.3    61  VAL61       0.1727
     39  C         23.5170    7.6540   16.1430 C.2    61  VAL61       0.2616
     40  O         23.0590    8.4610   16.9730 O.2    61  VAL61      -0.2715
     41  CB        25.4810    8.9590   15.2480 C.3    61  VAL61       0.0290
     42  CG1       26.9980    8.9710   15.1500 C.3    61  VAL61       0.0023
     43  CG2       24.8530    9.1950   13.8870 C.3    61  VAL61       0.0023
     44  N         22.7450    6.8060   15.4720 N.am   62  ILE62      -0.1963
     45  CA        21.3160    6.6810   15.7260 C.3    62  ILE62       0.1727
     46  C         20.9060    5.2720   15.3400 C.2    62  ILE62       0.2616
     47  O         21.3610    4.7270   14.3340 O.2    62  ILE62      -0.2715
     48  CB        20.4920    7.7780   14.9910 C.3    62  ILE62       0.0290
     49  CG1       19.0120    7.6650   15.3260 C.3    62  ILE62       0.0022
     50  CG2       20.7060    7.7570   13.4890 C.3    62  ILE62       0.0023
     51  CD1       18.1290    8.7660   14.7460 C.3    62  ILE62       0.0001
     52  N         20.0610    4.6650   16.1780 N.am   63  ASN63      -0.1958
     53  CA        19.4900    3.3390   15.9220 C.3    63  ASN63       0.1819
     54  C         18.1470    3.3560   16.6510 C.2    63  ASN63       0.2621
     55  O         18.0430    3.0080   17.8280 O.2    63  ASN63      -0.2715
     56  CB        20.3730    2.2060   16.4250 C.3    63  ASN63       0.1195
     57  CG        19.6440    0.8890   16.3940 C.2    63  ASN63       0.2630
     58  OD1       18.6970    0.7380   15.6300 O.2    63  ASN63      -0.2716
     59  ND2       20.0660   -0.0780   17.2200 N.am   63  ASN63      -0.0877
     60  N         17.1460    3.8790   16.0160 N.am   64  CYS64      -0.1968
     61  CA        15.9360    4.0420   16.7720 C.3    64  CYS64       0.1712
     62  C         14.7950    3.4970   15.9680 C.2    64  CYS64       0.2296
     63  O         14.7760    3.5420   14.7370 O.2    64  CYS64      -0.2864
     64  CB        15.6980    5.4640   17.1540 C.3    64  CYS64       0.0983
     65  SG        15.4900    6.4070   15.7290 S.3    64  CYS64      -0.0798
     66  N         11.6620   10.5030   20.3290 N.3    84  ASP84      -0.1239
     67  CA        11.8570    9.2180   20.9650 C.3    84  ASP84       0.1674
     68  C         11.7130    9.4470   22.4710 C.2    84  ASP84       0.2266
     69  O         11.9090   10.5620   22.9640 O.2    84  ASP84      -0.2867
     70  CB        13.2460    8.6490   20.5260 C.3    84  ASP84       0.1410
     71  CG        13.6710    7.4070   21.2880 C.2    84  ASP84       0.3668
     72  OD1       14.3300    7.5750   22.3410 O.co2  84  ASP84      -0.2456
     73  OD2       13.4200    6.2730   20.8270 O.co2  84  ASP84      -0.2456
     74  N         13.5920    8.7670   24.8230 N.3    86  ARG86      -0.1231
     75  CA        14.8360    9.1830   25.4710 C.3    86  ARG86       0.1694
     76  C         15.3590   10.5300   24.9950 C.2    86  ARG86       0.2591
     77  O         16.0940   11.1970   25.7380 O.2    86  ARG86      -0.2718
     78  CB        15.9110    8.1290   25.2430 C.3    86  ARG86       0.0321
     79  CG        15.6300    6.8020   26.0010 C.3    86  ARG86       0.0489
     80  CD        16.0390    5.5810   25.2250 C.3    86  ARG86       0.2205
     81  NE        15.0330    5.3740   24.1840 N.pl3  86  ARG86      -0.0865
     82  CZ        14.1000    4.4260   24.1840 C.cat  86  ARG86       0.5346
     83  NH1       13.9880    3.5430   25.1910 N.pl3  86  ARG86       0.1354
     84  NH2       13.2530    4.3680   23.1710 N.pl3  86  ARG86       0.1354
     85  N         15.0360   10.9320   23.7730 N.am   87  GLN87      -0.1979
     86  CA        15.5150   12.2030   23.2540 C.3    87  GLN87       0.1601
     87  C         14.8030   12.5000   21.9430 C.2    87  GLN87       0.2287
     88  O         14.3150   11.6030   21.2610 O.2    87  GLN87      -0.2864
     89  CB        17.0410   12.2410   23.1200 C.3    87  GLN87       0.0394
     90  CG        17.6700   11.1260   22.3060 C.3    87  GLN87       0.0908
     91  CD        19.1910   11.0050   22.5480 C.2    87  GLN87       0.2608
     92  OE1       19.8080   11.7800   23.2900 O.2    87  GLN87      -0.2717
     93  NE2       19.7900   10.0410   21.8910 N.am   87  GLN87      -0.0878
     94  N         15.2960   13.5430   18.1280 N.3    89  TYR89      -0.1241
     95  CA        16.2660   13.4480   17.0480 C.3    89  TYR89       0.1605
     96  C         16.0000   14.5290   16.0050 C.2    89  TYR89       0.2264
     97  O         14.8550   14.8430   15.6800 O.2    89  TYR89      -0.2867
     98  CB        16.2070   12.0680   16.3860 C.3    89  TYR89       0.0534
     99  CG        16.7620   10.9700   17.2710 C.ar   89  TYR89      -0.0201
    100  CD1       18.1290   10.8440   17.4500 C.ar   89  TYR89      -0.0009
    101  CD2       15.9420   10.1170   17.9780 C.ar   89  TYR89      -0.0009
    102  CE1       18.6680    9.8900   18.2930 C.ar   89  TYR89       0.0417
    103  CE2       16.4810    9.1410   18.8350 C.ar   89  TYR89       0.0417
    104  CZ        17.8390    9.0620   18.9930 C.ar   89  TYR89       0.1957
    105  OH        18.3850    8.1210   19.8450 O.3    89  TYR89      -0.2866
@<TRIPOS>BOND
     1    21    22    1
     2    24    23    2
     3    50    48    1
     4    43    41    1
     5    23    22    1
     6    23    30   am
     7    22    25    1
     8    47    46    2
     9    36    34    1
    10    30    31    1
    11    63    62    2
    12    51    49    1
    13    31    34    1
    14    31    32    1
    15    25    26    1
    16    48    49    1
    17    48    45    1
    18    37    32   am
    19    37    38    1
    20    42    41    1
    21    34    35    1
    22    41    38    1
    23    46    45    1
    24    46    52   am
    25    44    45    1
    26    44    39   am
    27    58    57    2
    28    97    96    2
    29    32    33    2
    30    65    64    1
    31    38    39    1
    32    53    52    1
    33    53    56    1
    34    53    54    1
    35    62    61    1
    36    96    95    1
    37    60    54   am
    38    60    61    1
    39    39    40    2
    40    26    27    1
    41    98    95    1
    42    98    99    1
    43    57    56    1
    44    57    59   am
    45    28    27    2
    46    54    55    2
    47    61    64    1
    48    95    94    1
    49    11    10    2
    50    27    29   am
    51    12     9    1
    52    99   100   ar
    53    99   101   ar
    54   100   102   ar
    55     8     9    1
    56   101   103   ar
    57    10     9    1
    58    10    13   am
    59   102   104   ar
    60     1     2    1
    61   103   104   ar
    62   104   105    1
    63    13    14    1
    64    14    15    1
    65    19    20    2
    66    19    18    1
    67     2     3    1
    68     2     5    1
    69    15    17   am
    70    15    16    2
    71     6     5    1
    72    17    18    1
    73    66    67    1
    74     3     4    2
    75     5     7    1
    76    70    67    1
    77    70    71    1
    78    73    71   ar
    79    67    68    1
    80    88    87    2
    81    71    72   ar
    82    93    91   am
    83    87    86    1
    84    90    91    1
    85    90    89    1
    86    68    69    2
    87    91    92    2
    88    89    86    1
    89    84    82    1
    90    86    85    1
    91    85    76   am
    92    82    81    2
    93    82    83    1
    94    81    80    1
    95    74    75    1
    96    76    75    1
    97    76    77    2
    98    80    79    1
    99    78    75    1
   100    78    79    1
