@<TRIPOS>MOLECULE
tmp/5nciB00.pdb
 135 130 0 0 0
SMALL
GASTEIGER

@<TRIPOS>ATOM
      1  N       -124.3850  111.6250   75.7470 N.3    97  LYS97      -0.1245
      2  CA      -125.7100  111.3880   75.2050 C.3    97  LYS97       0.1561
      3  C       -126.7250  112.3170   75.8420 C.2    97  LYS97       0.2260
      4  O       -126.5640  112.7780   76.9810 O.2    97  LYS97      -0.2867
      5  CB      -126.1390  109.9100   75.4080 C.3    97  LYS97       0.0271
      6  CG      -126.1150  109.3860   76.8220 C.3    97  LYS97       0.0035
      7  CD      -126.4730  107.8900   76.8400 C.3    97  LYS97       0.0206
      8  CE      -126.2090  107.2840   78.2080 C.3    97  LYS97       0.1093
      9  NZ      -124.7670  107.1880   78.5680 N.3    97  LYS97      -0.1314
     10  N       -130.7920  111.8830   76.4660 N.3    99  ASN99      -0.1240
     11  CA      -131.9580  111.0030   76.3820 C.3    99  ASN99       0.1653
     12  C       -133.1730  111.9070   76.5390 C.2    99  ASN99       0.2266
     13  O       -133.4780  112.3710   77.6460 O.2    99  ASN99      -0.2867
     14  CB      -131.9390  109.9070   77.4370 C.3    99  ASN99       0.1155
     15  CG      -130.8540  108.8750   77.1880 C.2    99  ASN99       0.2627
     16  OD1     -130.2640  108.7990   76.0890 O.2    99  ASN99      -0.2716
     17  ND2     -130.5590  108.0850   78.2300 N.am   99  ASN99      -0.0877
     18  N       -136.7750  103.2590   79.8740 N.3   109  TRP109     -0.1241
     19  CA      -135.4390  102.6910   79.7840 C.3   109  TRP109      0.1605
     20  C       -135.3470  101.5070   80.7400 C.2   109  TRP109      0.2264
     21  O       -135.6340  101.6280   81.9460 O.2   109  TRP109     -0.2867
     22  CB      -134.3620  103.7380   80.0950 C.3   109  TRP109      0.0550
     23  CG      -134.3000  104.8400   79.0600 C.ar  109  TRP109      0.0003
     24  CD1     -135.0750  105.9700   79.0120 C.ar  109  TRP109      0.0946
     25  CD2     -133.4550  104.8910   77.9040 C.ar  109  TRP109      0.0152
     26  NE1     -134.7540  106.7300   77.9030 N.ar  109  TRP109     -0.2442
     27  CE2     -133.7730  106.0830   77.1980 C.ar  109  TRP109      0.0810
     28  CE3     -132.4610  104.0540   77.4030 C.ar  109  TRP109      0.0012
     29  CZ2     -133.1170  106.4580   76.0260 C.ar  109  TRP109      0.0191
     30  CZ3     -131.8140  104.4230   76.2310 C.ar  109  TRP109      0.0001
     31  CH2     -132.1480  105.6210   75.5560 C.ar  109  TRP109      0.0015
     32  N       -131.0000   98.2280   84.3630 N.3   112  HIS112     -0.1241
     33  CA      -129.7020   97.7420   83.8910 C.3   112  HIS112      0.1621
     34  C       -128.5730   98.3380   84.7180 C.2   112  HIS112      0.2264
     35  O       -128.7720   99.2510   85.5280 O.2   112  HIS112     -0.2867
     36  CB      -129.4950   98.1180   82.4170 C.3   112  HIS112      0.0745
     37  CG      -129.3530   99.5830   82.2110 C.ar  112  HIS112      0.0817
     38  ND1     -130.4240  100.4520   82.2850 N.ar  112  HIS112     -0.2268
     39  CD2     -128.2610  100.3520   81.9730 C.ar  112  HIS112      0.1154
     40  CE1     -129.9900  101.6920   82.1240 C.ar  112  HIS112      0.1986
     41  NE2     -128.6890  101.6580   81.9160 N.ar  112  HIS112     -0.2212
     42  N       -124.6600   99.9570   83.7040 N.3   114  ASP114     -0.1239
     43  CA      -123.9810  100.4550   82.5100 C.3   114  ASP114      0.1674
     44  C       -122.6910   99.7120   82.2190 C.2   114  ASP114      0.2266
     45  O       -122.3670   99.4530   81.0520 O.2   114  ASP114     -0.2867
     46  CB      -123.6580  101.9300   82.6610 C.3   114  ASP114      0.1410
     47  CG      -124.9020  102.8570   82.5950 C.2   114  ASP114      0.3668
     48  OD1     -126.0220  102.4550   82.2010 O.co2 114  ASP114     -0.2456
     49  OD2     -124.7030  104.0200   82.9760 O.co2 114  ASP114     -0.2456
     50  N       -120.4990   98.2110   78.4550 N.3   118  TRP118     -0.1241
     51  CA      -119.2540   98.7120   77.8760 C.3   118  TRP118      0.1605
     52  C       -118.1290   97.6810   77.9700 C.2   118  TRP118      0.2264
     53  O       -117.2780   97.5870   77.0650 O.2   118  TRP118     -0.2867
     54  CB      -118.8510   99.9980   78.5880 C.3   118  TRP118      0.0550
     55  CG      -119.8230  101.1110   78.3860 C.ar  118  TRP118      0.0003
     56  CD1     -120.5240  101.3760   77.2500 C.ar  118  TRP118      0.0946
     57  CD2     -120.2210  102.0980   79.3480 C.ar  118  TRP118      0.0152
     58  NE1     -121.3360  102.4690   77.4420 N.ar  118  TRP118     -0.2442
     59  CE2     -121.1520  102.9460   78.7120 C.ar  118  TRP118      0.0810
     60  CE3     -119.8720  102.3540   80.6810 C.ar  118  TRP118      0.0012
     61  CZ2     -121.7630  104.0330   79.3700 C.ar  118  TRP118      0.0191
     62  CZ3     -120.4660  103.4400   81.3340 C.ar  118  TRP118      0.0001
     63  CH2     -121.4050  104.2620   80.6760 C.ar  118  TRP118      0.0015
     64  N       -135.0200  109.0290   86.2960 N.3   146  VAL146     -0.1245
     65  CA      -134.2070  107.8610   86.5860 C.3   146  VAL146      0.1561
     66  C       -134.5160  107.3960   87.9990 C.2   146  VAL146      0.2260
     67  O       -134.5910  108.1960   88.9480 O.2   146  VAL146     -0.2867
     68  CB      -132.7120  108.1690   86.4230 C.3   146  VAL146      0.0252
     69  CG1     -131.8480  106.9760   86.7880 C.3   146  VAL146      0.0019
     70  CG2     -132.4200  108.5770   85.0120 C.3   146  VAL146      0.0019
     71  N       -130.2950   99.6300   76.6440 N.3   174  PRO174     -0.2116
     72  CA      -130.1150   98.8820   77.8880 C.3   174  PRO174      0.1372
     73  C       -130.9450   97.6170   77.9580 C.2   174  PRO174      0.2244
     74  O       -130.6230   96.7020   78.7300 O.2   174  PRO174     -0.2868
     75  CB      -130.5750   99.8910   78.9550 C.3   174  PRO174      0.0268
     76  CG      -130.3370  101.2020   78.3770 C.3   174  PRO174      0.0207
     77  CD      -130.4870  101.0740   76.8910 C.3   174  PRO174      0.0892
     78  N       -123.6480  109.5230   89.0410 N.3   206  PHE206     -0.1241
     79  CA      -123.9930  108.1670   89.4430 C.3   206  PHE206      0.1605
     80  C       -123.0030  107.1550   88.8880 C.2   206  PHE206      0.2264
     81  O       -122.3770  107.3400   87.8350 O.2   206  PHE206     -0.2867
     82  CB      -125.4570  107.8240   89.0830 C.3   206  PHE206      0.0534
     83  CG      -125.7740  107.8250   87.6090 C.ar  206  PHE206     -0.0203
     84  CD1     -126.1020  108.9920   86.9530 C.ar  206  PHE206     -0.0042
     85  CD2     -125.8560  106.6240   86.9150 C.ar  206  PHE206     -0.0042
     86  CE1     -126.4590  108.9730   85.5950 C.ar  206  PHE206     -0.0003
     87  CE2     -126.2200  106.6140   85.5740 C.ar  206  PHE206     -0.0003
     88  CZ      -126.5090  107.7740   84.9260 C.ar  206  PHE206     -0.0000
     89  N       -130.2530  100.8400   87.5600 N.3   212  HIS212     -0.1226
     90  CA      -131.1380  101.9650   87.3380 C.3   212  HIS212      0.1752
     91  C       -131.9910  101.7460   86.1000 C.2   212  HIS212      0.2597
     92  O       -131.6920  100.9060   85.2440 O.2   212  HIS212     -0.2718
     93  CB      -130.3270  103.2740   87.2280 C.3   212  HIS212      0.0759
     94  CG      -129.3530  103.3060   86.0680 C.ar  212  HIS212      0.0818
     95  ND1     -128.1530  102.6230   86.0840 N.ar  212  HIS212     -0.2268
     96  CD2     -129.3960  103.9500   84.8750 C.ar  212  HIS212      0.1154
     97  CE1     -127.5120  102.8310   84.9390 C.ar  212  HIS212      0.1986
     98  NE2     -128.2510  103.6190   84.1930 N.ar  212  HIS212     -0.2212
     99  N       -133.0730  102.5180   86.0240 N.am  213  GLY213     -0.1942
    100  CA      -134.0070  102.4550   84.9170 C.3   213  GLY213      0.2014
    101  C       -134.9780  103.6270   85.0230 C.2   213  GLY213      0.2639
    102  O       -134.9100  104.4290   85.9550 O.2   213  GLY213     -0.2714
    103  N       -135.9380  103.6800   84.1110 N.am  214  SER214     -0.1949
    104  CA      -136.8950  104.7890   84.1300 C.3   214  SER214      0.1924
    105  C       -138.1570  104.3960   83.3690 C.2   214  SER214      0.2314
    106  O       -138.1200  103.5540   82.4620 O.2   214  SER214     -0.2863
    107  CB      -136.2900  106.0810   83.5570 C.3   214  SER214      0.2116
    108  OG      -136.0270  105.9360   82.1470 O.3   214  SER214     -0.2180
    109  N       -138.7870  115.3900   79.4210 N.3   223  ARG223     -0.1245
    110  CA      -137.7010  115.0980   80.3470 C.3   223  ARG223      0.1563
    111  C       -136.4280  114.8930   79.5330 C.2   223  ARG223      0.2260
    112  O       -136.1190  113.7660   79.1170 O.2   223  ARG223     -0.2867
    113  CB      -138.0030  113.8860   81.1900 C.3   223  ARG223      0.0307
    114  CG      -137.0550  113.7170   82.3340 C.3   223  ARG223      0.0489
    115  CD      -136.5560  112.2940   82.4530 C.3   223  ARG223      0.2205
    116  NE      -135.7970  111.8630   81.2750 N.pl3 223  ARG223     -0.0865
    117  CZ      -135.1410  110.7130   81.1910 C.cat 223  ARG223      0.5346
    118  NH1     -135.1460  109.8660   82.1960 N.pl3 223  ARG223      0.1354
    119  NH2     -134.4640  110.3950   80.0950 N.pl3 223  ARG223      0.1354
    120  N       -132.6040  114.5840   79.5320 N.3   225  LEU225     -0.1245
    121  CA      -131.5550  114.2250   80.4760 C.3   225  LEU225      0.1561
    122  C       -130.2640  114.0440   79.6980 C.2   225  LEU225      0.2260
    123  O       -130.1400  113.1030   78.9180 O.2   225  LEU225     -0.2867
    124  CB      -131.9040  112.9570   81.2330 C.3   225  LEU225      0.0270
    125  CG      -130.8220  112.4310   82.1630 C.3   225  LEU225      0.0019
    126  CD1     -130.5080  113.4590   83.2610 C.3   225  LEU225      0.0001
    127  CD2     -131.3160  111.1500   82.7870 C.3   225  LEU225      0.0001
    128  N       -126.2880  113.0760   79.7520 N.3   227  ILE227     -0.1245
    129  CA      -125.3930  112.2500   80.5620 C.3   227  ILE227      0.1561
    130  C       -124.0320  112.2340   79.9020 C.2   227  ILE227      0.2260
    131  O       -123.9100  111.8020   78.7520 O.2   227  ILE227     -0.2867
    132  CB      -125.8980  110.8070   80.7330 C.3   227  ILE227      0.0252
    133  CG1     -127.2780  110.7830   81.3920 C.3   227  ILE227      0.0019
    134  CG2     -124.8740  109.9840   81.5610 C.3   227  ILE227      0.0019
    135  CD1     -127.9640  109.4130   81.3430 C.3   227  ILE227      0.0001
@<TRIPOS>BOND
     1     2     5    1
     2     2     1    1
     3     2     3    1
     4     5     6    1
     5    31    29   ar
     6    31    30   ar
     7     3     4    2
     8    29    27   ar
     9    16    15    2
    10    30    28   ar
    11    11    10    1
    12    11    12    1
    13    11    14    1
    14    12    13    2
    15    71    77    1
    16    71    72    1
    17     6     7    1
    18     7     8    1
    19    77    76    1
    20    53    52    2
    21    15    14    1
    22    15    17   am
    23    27    26   ar
    24    27    25   ar
    25    56    58   ar
    26    56    55   ar
    27    28    25   ar
    28    58    59   ar
    29    51    52    1
    30    51    50    1
    31    51    54    1
    32    72    73    1
    33    72    75    1
    34    26    24   ar
    35    25    23   ar
    36    73    74    2
    37     8     9    1
    38    76    75    1
    39    55    54    1
    40    55    57   ar
    41    59    57   ar
    42    59    61   ar
    43   131   130    2
    44   123   122    2
    45    24    23   ar
    46    23    22    1
    47   112   111    2
    48    57    60   ar
    49    61    63   ar
    50   109   110    1
    51   120   121    1
    52   111   110    1
    53   122   121    1
    54   128   129    1
    55    19    18    1
    56    19    22    1
    57    19    20    1
    58   130   129    1
    59   119   117    1
    60   110   113    1
    61   121   124    1
    62   129   132    1
    63    63    62   ar
    64    60    62   ar
    65   132   133    1
    66   132   134    1
    67    20    21    2
    68    45    44    2
    69   113   114    1
    70   117   116    2
    71   117   118    1
    72   124   125    1
    73   116   115    1
    74   135   133    1
    75    41    39   ar
    76    41    40   ar
    77    39    37   ar
    78    40    38   ar
    79   108   107    1
    80   125   127    1
    81   125   126    1
    82    48    47   ar
    83    37    38   ar
    84    37    36    1
    85    44    43    1
    86   114   115    1
    87    36    33    1
    88   106   105    2
    89    43    46    1
    90    43    42    1
    91    47    46    1
    92    47    49   ar
    93   105   104    1
    94   107   104    1
    95    33    32    1
    96    33    34    1
    97   103   104    1
    98   103   101   am
    99    98    96   ar
   100    98    97   ar
   101    34    35    2
   102    96    94   ar
   103   100   101    1
   104   100    99    1
   105    88    87   ar
   106    88    86   ar
   107    97    95   ar
   108    70    68    1
   109   101   102    2
   110    92    91    2
   111    87    85   ar
   112    86    84   ar
   113    99    91   am
   114    94    95   ar
   115    94    93    1
   116    91    90    1
   117    64    65    1
   118    68    65    1
   119    68    69    1
   120    65    66    1
   121    85    83   ar
   122    84    83   ar
   123    93    90    1
   124    90    89    1
   125    83    82    1
   126    81    80    2
   127    66    67    2
   128    80    79    1
   129    78    79    1
   130    82    79    1
