@<TRIPOS>MOLECULE
tmp/5nciB01.pdb
 125 122 0 0 0
SMALL
GASTEIGER

@<TRIPOS>ATOM
      1  N       -126.4620  111.2590   70.4200 N.3    61  TYR61      -0.1241
      2  CA      -125.0830  111.0440   70.8300 C.3    61  TYR61       0.1605
      3  C       -124.1760  112.1550   70.3150 C.2    61  TYR61       0.2264
      4  O       -124.3470  112.6460   69.1870 O.2    61  TYR61      -0.2867
      5  CB      -124.5520  109.7000   70.3150 C.3    61  TYR61       0.0534
      6  CG      -125.0600  108.5620   71.1400 C.ar   61  TYR61      -0.0201
      7  CD1     -124.4020  108.1870   72.3060 C.ar   61  TYR61      -0.0009
      8  CD2     -126.2450  107.9140   70.8110 C.ar   61  TYR61      -0.0009
      9  CE1     -124.8890  107.1600   73.1020 C.ar   61  TYR61       0.0417
     10  CE2     -126.7330  106.8920   71.6060 C.ar   61  TYR61       0.0417
     11  CZ      -126.0490  106.5340   72.7480 C.ar   61  TYR61       0.1957
     12  OH      -126.5310  105.5380   73.5240 O.3    61  TYR61      -0.2866
     13  N       -118.4860  108.7010   76.7610 N.3    95  GLN95      -0.1245
     14  CA      -119.7660  108.7530   76.0660 C.3    95  GLN95       0.1566
     15  C       -120.4640  110.0620   76.4120 C.2    95  GLN95       0.2260
     16  O       -120.3850  110.5320   77.5560 O.2    95  GLN95      -0.2867
     17  CB      -120.6300  107.5400   76.4590 C.3    95  GLN95       0.0367
     18  CG      -121.8970  107.3870   75.6820 C.3    95  GLN95       0.0905
     19  CD      -122.4880  106.0050   75.7900 C.2    95  GLN95       0.2608
     20  OE1     -123.3090  105.7430   76.6650 O.2    95  GLN95      -0.2717
     21  NE2     -122.0620  105.1120   74.9190 N.am   95  GLN95      -0.0878
     22  N       -124.3850  111.6250   75.7470 N.3    97  LYS97      -0.1245
     23  CA      -125.7100  111.3880   75.2050 C.3    97  LYS97       0.1561
     24  C       -126.7250  112.3170   75.8420 C.2    97  LYS97       0.2260
     25  O       -126.5640  112.7780   76.9810 O.2    97  LYS97      -0.2867
     26  CB      -126.1390  109.9100   75.4080 C.3    97  LYS97       0.0271
     27  CG      -126.1150  109.3860   76.8220 C.3    97  LYS97       0.0035
     28  CD      -126.4730  107.8900   76.8400 C.3    97  LYS97       0.0206
     29  CE      -126.2090  107.2840   78.2080 C.3    97  LYS97       0.1093
     30  NZ      -124.7670  107.1880   78.5680 N.3    97  LYS97      -0.1314
     31  N       -136.7750  103.2590   79.8740 N.3   109  TRP109     -0.1241
     32  CA      -135.4390  102.6910   79.7840 C.3   109  TRP109      0.1605
     33  C       -135.3470  101.5070   80.7400 C.2   109  TRP109      0.2264
     34  O       -135.6340  101.6280   81.9460 O.2   109  TRP109     -0.2867
     35  CB      -134.3620  103.7380   80.0950 C.3   109  TRP109      0.0550
     36  CG      -134.3000  104.8400   79.0600 C.ar  109  TRP109      0.0003
     37  CD1     -135.0750  105.9700   79.0120 C.ar  109  TRP109      0.0946
     38  CD2     -133.4550  104.8910   77.9040 C.ar  109  TRP109      0.0152
     39  NE1     -134.7540  106.7300   77.9030 N.ar  109  TRP109     -0.2442
     40  CE2     -133.7730  106.0830   77.1980 C.ar  109  TRP109      0.0810
     41  CE3     -132.4610  104.0540   77.4030 C.ar  109  TRP109      0.0012
     42  CZ2     -133.1170  106.4580   76.0260 C.ar  109  TRP109      0.0191
     43  CZ3     -131.8140  104.4230   76.2310 C.ar  109  TRP109      0.0001
     44  CH2     -132.1480  105.6210   75.5560 C.ar  109  TRP109      0.0015
     45  N       -131.0000   98.2280   84.3630 N.3   112  HIS112     -0.1241
     46  CA      -129.7020   97.7420   83.8910 C.3   112  HIS112      0.1621
     47  C       -128.5730   98.3380   84.7180 C.2   112  HIS112      0.2264
     48  O       -128.7720   99.2510   85.5280 O.2   112  HIS112     -0.2867
     49  CB      -129.4950   98.1180   82.4170 C.3   112  HIS112      0.0745
     50  CG      -129.3530   99.5830   82.2110 C.ar  112  HIS112      0.0817
     51  ND1     -130.4240  100.4520   82.2850 N.ar  112  HIS112     -0.2268
     52  CD2     -128.2610  100.3520   81.9730 C.ar  112  HIS112      0.1154
     53  CE1     -129.9900  101.6920   82.1240 C.ar  112  HIS112      0.1986
     54  NE2     -128.6890  101.6580   81.9160 N.ar  112  HIS112     -0.2212
     55  N       -124.6600   99.9570   83.7040 N.3   114  ASP114     -0.1239
     56  CA      -123.9810  100.4550   82.5100 C.3   114  ASP114      0.1674
     57  C       -122.6910   99.7120   82.2190 C.2   114  ASP114      0.2266
     58  O       -122.3670   99.4530   81.0520 O.2   114  ASP114     -0.2867
     59  CB      -123.6580  101.9300   82.6610 C.3   114  ASP114      0.1410
     60  CG      -124.9020  102.8570   82.5950 C.2   114  ASP114      0.3668
     61  OD1     -126.0220  102.4550   82.2010 O.co2 114  ASP114     -0.2456
     62  OD2     -124.7030  104.0200   82.9760 O.co2 114  ASP114     -0.2456
     63  N       -122.3020   96.5690   79.9060 N.3   117  VAL117     -0.1231
     64  CA      -122.4920   96.8180   78.4780 C.3   117  VAL117      0.1692
     65  C       -121.1860   97.2510   77.8370 C.2   117  VAL117      0.2592
     66  O       -120.7880   96.7410   76.7790 O.2   117  VAL117     -0.2718
     67  CB      -123.5930   97.8630   78.2460 C.3   117  VAL117      0.0266
     68  CG1     -123.7070   98.1770   76.7590 C.3   117  VAL117      0.0020
     69  CG2     -124.9140   97.3870   78.8260 C.3   117  VAL117      0.0020
     70  N       -120.4990   98.2110   78.4550 N.am  118  TRP118     -0.1976
     71  CA      -119.2540   98.7120   77.8760 C.3   118  TRP118      0.1640
     72  C       -118.1290   97.6810   77.9700 C.2   118  TRP118      0.2290
     73  O       -117.2780   97.5870   77.0650 O.2   118  TRP118     -0.2864
     74  CB      -118.8510   99.9980   78.5880 C.3   118  TRP118      0.0576
     75  CG      -119.8230  101.1110   78.3860 C.ar  118  TRP118      0.0006
     76  CD1     -120.5240  101.3760   77.2500 C.ar  118  TRP118      0.0946
     77  CD2     -120.2210  102.0980   79.3480 C.ar  118  TRP118      0.0152
     78  NE1     -121.3360  102.4690   77.4420 N.ar  118  TRP118     -0.2442
     79  CE2     -121.1520  102.9460   78.7120 C.ar  118  TRP118      0.0810
     80  CE3     -119.8720  102.3540   80.6810 C.ar  118  TRP118      0.0012
     81  CZ2     -121.7630  104.0330   79.3700 C.ar  118  TRP118      0.0191
     82  CZ3     -120.4660  103.4400   81.3340 C.ar  118  TRP118      0.0001
     83  CH2     -121.4050  104.2620   80.6760 C.ar  118  TRP118      0.0015
     84  N       -126.9930  101.9280   68.7310 N.3   171  HIS171     -0.1226
     85  CA      -126.3650  101.9120   70.0380 C.3   171  HIS171      0.1752
     86  C       -126.8600  100.6470   70.7230 C.2   171  HIS171      0.2595
     87  O       -127.6160   99.8680   70.1370 O.2   171  HIS171     -0.2718
     88  CB      -126.6850  103.1780   70.8480 C.3   171  HIS171      0.0759
     89  CG      -128.1050  103.2720   71.3430 C.ar  171  HIS171      0.0818
     90  ND1     -128.4290  103.9630   72.4860 N.ar  171  HIS171     -0.2268
     91  CD2     -129.2780  102.8020   70.8480 C.ar  171  HIS171      0.1154
     92  CE1     -129.7350  103.9200   72.6820 C.ar  171  HIS171      0.1986
     93  NE2     -130.2770  103.2100   71.7100 N.ar  171  HIS171     -0.2212
     94  N       -126.3920  100.4100   71.9380 N.am  172  VAL172     -0.1980
     95  CA      -126.8710   99.2770   72.7210 C.3   172  VAL172      0.1595
     96  C       -127.9740   99.8270   73.6110 C.2   172  VAL172      0.2287
     97  O       -127.7010  100.5030   74.6010 O.2   172  VAL172     -0.2864
     98  CB      -125.7790   98.6070   73.5560 C.3   172  VAL172      0.0276
     99  CG1     -126.3980   97.4440   74.3480 C.3   172  VAL172      0.0022
    100  CG2     -124.6420   98.0830   72.7090 C.3   172  VAL172      0.0022
    101  N       -130.2950   99.6300   76.6440 N.3   174  PRO174     -0.2116
    102  CA      -130.1150   98.8820   77.8880 C.3   174  PRO174      0.1372
    103  C       -130.9450   97.6170   77.9580 C.2   174  PRO174      0.2244
    104  O       -130.6230   96.7020   78.7300 O.2   174  PRO174     -0.2868
    105  CB      -130.5750   99.8910   78.9550 C.3   174  PRO174      0.0268
    106  CG      -130.3370  101.2020   78.3770 C.3   174  PRO174      0.0207
    107  CD      -130.4870  101.0740   76.8910 C.3   174  PRO174      0.0892
    108  N       -116.7550  100.2500   67.8910 N.3   244  ARG244     -0.1245
    109  CA      -117.9580  100.9730   67.5650 C.3   244  ARG244      0.1563
    110  C       -117.6130  102.4100   67.1810 C.2   244  ARG244      0.2260
    111  O       -116.5140  102.8930   67.4630 O.2   244  ARG244     -0.2867
    112  CB      -118.9260  100.9480   68.7450 C.3   244  ARG244      0.0307
    113  CG      -119.5780   99.5810   68.9540 C.3   244  ARG244      0.0489
    114  CD      -120.8860   99.6810   69.7190 C.3   244  ARG244      0.2205
    115  NE      -120.6730  100.0390   71.1190 N.pl3 244  ARG244     -0.0865
    116  CZ      -121.5910  100.6130   71.8930 C.cat 244  ARG244      0.5346
    117  NH1     -122.7750  100.9560   71.3940 N.pl3 244  ARG244      0.1354
    118  NH2     -121.3130  100.8860   73.1580 N.pl3 244  ARG244      0.1354
    119  N       -120.4790  107.0990   69.6300 N.3   248  VAL248     -0.1245
    120  CA      -120.9780  106.4090   70.8010 C.3   248  VAL248      0.1561
    121  C       -119.8790  106.0590   71.8060 C.2   248  VAL248      0.2260
    122  O       -120.1390  106.1010   73.0130 O.2   248  VAL248     -0.2867
    123  CB      -121.8060  105.1580   70.4110 C.3   248  VAL248      0.0252
    124  CG1     -121.0660  104.2050   69.5050 C.3   248  VAL248      0.0019
    125  CG2     -122.3100  104.4200   71.6330 C.3   248  VAL248      0.0019
@<TRIPOS>BOND
     1   110   111    2
     2   110   109    1
     3   109   108    1
     4   109   112    1
     5    84    85    1
     6   112   113    1
     7   113   114    1
     8     4     3    2
     9   124   123    1
    10   119   120    1
    11   114   115    1
    12    85    86    1
    13    85    88    1
    14    87    86    2
    15     3     2    1
    16     5     2    1
    17     5     6    1
    18   123   120    1
    19   123   125    1
    20     1     2    1
    21    86    94   am
    22   120   121    1
    23     8     6   ar
    24     8    10   ar
    25    91    89   ar
    26    91    93   ar
    27    88    89    1
    28   115   116    2
    29     6     7   ar
    30    89    90   ar
    31   117   116    1
    32    10    11   ar
    33    93    92   ar
    34   121   122    2
    35   116   118    1
    36    94    95    1
    37     7     9   ar
    38    90    92   ar
    39   100    98    1
    40    95    98    1
    41    95    96    1
    42    11     9   ar
    43    11    12    1
    44    98    99    1
    45    96    97    2
    46    21    19   am
    47    23    26    1
    48    23    22    1
    49    23    24    1
    50    26    27    1
    51    44    42   ar
    52    44    43   ar
    53    18    19    1
    54    18    17    1
    55    19    20    2
    56    24    25    2
    57    42    40   ar
    58    14    15    1
    59    14    17    1
    60    14    13    1
    61    43    41   ar
    62    15    16    2
    63   101   107    1
    64   101   102    1
    65    68    67    1
    66    66    65    2
    67    27    28    1
    68    28    29    1
    69   107   106    1
    70    73    72    2
    71    40    39   ar
    72    40    38   ar
    73    76    78   ar
    74    76    75   ar
    75    41    38   ar
    76    78    79   ar
    77    65    70   am
    78    65    64    1
    79    71    72    1
    80    71    70    1
    81    71    74    1
    82   102   103    1
    83   102   105    1
    84    39    37   ar
    85    38    36   ar
    86   103   104    2
    87    29    30    1
    88    67    64    1
    89    67    69    1
    90   106   105    1
    91    75    74    1
    92    75    77   ar
    93    64    63    1
    94    79    77   ar
    95    79    81   ar
    96    37    36   ar
    97    36    35    1
    98    77    80   ar
    99    81    83   ar
   100    32    31    1
   101    32    35    1
   102    32    33    1
   103    83    82   ar
   104    80    82   ar
   105    33    34    2
   106    58    57    2
   107    54    52   ar
   108    54    53   ar
   109    52    50   ar
   110    53    51   ar
   111    61    60   ar
   112    50    51   ar
   113    50    49    1
   114    57    56    1
   115    49    46    1
   116    56    59    1
   117    56    55    1
   118    60    59    1
   119    60    62   ar
   120    46    45    1
   121    46    47    1
   122    47    48    2
