@<TRIPOS>MOLECULE
tmp/5ncjB00.pdb
 121 115 0 0 0
SMALL
GASTEIGER

@<TRIPOS>ATOM
      1  N        131.8040  -36.8110   90.9900 N.3    94  LYS94      -0.1245
      2  CA       132.9060  -37.3200   90.2000 C.3    94  LYS94       0.1561
      3  C        134.1790  -37.3430   91.0200 C.2    94  LYS94       0.2260
      4  O        134.3490  -36.5840   91.9870 O.2    94  LYS94      -0.2867
      5  CB       133.1280  -36.4910   88.9280 C.3    94  LYS94       0.0271
      6  CG       133.3660  -35.0000   89.1460 C.3    94  LYS94       0.0035
      7  CD       133.5530  -34.2710   87.8020 C.3    94  LYS94       0.0206
      8  CE       133.7690  -32.7830   87.9670 C.3    94  LYS94       0.1093
      9  NZ       132.4870  -32.0480   88.2540 N.3    94  LYS94      -0.1314
     10  N        138.1410  -37.0910   89.8770 N.3    96  ASN96      -0.1240
     11  CA       139.1340  -36.9020   88.8150 C.3    96  ASN96       0.1653
     12  C        140.4790  -37.3930   89.3330 C.2    96  ASN96       0.2266
     13  O        141.1230  -36.7400   90.1550 O.2    96  ASN96      -0.2867
     14  CB       139.1870  -35.4380   88.3760 C.3    96  ASN96       0.1155
     15  CG       137.9540  -35.0240   87.5890 C.2    96  ASN96       0.2627
     16  OD1      137.1390  -35.8410   87.1730 O.2    96  ASN96      -0.2716
     17  ND2      137.8180  -33.7310   87.3920 N.am   96  ASN96      -0.0877
     18  N        143.3760  -30.8840   82.6480 N.3   106  TRP106     -0.1241
     19  CA       141.9790  -30.5020   82.4530 C.3   106  TRP106      0.1605
     20  C        141.9500  -29.0900   81.8730 C.2   106  TRP106      0.2264
     21  O        142.5110  -28.1580   82.4740 O.2   106  TRP106     -0.2867
     22  CB       141.1990  -30.5590   83.7700 C.3   106  TRP106      0.0550
     23  CG       141.0160  -31.9790   84.2520 C.ar  106  TRP106      0.0003
     24  CD1      141.8100  -32.6660   85.1390 C.ar  106  TRP106      0.0946
     25  CD2      139.9860  -32.8890   83.8580 C.ar  106  TRP106      0.0152
     26  NE1      141.3340  -33.9470   85.3120 N.ar  106  TRP106     -0.2442
     27  CE2      140.2110  -34.0990   84.5480 C.ar  106  TRP106      0.0810
     28  CE3      138.8920  -32.8000   83.0040 C.ar  106  TRP106      0.0012
     29  CZ2      139.3970  -35.1980   84.4010 C.ar  106  TRP106      0.0191
     30  CZ3      138.0810  -33.9150   82.8450 C.ar  106  TRP106      0.0001
     31  CH2      138.3290  -35.0910   83.5710 C.ar  106  TRP106      0.0015
     32  N        138.1370  -23.8080   81.7170 N.3   109  HIS109     -0.1241
     33  CA       136.7040  -23.7740   81.4320 C.3   109  HIS109      0.1621
     34  C        135.9300  -23.2030   82.6150 C.2   109  HIS109      0.2264
     35  O        136.4680  -22.9970   83.7090 O.2   109  HIS109     -0.2867
     36  CB       136.1840  -25.1770   81.1400 C.3   109  HIS109      0.0745
     37  CG       136.2300  -26.0850   82.3280 C.ar  109  HIS109      0.0817
     38  ND1      137.4050  -26.5930   82.8290 N.ar  109  HIS109     -0.2268
     39  CD2      135.2440  -26.5640   83.1210 C.ar  109  HIS109      0.1154
     40  CE1      137.1390  -27.3690   83.8750 C.ar  109  HIS109      0.1986
     41  NE2      135.8310  -27.3580   84.0740 N.ar  109  HIS109     -0.2212
     42  N        132.1330  -24.3760   84.4820 N.3   111  ASP111     -0.1239
     43  CA       131.1970  -25.4990   84.5060 C.3   111  ASP111      0.1674
     44  C        129.8070  -25.1330   84.0010 C.2   111  ASP111      0.2266
     45  O        129.1970  -25.9140   83.2660 O.2   111  ASP111     -0.2867
     46  CB       131.0310  -26.0670   85.9180 C.3   111  ASP111      0.1410
     47  CG       132.2690  -26.7620   86.4370 C.2   111  ASP111      0.3668
     48  OD1      133.1370  -27.1720   85.6320 O.co2 111  ASP111     -0.2456
     49  OD2      132.3630  -26.9340   87.6730 O.co2 111  ASP111     -0.2456
     50  N        144.0230  -28.0660   90.8500 N.3   143  VAL143     -0.1245
     51  CA       143.1370  -27.0770   90.2360 C.3   143  VAL143      0.1561
     52  C        143.7390  -25.6920   90.3860 C.2   143  VAL143      0.2260
     53  O        144.2470  -25.3060   91.4590 O.2   143  VAL143     -0.2867
     54  CB       141.7300  -27.1090   90.8450 C.3   143  VAL143      0.0252
     55  CG1      140.8580  -25.9830   90.2470 C.3   143  VAL143      0.0019
     56  CG2      141.0880  -28.4670   90.5950 C.3   143  VAL143      0.0019
     57  N        136.0420  -30.8890   79.4870 N.3   171  PRO171     -0.2116
     58  CA       136.1040  -29.4170   79.3810 C.3   171  PRO171      0.1372
     59  C        136.7650  -28.9190   78.1000 C.2   171  PRO171      0.2244
     60  O        136.5460  -27.7580   77.7170 O.2   171  PRO171     -0.2868
     61  CB       136.9060  -29.0070   80.6310 C.3   171  PRO171      0.0268
     62  CG       136.7600  -30.1470   81.5740 C.3   171  PRO171      0.0207
     63  CD       136.6160  -31.3870   80.7480 C.3   171  PRO171      0.0892
     64  N        133.8330  -24.2550   95.3550 N.3   203  PHE203     -0.1241
     65  CA       134.0940  -23.2780   94.3120 C.3   203  PHE203      0.1605
     66  C        132.8850  -23.1210   93.4010 C.2   203  PHE203      0.2264
     67  O        132.0510  -24.0090   93.2650 O.2   203  PHE203     -0.2867
     68  CB       135.3720  -23.5950   93.5000 C.3   203  PHE203      0.0534
     69  CG       135.3890  -24.9400   92.7670 C.ar  203  PHE203     -0.0203
     70  CD1      135.7280  -26.1290   93.4190 C.ar  203  PHE203     -0.0042
     71  CD2      135.1560  -24.9750   91.4060 C.ar  203  PHE203     -0.0042
     72  CE1      135.7780  -27.3210   92.7090 C.ar  203  PHE203     -0.0003
     73  CE2      135.2140  -26.1710   90.7060 C.ar  203  PHE203     -0.0003
     74  CZ       135.5330  -27.3290   91.3580 C.ar  203  PHE203     -0.0000
     75  N        138.5070  -22.3330   85.6980 N.3   209  HIS209     -0.1226
     76  CA       139.4570  -23.2270   86.3310 C.3   209  HIS209      0.1752
     77  C        140.0060  -24.2310   85.3220 C.2   209  HIS209      0.2597
     78  O        139.4350  -24.4480   84.2510 O.2   209  HIS209     -0.2718
     79  CB       138.8260  -23.9310   87.5510 C.3   209  HIS209      0.0759
     80  CG       137.5930  -24.7280   87.2440 C.ar  209  HIS209      0.0818
     81  ND1      136.3950  -24.1360   86.9160 N.ar  209  HIS209     -0.2268
     82  CD2      137.3600  -26.0670   87.2540 C.ar  209  HIS209      0.1154
     83  CE1      135.4820  -25.0720   86.7080 C.ar  209  HIS209      0.1986
     84  NE2      136.0370  -26.2540   86.9150 N.ar  209  HIS209     -0.2212
     85  N        141.1790  -24.7640   85.6500 N.am  210  GLY210     -0.1942
     86  CA       141.8370  -25.7820   84.8440 C.3   210  GLY210      0.2014
     87  C        142.9350  -26.4120   85.6710 C.2   210  GLY210      0.2639
     88  O        143.1420  -26.0470   86.8260 O.2   210  GLY210     -0.2714
     89  N        143.6500  -27.3660   85.0820 N.am  211  SER211     -0.1949
     90  CA       144.7530  -27.9790   85.8120 C.3   211  SER211      0.1924
     91  C        145.7240  -28.6250   84.8380 C.2   211  SER211      0.2314
     92  O        145.3350  -29.0960   83.7690 O.2   211  SER211     -0.2863
     93  CB       144.2440  -28.9940   86.8390 C.3   211  SER211      0.2116
     94  OG       143.5970  -30.0870   86.2150 O.3   211  SER211     -0.2180
     95  N        147.0900  -37.4680   92.2510 N.3   220  ARG220     -0.1245
     96  CA       146.2090  -36.3600   92.6460 C.3   220  ARG220      0.1563
     97  C        144.7560  -36.7860   92.4370 C.2   220  ARG220      0.2260
     98  O        144.1420  -36.5310   91.3970 O.2   220  ARG220     -0.2867
     99  CB       146.5230  -35.0730   91.9040 C.3   220  ARG220      0.0307
    100  CG       145.7930  -33.9040   92.5030 C.3   220  ARG220      0.0489
    101  CD       145.1360  -33.0290   91.4670 C.3   220  ARG220      0.2205
    102  NE       144.0450  -33.7150   90.7730 N.pl3 220  ARG220     -0.0865
    103  CZ       143.1990  -33.1370   89.9390 C.cat 220  ARG220      0.5346
    104  NH1      143.3350  -31.8420   89.6360 N.pl3 220  ARG220      0.1354
    105  NH2      142.2090  -33.8330   89.3930 N.pl3 220  ARG220      0.1354
    106  N        141.0570  -36.2410   93.1790 N.3   222  LEU222     -0.1245
    107  CA       140.2350  -35.1020   93.5800 C.3   222  LEU222      0.1561
    108  C        138.7660  -35.4460   93.3900 C.2   222  LEU222      0.2260
    109  O        138.3120  -35.6760   92.2630 O.2   222  LEU222     -0.2867
    110  CB       140.5740  -33.8550   92.7580 C.3   222  LEU222      0.0270
    111  CG       139.6980  -32.6380   93.0210 C.3   222  LEU222      0.0019
    112  CD1      139.8150  -32.1710   94.4790 C.3   222  LEU222      0.0001
    113  CD2      140.0870  -31.5060   92.0280 C.3   222  LEU222      0.0001
    114  N        134.8020  -34.3440   93.5720 N.3   224  ILE224     -0.1245
    115  CA       133.9960  -33.1220   93.4550 C.3   224  ILE224      0.1561
    116  C        132.5250  -33.5190   93.4530 C.2   224  ILE224      0.2260
    117  O        132.0760  -34.2810   92.5830 O.2   224  ILE224     -0.2867
    118  CB       134.3110  -32.2830   92.2000 C.3   224  ILE224      0.0252
    119  CG1      135.8030  -31.9810   92.1200 C.3   224  ILE224      0.0019
    120  CG2      133.5140  -30.9810   92.2870 C.3   224  ILE224      0.0019
    121  CD1      136.2110  -31.3400   90.8260 C.3   224  ILE224      0.0001
@<TRIPOS>BOND
     1    60    59    2
     2    59    58    1
     3    58    57    1
     4    58    61    1
     5    57    63    1
     6    61    62    1
     7    63    62    1
     8    36    33    1
     9    36    37    1
    10    33    32    1
    11    33    34    1
    12    20    19    1
    13    20    21    2
    14    37    38   ar
    15    37    39   ar
    16    19    18    1
    17    19    22    1
    18    34    35    2
    19    38    40   ar
    20    30    28   ar
    21    30    31   ar
    22    28    25   ar
    23    39    41   ar
    24    45    44    2
    25    31    29   ar
    26    92    91    2
    27    22    23    1
    28    25    23   ar
    29    25    27   ar
    30    40    41   ar
    31    44    43    1
    32    78    77    2
    33    23    24   ar
    34    29    27   ar
    35    42    43    1
    36    43    46    1
    37    27    26   ar
    38    91    90    1
    39    86    85    1
    40    86    87    1
    41    89    87   am
    42    89    90    1
    43    24    26   ar
    44    77    85   am
    45    77    76    1
    46    48    47   ar
    47    87    88    2
    48    75    76    1
    49    90    93    1
    50    46    47    1
    51    94    93    1
    52    76    79    1
    53    47    49   ar
    54    83    84   ar
    55    83    81   ar
    56    84    82   ar
    57    81    80   ar
    58    16    15    2
    59    80    82   ar
    60    80    79    1
    61    17    15   am
    62    15    14    1
    63     7     8    1
    64     7     6    1
    65     8     9    1
    66    14    11    1
    67    11    12    1
    68    11    10    1
    69     5     6    1
    70     5     2    1
    71    12    13    2
    72   105   103    1
    73   104   103    1
    74   103   102    2
    75     2     1    1
    76     2     3    1
    77    51    52    1
    78    51    54    1
    79    51    50    1
    80    55    54    1
    81    52    53    2
    82    56    54    1
    83    73    74   ar
    84    73    71   ar
    85   102   101    1
    86   121   119    1
    87     3     4    2
    88    74    72   ar
    89    98    97    2
    90    71    69   ar
    91   101   100    1
    92    99   100    1
    93    99    96    1
    94   113   111    1
    95   119   118    1
    96   118   120    1
    97   118   115    1
    98    95    96    1
    99   109   108    2
   100    97    96    1
   101   117   116    2
   102    72    70   ar
   103   110   111    1
   104   110   107    1
   105    69    70   ar
   106    69    68    1
   107   111   112    1
   108   106   107    1
   109    67    66    2
   110   108   107    1
   111    66    65    1
   112   116   115    1
   113   115   114    1
   114    68    65    1
   115    65    64    1
