@<TRIPOS>MOLECULE
tmp/5nclA00.pdb
 205 192 0 0 0
SMALL
GASTEIGER

@<TRIPOS>ATOM
      1  N        -39.8130  -15.2610   24.5630 N.3    93  ILE93      -0.1231
      2  CA       -40.2020  -15.5150   23.1960 C.3    93  ILE93       0.1692
      3  C        -40.2590  -17.0020   22.9070 C.2    93  ILE93       0.2593
      4  O        -41.2580  -17.5170   22.4110 O.2    93  ILE93      -0.2718
      5  CB       -39.2290  -14.8130   22.2360 C.3    93  ILE93       0.0266
      6  CG1      -39.4230  -13.3200   22.2700 C.3    93  ILE93       0.0019
      7  CG2      -39.3990  -15.3410   20.8450 C.3    93  ILE93       0.0020
      8  CD1      -38.5230  -12.6940   21.2820 C.3    93  ILE93       0.0001
      9  N        -39.1770  -17.6970   23.1750 N.am   94  GLY94      -0.1942
     10  CA       -39.1060  -19.1170   22.9330 C.3    94  GLY94       0.2014
     11  C        -38.3110  -19.7820   24.0300 C.2    94  GLY94       0.2639
     12  O        -37.7780  -19.1240   24.9290 O.2    94  GLY94      -0.2714
     13  N        -38.2850  -21.1080   23.9550 N.am   95  LYS95      -0.1963
     14  CA       -37.4400  -21.9290   24.7990 C.3    95  LYS95       0.1728
     15  C        -36.9970  -23.1160   23.9610 C.2    95  LYS95       0.2617
     16  O        -37.8230  -23.7510   23.2950 O.2    95  LYS95      -0.2715
     17  CB       -38.1670  -22.4040   26.0610 C.3    95  LYS95       0.0311
     18  CG       -38.6030  -21.2950   27.0310 C.3    95  LYS95       0.0038
     19  CD       -39.1160  -21.8890   28.3520 C.3    95  LYS95       0.0206
     20  CE       -39.6460  -20.8300   29.3320 C.3    95  LYS95       0.1093
     21  NZ       -41.0520  -20.3430   29.0970 N.3    95  LYS95      -0.1314
     22  N        -35.6830  -23.3460   23.9340 N.am   96  GLY96      -0.1940
     23  CA       -35.1230  -24.6520   23.6730 C.3    96  GLY96       0.2014
     24  C        -34.8470  -25.3720   24.9810 C.2    96  GLY96       0.2639
     25  O        -35.2880  -24.9640   26.0570 O.2    96  GLY96      -0.2714
     26  N        -34.0920  -26.4620   24.8830 N.am   97  ALA97      -0.1963
     27  CA       -33.7590  -27.2110   26.0940 C.3    97  ALA97       0.1728
     28  C        -32.6380  -26.5380   26.8770 C.2    97  ALA97       0.2616
     29  O        -32.6670  -26.4990   28.1170 O.2    97  ALA97      -0.2715
     30  CB       -33.3710  -28.6430   25.7370 C.3    97  ALA97       0.0334
     31  N        -31.6570  -25.9920   26.1530 N.am   98  PHE98      -0.1960
     32  CA       -30.4940  -25.3740   26.7750 C.3    98  PHE98       0.1771
     33  C        -30.8370  -24.0260   27.4010 C.2    98  PHE98       0.2620
     34  O        -30.2750  -23.6660   28.4440 O.2    98  PHE98      -0.2715
     35  CB       -29.3780  -25.2080   25.7390 C.3    98  PHE98       0.0574
     36  CG       -28.8170  -26.5140   25.2130 C.ar   98  PHE98      -0.0200
     37  CD1      -29.0830  -27.7240   25.8550 C.ar   98  PHE98      -0.0042
     38  CD2      -28.0010  -26.5290   24.0870 C.ar   98  PHE98      -0.0042
     39  CE1      -28.5550  -28.9190   25.3700 C.ar   98  PHE98      -0.0003
     40  CE2      -27.4680  -27.7200   23.5970 C.ar   98  PHE98      -0.0003
     41  CZ       -27.7470  -28.9160   24.2390 C.ar   98  PHE98      -0.0000
     42  N        -31.7450  -23.2730   26.7930 N.am   99  GLY99      -0.1954
     43  CA       -32.1110  -21.9820   27.3420 C.3    99  GLY99       0.1869
     44  C        -33.0790  -21.2750   26.4270 C.2    99  GLY99       0.2309
     45  O        -33.2960  -21.6700   25.2760 O.2    99  GLY99      -0.2863
     46  N        -35.1300  -17.6730   24.7730 N.3   101  VAL101     -0.1245
     47  CA       -34.8250  -16.5780   23.8720 C.3   101  VAL101      0.1561
     48  C        -35.6920  -15.3760   24.2580 C.2   101  VAL101      0.2260
     49  O        -36.8660  -15.5200   24.6380 O.2   101  VAL101     -0.2867
     50  CB       -35.0140  -17.0260   22.4090 C.3   101  VAL101      0.0252
     51  CG1      -36.4680  -17.0340   22.0360 C.3   101  VAL101      0.0019
     52  CG2      -34.2440  -16.1540   21.4690 C.3   101  VAL101      0.0019
     53  N        -32.4960   -9.3220   20.1600 N.3   114  ALA114     -0.1245
     54  CA       -32.8780  -10.6760   20.5280 C.3   114  ALA114      0.1562
     55  C        -31.8160  -11.2700   21.4240 C.2   114  ALA114      0.2260
     56  O        -30.6490  -11.3420   21.0360 O.2   114  ALA114     -0.2867
     57  CB       -33.0570  -11.5590   19.2990 C.3   114  ALA114      0.0290
     58  N        -30.4630  -14.6120   23.1770 N.3   116  LYS116     -0.1245
     59  CA       -30.4630  -16.0660   23.2400 C.3   116  LYS116      0.1561
     60  C        -29.6580  -16.5130   24.4610 C.2   116  LYS116      0.2260
     61  O        -28.4420  -16.2760   24.5260 O.2   116  LYS116     -0.2867
     62  CB       -29.8710  -16.6510   21.9630 C.3   116  LYS116      0.0271
     63  CG       -30.1990  -18.1160   21.7300 C.3   116  LYS116      0.0035
     64  CD       -30.2800  -18.3690   20.2420 C.3   116  LYS116      0.0206
     65  CE       -30.5130  -19.8220   19.8930 C.3   116  LYS116      0.1093
     66  NZ       -30.8150  -19.9920   18.4290 N.3   116  LYS116     -0.1314
     67  N        -28.0520  -19.4380   26.8400 N.3   118  LEU118     -0.1245
     68  CA       -27.4960  -20.7900   26.7170 C.3   118  LEU118      0.1561
     69  C        -26.7980  -21.2360   28.0010 C.2   118  LEU118      0.2260
     70  O        -26.7900  -20.5350   29.0110 O.2   118  LEU118     -0.2867
     71  CB       -26.5150  -20.8660   25.5520 C.3   118  LEU118      0.0270
     72  CG       -27.1170  -20.3180   24.2600 C.3   118  LEU118      0.0019
     73  CD1      -26.1320  -20.4690   23.1100 C.3   118  LEU118      0.0001
     74  CD2      -28.4310  -21.0010   23.9100 C.3   118  LEU118      0.0001
     75  N        -30.2310  -14.3250   10.2870 N.3   133  VAL133     -0.1245
     76  CA       -30.2820  -13.3750   11.4000 C.3   133  VAL133      0.1561
     77  C        -28.9000  -12.8560   11.7390 C.2   133  VAL133      0.2260
     78  O        -27.9180  -13.5980   11.7020 O.2   133  VAL133     -0.2867
     79  CB       -30.9620  -14.0250   12.6140 C.3   133  VAL133      0.0252
     80  CG1      -30.7970  -13.1990   13.8480 C.3   133  VAL133      0.0019
     81  CG2      -32.4220  -14.2070   12.3340 C.3   133  VAL133      0.0019
     82  N        -28.7880  -10.5830   18.9380 N.3   149  MET149     -0.1230
     83  CA       -29.2330  -10.7210   17.5640 C.3   149  MET149      0.1702
     84  C        -30.3740   -9.7590   17.3120 C.2   149  MET149      0.2592
     85  O        -31.1100   -9.3840   18.2350 O.2   149  MET149     -0.2718
     86  CB       -29.7450  -12.1190   17.2800 C.3   149  MET149      0.0401
     87  CG       -28.8730  -13.1590   17.8800 C.3   149  MET149      0.0596
     88  SD       -29.7300  -14.7140   18.0160 S.3   149  MET149     -0.1393
     89  CE       -31.0540  -14.2860   19.1470 C.3   149  MET149      0.0692
     90  N        -30.5600   -9.4110   16.0420 N.am  150  GLU150     -0.1966
     91  CA       -31.7220   -8.6050   15.7300 C.3   150  GLU150      0.1733
     92  C        -32.9690   -9.4150   16.0030 C.2   150  GLU150      0.2616
     93  O        -32.9500  -10.6420   15.9800 O.2   150  GLU150     -0.2715
     94  CB       -31.6900   -8.1410   14.2920 C.3   150  GLU150      0.0429
     95  CG       -31.7090   -9.2500   13.3190 C.3   150  GLU150      0.1163
     96  CD       -31.6810   -8.7420   11.8870 C.2   150  GLU150      0.3649
     97  OE1      -31.2000   -9.4960   10.9990 O.co2 150  GLU150     -0.2457
     98  OE2      -32.1370   -7.5860   11.6590 O.co2 150  GLU150     -0.2457
     99  N        -34.0430   -8.7270   16.3230 N.am  151  PHE151     -0.1960
    100  CA       -35.2730   -9.3960   16.6830 C.3   151  PHE151      0.1771
    101  C        -36.2060   -9.4530   15.4840 C.2   151  PHE151      0.2619
    102  O        -36.4630   -8.4280   14.8580 O.2   151  PHE151     -0.2715
    103  CB       -35.9260   -8.6770   17.8440 C.3   151  PHE151      0.0574
    104  CG       -37.3730   -8.9350   17.9510 C.ar  151  PHE151     -0.0200
    105  CD1      -37.8360  -10.1910   18.2230 C.ar  151  PHE151     -0.0042
    106  CD2      -38.2720   -7.9190   17.8140 C.ar  151  PHE151     -0.0042
    107  CE1      -39.1650  -10.4290   18.3530 C.ar  151  PHE151     -0.0003
    108  CE2      -39.6020   -8.1480   17.9530 C.ar  151  PHE151     -0.0003
    109  CZ       -40.0530   -9.4030   18.2220 C.ar  151  PHE151     -0.0000
    110  N        -36.6860  -10.6580   15.1410 N.am  152  LEU152     -0.1977
    111  CA       -37.5960  -10.7800   14.0100 C.3   152  LEU152      0.1596
    112  C        -39.0200  -10.9300   14.4990 C.2   152  LEU152      0.2287
    113  O        -39.3750  -11.9780   15.0460 O.2   152  LEU152     -0.2864
    114  CB       -37.2010  -11.9460   13.1050 C.3   152  LEU152      0.0297
    115  CG       -36.3170  -11.4160   11.9650 C.3   152  LEU152      0.0022
    116  CD1      -34.8600  -11.4990   12.2710 C.3   152  LEU152      0.0001
    117  CD2      -36.5410  -12.0110   10.6100 C.3   152  LEU152      0.0001
    118  N        -42.1740  -17.3820   13.8500 N.3   156  ASP156     -0.1239
    119  CA       -41.4670  -18.4590   13.1660 C.3   156  ASP156      0.1674
    120  C        -42.4210  -19.1580   12.2210 C.2   156  ASP156      0.2266
    121  O        -43.6420  -18.9930   12.3030 O.2   156  ASP156     -0.2867
    122  CB       -40.9100  -19.4760   14.1630 C.3   156  ASP156      0.1410
    123  CG       -41.9560  -19.9060   15.1630 C.2   156  ASP156      0.3668
    124  OD1      -42.8490  -20.6730   14.7590 O.co2 156  ASP156     -0.2456
    125  OD2      -41.9150  -19.4640   16.3360 O.co2 156  ASP156     -0.2456
    126  N        -35.8820  -26.6400    9.6300 N.3   197  LYS197     -0.1245
    127  CA       -37.1320  -27.0670   10.2420 C.3   197  LYS197      0.1561
    128  C        -38.0080  -25.8300   10.4430 C.2   197  LYS197      0.2260
    129  O        -37.5130  -24.7060   10.3830 O.2   197  LYS197     -0.2867
    130  CB       -36.8900  -27.8070   11.5740 C.3   197  LYS197      0.0271
    131  CG       -35.6450  -27.3890   12.3020 C.3   197  LYS197      0.0035
    132  CD       -35.3070  -28.2410   13.4920 C.3   197  LYS197      0.0206
    133  CE       -36.3470  -28.0860   14.5980 C.3   197  LYS197      0.1093
    134  NZ       -35.9040  -28.5590   15.9760 N.3   197  LYS197     -0.1314
    135  N        -39.7210  -24.2150   12.9330 N.3   199  ASP199     -0.1225
    136  CA       -39.4960  -23.2510   14.0050 C.3   199  ASP199      0.1805
    137  C        -38.1270  -22.5950   13.9050 C.2   199  ASP199      0.2597
    138  O        -37.9150  -21.5140   14.4570 O.2   199  ASP199     -0.2718
    139  CB       -39.6670  -23.9270   15.3710 C.3   199  ASP199      0.1424
    140  CG       -38.5870  -24.9610   15.6540 C.2   199  ASP199      0.3668
    141  OD1      -38.6350  -26.0330   15.0090 O.co2 199  ASP199     -0.2456
    142  OD2      -37.7110  -24.7060   16.5270 O.co2 199  ASP199     -0.2456
    143  N        -37.2160  -23.2070   13.1880 N.am  200  ASN200     -0.1974
    144  CA       -35.9140  -22.6290   12.9450 C.3   200  ASN200      0.1688
    145  C        -35.9340  -21.6120   11.8260 C.2   200  ASN200      0.2292
    146  O        -34.8630  -21.2850   11.3110 O.2   200  ASN200     -0.2864
    147  CB       -34.9310  -23.7430   12.5940 C.3   200  ASN200      0.1181
    148  CG       -33.7830  -23.8400   13.5680 C.2   200  ASN200      0.2629
    149  OD1      -33.9820  -24.0610   14.7760 O.2   200  ASN200     -0.2716
    150  ND2      -32.5610  -23.6810   13.0490 N.am  200  ASN200     -0.0877
    151  N        -37.5780  -17.8680   10.2770 N.3   202  LEU202     -0.1245
    152  CA       -38.0300  -16.6150   10.8680 C.3   202  LEU202      0.1561
    153  C        -38.4810  -15.5690    9.8430 C.2   202  LEU202      0.2260
    154  O        -37.9990  -15.5170    8.7030 O.2   202  LEU202     -0.2867
    155  CB       -36.9240  -16.0550   11.7330 C.3   202  LEU202      0.0270
    156  CG       -36.7510  -16.9160   12.9700 C.3   202  LEU202      0.0019
    157  CD1      -35.5350  -16.5050   13.7180 C.3   202  LEU202      0.0001
    158  CD2      -37.9840  -16.7960   13.8490 C.3   202  LEU202      0.0001
    159  N        -31.8890  -18.4960   10.8640 N.3   212  SER212     -0.1217
    160  CA       -31.6020  -17.9650   12.1730 C.3   212  SER212      0.1889
    161  C        -30.2450  -18.3540   12.7270 C.2   212  SER212      0.2288
    162  O        -29.9150  -17.9130   13.8270 O.2   212  SER212     -0.2866
    163  CB       -32.7020  -18.4340   13.1340 C.3   212  SER212      0.2089
    164  OG       -32.6520  -19.8420   13.3470 O.3   212  SER212     -0.2183
    165  N        -26.5490  -25.7910   18.0630 N.3   218  THR218     -0.1218
    166  CA       -27.9920  -25.6730   18.2490 C.3   218  THR218      0.1862
    167  C        -28.5370  -26.6700   19.2570 C.2   218  THR218      0.2287
    168  O        -29.5690  -26.3870   19.8750 O.2   218  THR218     -0.2866
    169  CB       -28.7520  -25.8640   16.9050 C.3   218  THR218      0.1770
    170  OG1      -28.2230  -24.9870   15.9280 O.3   218  THR218     -0.2211
    171  CG2      -30.2650  -25.6070   17.0200 C.3   218  THR218      0.0375
    172  N        -42.3690  -28.2320   22.5650 N.3   252  ALA252     -0.1245
    173  CA       -41.6700  -27.0350   22.1020 C.3   252  ALA252      0.1562
    174  C        -40.5890  -26.6310   23.1010 C.2   252  ALA252      0.2260
    175  O        -39.3910  -26.6450   22.7890 O.2   252  ALA252     -0.2867
    176  CB       -42.6710  -25.8940   21.8760 C.3   252  ALA252      0.0290
    177  N        -37.3550  -29.2680   24.4080 N.3   255  THR255     -0.1218
    178  CA       -37.5170  -30.0260   23.1720 C.3   255  THR255      0.1862
    179  C        -36.5390  -31.2100   23.1240 C.2   255  THR255      0.2287
    180  O        -35.7910  -31.4890   24.0720 O.2   255  THR255     -0.2866
    181  CB       -37.3320  -29.1040   21.9660 C.3   255  THR255      0.1770
    182  OG1      -37.6930  -29.8090   20.7740 O.3   255  THR255     -0.2211
    183  CG2      -35.8990  -28.6110   21.8760 C.3   255  THR255      0.0375
    184  N        -35.5050  -32.0290   19.5390 N.3   257  GLY257     -0.1225
    185  CA       -34.9580  -31.8640   18.2070 C.3   257  GLY257      0.1811
    186  C        -35.5000  -32.8980   17.2460 C.2   257  GLY257      0.2280
    187  O        -34.7220  -33.6130   16.6130 O.2   257  GLY257     -0.2866
    188  N        -45.6930  -14.5800   18.8660 N.3   384  PHE384     -0.1228
    189  CA       -44.9740  -15.6260   19.5520 C.3   384  PHE384      0.1721
    190  C        -45.8470  -16.3230   20.5720 C.2   384  PHE384      0.2437
    191  O        -46.7000  -15.6990   21.2100 O.2   384  PHE384     -0.2733
    192  CB       -43.7330  -15.0660   20.2220 C.3   384  PHE384      0.0547
    193  CG       -42.7490  -14.5310   19.2470 C.ar  384  PHE384     -0.0202
    194  CD1      -41.8350  -15.3720   18.6400 C.ar  384  PHE384     -0.0042
    195  CD2      -42.7670  -13.1990   18.8960 C.ar  384  PHE384     -0.0042
    196  CE1      -40.9220  -14.8850   17.7270 C.ar  384  PHE384     -0.0003
    197  CE2      -41.8590  -12.7050   17.9760 C.ar  384  PHE384     -0.0003
    198  CZ       -40.9370  -13.5550   17.3950 C.ar  384  PHE384     -0.0000
    199  N        -45.6540  -17.6270   20.7310 N.am  385  PRO385     -0.2729
    200  CA       -46.3570  -18.3570   21.7860 C.3   385  PRO385      0.1401
    201  C        -45.8050  -17.9450   23.1270 C.2   385  PRO385      0.2269
    202  O        -45.0290  -18.6710   23.7480 O.2   385  PRO385     -0.2865
    203  CB       -46.0500  -19.8170   21.4650 C.3   385  PRO385      0.0296
    204  CG       -44.7370  -19.7540   20.7620 C.3   385  PRO385      0.0237
    205  CD       -44.7090  -18.4830   19.9950 C.3   385  PRO385      0.0939
@<TRIPOS>BOND
     1   154   153    2
     2   126   127    1
     3   153   152    1
     4   127   128    1
     5   127   130    1
     6   151   152    1
     7    75    76    1
     8   129   128    2
     9   117   115    1
    10   159   160    1
    11   152   155    1
    12    97    96   ar
    13   146   145    2
    14    76    77    1
    15    76    79    1
    16   130   131    1
    17    98    96   ar
    18    78    77    2
    19   155   156    1
    20   145   144    1
    21    96    95    1
    22   115   116    1
    23   115   114    1
    24   160   161    1
    25   160   163    1
    26   120   121    2
    27   120   119    1
    28   131   132    1
    29    81    79    1
    30   147   144    1
    31   147   148    1
    32    79    80    1
    33   161   162    2
    34   135   136    1
    35   144   143    1
    36   156   157    1
    37   156   158    1
    38   150   148   am
    39   114   111    1
    40   163   164    1
    41   119   118    1
    42   119   122    1
    43   143   137   am
    44    95    94    1
    45   132   133    1
    46   148   149    2
    47   137   136    1
    48   137   138    2
    49   136   139    1
    50   111   112    1
    51   111   110    1
    52   122   123    1
    53    94    91    1
    54   112   113    2
    55   133   134    1
    56   124   123   ar
    57   102   101    2
    58   141   140   ar
    59   110   101   am
    60   123   125   ar
    61   139   140    1
    62   101   100    1
    63   140   142   ar
    64    91    92    1
    65    91    90    1
    66   170   169    1
    67    93    92    2
    68    92    99   am
    69    90    84   am
    70    99   100    1
    71   187   186    2
    72   100   103    1
    73   169   171    1
    74   169   166    1
    75   186   185    1
    76    86    83    1
    77    86    87    1
    78    84    83    1
    79    84    85    2
    80   198   196   ar
    81   198   197   ar
    82    83    82    1
    83   196   194   ar
    84   106   104   ar
    85   106   108   ar
    86   103   104    1
    87    87    88    1
    88   104   105   ar
    89   108   109   ar
    90   197   195   ar
    91    88    89    1
    92   165   166    1
    93   185   184    1
    94   109   107   ar
    95   105   107   ar
    96   166   167    1
    97    66    65    1
    98   194   193   ar
    99   188   189    1
   100   195   193   ar
   101   193   192    1
   102   167   168    2
   103    57    54    1
   104   189   192    1
   105   189   190    1
   106    65    64    1
   107   205   199    1
   108   205   204    1
   109    53    54    1
   110    64    63    1
   111    54    55    1
   112   190   199   am
   113   190   191    2
   114   199   200    1
   115   204   203    1
   116   182   181    1
   117     7     5    1
   118    56    55    2
   119     8     6    1
   120   203   200    1
   121    52    50    1
   122    63    62    1
   123   200   201    1
   124   183   181    1
   125   176   173    1
   126    62    59    1
   127   181   178    1
   128    51    50    1
   129   173   172    1
   130   173   174    1
   131     5     6    1
   132     5     2    1
   133    50    47    1
   134     4     3    2
   135   175   174    2
   136     3     9   am
   137     3     2    1
   138    10     9    1
   139    10    11    1
   140    73    72    1
   141   179   178    1
   142   179   180    2
   143   201   202    2
   144   178   177    1
   145    58    59    1
   146     2     1    1
   147    59    60    1
   148    16    15    2
   149    40    38   ar
   150    40    41   ar
   151    23    22    1
   152    23    24    1
   153    47    48    1
   154    47    46    1
   155    74    72    1
   156    22    15   am
   157    13    11   am
   158    13    14    1
   159    15    14    1
   160    11    12    2
   161    38    36   ar
   162    41    39   ar
   163    48    49    2
   164    72    71    1
   165    60    61    2
   166    14    17    1
   167    26    24   am
   168    26    27    1
   169    24    25    2
   170    36    35    1
   171    36    37   ar
   172    45    44    2
   173    39    37   ar
   174    71    68    1
   175    30    27    1
   176    35    32    1
   177    17    18    1
   178    27    28    1
   179    31    32    1
   180    31    28   am
   181    44    43    1
   182    68    67    1
   183    68    69    1
   184    32    33    1
   185    42    43    1
   186    42    33   am
   187    28    29    2
   188    18    19    1
   189    33    34    2
   190    69    70    2
   191    19    20    1
   192    21    20    1
