@<TRIPOS>MOLECULE
tmp/5ncqA01.pdb
 111 108 0 0 0
SMALL
GASTEIGER

@<TRIPOS>ATOM
      1  N          6.0850    3.1150    0.2570 N.3   833  TYR833     -0.1241
      2  CA         6.7590    2.3070   -0.7530 C.3   833  TYR833      0.1605
      3  C          8.2570    2.2310   -0.5010 C.2   833  TYR833      0.2264
      4  O          8.8760    1.2010   -0.7820 O.2   833  TYR833     -0.2867
      5  CB         6.4840    2.8670   -2.1500 C.3   833  TYR833      0.0534
      6  CG         7.2120    2.1350   -3.2630 C.ar  833  TYR833     -0.0201
      7  CD1        6.6700    0.9940   -3.8480 C.ar  833  TYR833     -0.0009
      8  CD2        8.4470    2.5760   -3.7200 C.ar  833  TYR833     -0.0009
      9  CE1        7.3390    0.3230   -4.8630 C.ar  833  TYR833      0.0417
     10  CE2        9.1210    1.9110   -4.7290 C.ar  833  TYR833      0.0417
     11  CZ         8.5630    0.7880   -5.2970 C.ar  833  TYR833      0.1957
     12  OH         9.2360    0.1300   -6.3010 O.3   833  TYR833     -0.2866
     13  N          8.6900   -0.3800    2.4360 N.3   836  ALA836     -0.1231
     14  CA         8.4910   -1.7510    1.9770 C.3   836  ALA836      0.1694
     15  C          9.6020   -2.1900    1.0280 C.2   836  ALA836      0.2591
     16  O         10.0700   -3.3330    1.0950 O.2   836  ALA836     -0.2718
     17  CB         7.1250   -1.8790    1.3020 C.3   836  ALA836      0.0304
     18  N         10.0480   -1.2900    0.1480 N.am  837  ALA837     -0.1980
     19  CA        11.0470   -1.6540   -0.8520 C.3   837  ALA837      0.1597
     20  C         12.4010   -1.9560   -0.2230 C.2   837  ALA837      0.2287
     21  O         13.1330   -2.8240   -0.7150 O.2   837  ALA837     -0.2864
     22  CB        11.1850   -0.5380   -1.8860 C.3   837  ALA837      0.0319
     23  N         11.9300   -5.3870    1.7150 N.3   840  GLY840     -0.1225
     24  CA        11.8810   -6.4460    0.7230 C.3   840  GLY840      0.1811
     25  C         13.2060   -6.6590    0.0200 C.2   840  GLY840      0.2280
     26  O         13.5100   -7.7750   -0.4110 O.2   840  GLY840     -0.2866
     27  N         15.0310   -8.8560    2.4150 N.3   843  ALA843     -0.1231
     28  CA        14.3550  -10.1480    2.4650 C.3   843  ALA843      0.1694
     29  C         14.6010  -10.9450    1.1910 C.2   843  ALA843      0.2592
     30  O         14.7410  -12.1730    1.2360 O.2   843  ALA843     -0.2718
     31  CB        12.8550   -9.9510    2.6910 C.3   843  ALA843      0.0304
     32  N         14.6610  -10.2610    0.0450 N.am  844  TRP844     -0.1976
     33  CA        14.9270  -10.9460   -1.2170 C.3   844  TRP844      0.1640
     34  C         16.2570  -11.6850   -1.1780 C.2   844  TRP844      0.2290
     35  O         16.3710  -12.8010   -1.6990 O.2   844  TRP844     -0.2864
     36  CB        14.9170   -9.9500   -2.3770 C.3   844  TRP844      0.0576
     37  CG        15.4700  -10.5140   -3.6490 C.ar  844  TRP844      0.0006
     38  CD1       14.8080  -11.2830   -4.5590 C.ar  844  TRP844      0.0946
     39  CD2       16.7990  -10.3480   -4.1560 C.ar  844  TRP844      0.0152
     40  NE1       15.6410  -11.6070   -5.6040 N.ar  844  TRP844     -0.2442
     41  CE2       16.8700  -11.0460   -5.3780 C.ar  844  TRP844      0.0810
     42  CE3       17.9370   -9.6790   -3.6930 C.ar  844  TRP844      0.0012
     43  CZ2       18.0310  -11.0920   -6.1430 C.ar  844  TRP844      0.0191
     44  CZ3       19.0860   -9.7240   -4.4550 C.ar  844  TRP844      0.0001
     45  CH2       19.1260  -10.4260   -5.6650 C.ar  844  TRP844      0.0015
     46  N         15.9610  -14.9050    1.0460 N.3   847  MET847     -0.1230
     47  CA        15.0590  -15.9520    0.5900 C.3   847  MET847      0.1702
     48  C         15.2300  -16.3340   -0.8710 C.2   847  MET847      0.2592
     49  O         14.9660  -17.4840   -1.2230 O.2   847  MET847     -0.2718
     50  CB        13.6020  -15.5300    0.8120 C.3   847  MET847      0.0401
     51  CG        13.3040  -15.0150    2.2100 C.3   847  MET847      0.0596
     52  SD        11.5470  -14.6950    2.4650 S.3   847  MET847     -0.1393
     53  CE        11.1860  -13.6250    1.0750 C.3   847  MET847      0.0692
     54  N         15.6620  -15.4130   -1.7310 N.am  848  TYR848     -0.1962
     55  CA        15.5500  -15.6650   -3.1620 C.3   848  TYR848      0.1771
     56  C         16.8410  -15.4260   -3.9360 C.2   848  TYR848      0.2619
     57  O         17.0120  -15.9800   -5.0260 O.2   848  TYR848     -0.2715
     58  CB        14.4240  -14.8110   -3.7480 C.3   848  TYR848      0.0574
     59  CG        13.0470  -15.3540   -3.4390 C.ar  848  TYR848     -0.0198
     60  CD1       12.4850  -16.3530   -4.2230 C.ar  848  TYR848     -0.0009
     61  CD2       12.3110  -14.8740   -2.3640 C.ar  848  TYR848     -0.0009
     62  CE1       11.2320  -16.8580   -3.9470 C.ar  848  TYR848      0.0417
     63  CE2       11.0540  -15.3740   -2.0800 C.ar  848  TYR848      0.0417
     64  CZ        10.5210  -16.3660   -2.8750 C.ar  848  TYR848      0.1957
     65  OH         9.2710  -16.8730   -2.6040 O.3   848  TYR848     -0.2866
     66  N         17.7450  -14.6030   -3.4130 N.am  849  ALA849     -0.1963
     67  CA        19.0030  -14.3780   -4.1120 C.3   849  ALA849      0.1728
     68  C         19.8050  -15.6730   -4.1660 C.2   849  ALA849      0.2616
     69  O         19.7940  -16.4670   -3.2220 O.2   849  ALA849     -0.2715
     70  CB        19.8060  -13.2750   -3.4280 C.3   849  ALA849      0.0334
     71  N         20.4840  -15.8930   -5.2960 N.am  850  GLU850     -0.1977
     72  CA        21.2320  -17.1350   -5.4810 C.3   850  GLU850      0.1602
     73  C         22.3380  -17.2780   -4.4440 C.2   850  GLU850      0.2287
     74  O         22.5390  -18.3610   -3.8840 O.2   850  GLU850     -0.2864
     75  CB        21.8140  -17.1940   -6.8940 C.3   850  GLU850      0.0415
     76  CG        20.7720  -17.2090   -8.0030 C.3   850  GLU850      0.1163
     77  CD        21.3880  -17.3730   -9.3810 C.2   850  GLU850      0.3649
     78  OE1       20.6370  -17.3330  -10.3780 O.co2 850  GLU850     -0.2457
     79  OE2       22.6220  -17.5430   -9.4680 O.co2 850  GLU850     -0.2457
     80  N         18.7420   -5.8820   -9.4620 N.3   959  MET959     -0.1245
     81  CA        17.5890   -6.0610   -8.5900 C.3   959  MET959      0.1570
     82  C         17.2290   -4.7610   -7.8790 C.2   959  MET959      0.2261
     83  O         16.0480   -4.4840   -7.6380 O.2   959  MET959     -0.2867
     84  CB        17.8740   -7.1690   -7.5800 C.3   959  MET959      0.0387
     85  CG        16.6900   -7.5000   -6.6850 C.3   959  MET959      0.0595
     86  SD        15.2380   -7.9990   -7.6290 S.3   959  MET959     -0.1393
     87  CE        14.0950   -8.3190   -6.2910 C.3   959  MET959      0.0692
     88  N         15.4640   -2.9110  -10.4350 N.3   962  LYS962     -0.1231
     89  CA        14.1730   -3.5910  -10.4730 C.3   962  LYS962      0.1693
     90  C         13.2430   -3.0470   -9.3990 C.2   962  LYS962      0.2591
     91  O         12.0580   -2.8010   -9.6510 O.2   962  LYS962     -0.2718
     92  CB        14.3580   -5.0980  -10.2880 C.3   962  LYS962      0.0285
     93  CG        14.6420   -5.8750  -11.5590 C.3   962  LYS962      0.0035
     94  CD        15.2060   -7.2580  -11.2310 C.3   962  LYS962      0.0206
     95  CE        15.5090   -8.0640  -12.4820 C.3   962  LYS962      0.1093
     96  NZ        16.4730   -9.1600  -12.1920 N.3   962  LYS962     -0.1314
     97  N         13.7760   -2.8340   -8.1970 N.am  963  ILE963     -0.1980
     98  CA        12.9630   -2.3990   -7.0660 C.3   963  ILE963      0.1595
     99  C         12.7920   -0.8840   -7.0650 C.2   963  ILE963      0.2287
    100  O         11.6760   -0.3680   -6.9290 O.2   963  ILE963     -0.2864
    101  CB        13.5940   -2.8850   -5.7460 C.3   963  ILE963      0.0276
    102  CG1       13.4110   -4.3920   -5.5780 C.3   963  ILE963      0.0022
    103  CG2       13.0120   -2.1200   -4.5570 C.3   963  ILE963      0.0022
    104  CD1       13.9090   -4.9040   -4.2470 C.3   963  ILE963      0.0001
    105  N         10.6370    2.1200   -9.9380 N.3   966  PRO966     -0.2116
    106  CA         9.1830    2.3570   -9.9060 C.3   966  PRO966      0.1372
    107  C          8.7140    3.5280   -9.0470 C.2   966  PRO966      0.2244
    108  O          7.5990    4.0250   -9.2440 O.2   966  PRO966     -0.2868
    109  CB         8.6380    1.0370   -9.3610 C.3   966  PRO966      0.0268
    110  CG         9.5810    0.0310   -9.8840 C.3   966  PRO966      0.0207
    111  CD        10.9420    0.6740   -9.9210 C.3   966  PRO966      0.0892
@<TRIPOS>BOND
     1    95    96    1
     2    95    94    1
     3    93    94    1
     4    93    92    1
     5    89    88    1
     6    89    92    1
     7    89    90    1
     8    78    77   ar
     9   105   111    1
    10   105   106    1
    11   111   110    1
    12   106   109    1
    13   106   107    1
    14   110   109    1
    15    91    90    2
    16    79    77   ar
    17    80    81    1
    18    90    97   am
    19    77    76    1
    20   108   107    2
    21    81    82    1
    22    81    84    1
    23    97    98    1
    24    76    75    1
    25    82    83    2
    26    86    85    1
    27    86    87    1
    28    84    85    1
    29    98    99    1
    30    98   101    1
    31    99   100    2
    32    75    72    1
    33    12    11    1
    34    43    45   ar
    35    43    41   ar
    36   101   102    1
    37   101   103    1
    38    45    44   ar
    39    40    41   ar
    40    40    38   ar
    41   102   104    1
    42    72    71    1
    43    72    73    1
    44    41    39   ar
    45    11     9   ar
    46    11    10   ar
    47    71    68   am
    48    57    56    2
    49     9     7   ar
    50    10     8   ar
    51    38    37   ar
    52    44    42   ar
    53    73    74    2
    54    60    62   ar
    55    60    59   ar
    56    68    67    1
    57    68    69    2
    58    39    42   ar
    59    39    37   ar
    60    67    70    1
    61    67    66    1
    62    62    64   ar
    63    56    66   am
    64    56    55    1
    65     7     6   ar
    66    58    59    1
    67    58    55    1
    68     8     6   ar
    69    37    36    1
    70    59    61   ar
    71     6     5    1
    72    55    54    1
    73    64    65    1
    74    64    63   ar
    75    36    33    1
    76    61    63   ar
    77     5     2    1
    78    22    19    1
    79    54    48   am
    80    35    34    2
    81    49    48    2
    82    33    34    1
    83    33    32    1
    84    48    47    1
    85    19    20    1
    86    19    18    1
    87     4     3    2
    88     2     3    1
    89     2     1    1
    90    21    20    2
    91    26    25    2
    92    25    24    1
    93    32    29   am
    94    18    15   am
    95    47    50    1
    96    47    46    1
    97    24    23    1
    98    50    51    1
    99    15    16    2
   100    15    14    1
   101    53    52    1
   102    29    30    2
   103    29    28    1
   104    17    14    1
   105    14    13    1
   106    51    52    1
   107    27    28    1
   108    28    31    1
