@<TRIPOS>MOLECULE
tmp/5ncqA03.pdb
 125 119 0 0 0
SMALL
GASTEIGER

@<TRIPOS>ATOM
      1  N         16.4210   22.3260   22.7070 N.3    59  ASP59      -0.1239
      2  CA        15.6660   21.8520   21.5530 C.3    59  ASP59       0.1674
      3  C         15.2540   20.3990   21.7490 C.2    59  ASP59       0.2266
      4  O         15.9960   19.5960   22.3210 O.2    59  ASP59      -0.2867
      5  CB        16.4900   21.9940   20.2730 C.3    59  ASP59       0.1410
      6  CG        15.8010   21.3820   19.0630 C.2    59  ASP59       0.3668
      7  OD1       14.5550   21.4460   18.9900 O.co2  59  ASP59      -0.2456
      8  OD2       16.5090   20.8450   18.1830 O.co2  59  ASP59      -0.2456
      9  N         14.3960   17.7930   19.4650 N.3    61  LEU61      -0.1231
     10  CA        15.0140   16.7370   18.6680 C.3    61  LEU61       0.1693
     11  C         16.4550   16.4910   19.1000 C.2    61  LEU61       0.2591
     12  O         16.9190   15.3440   19.1140 O.2    61  LEU61      -0.2718
     13  CB        14.9470   17.0880   17.1830 C.3    61  LEU61       0.0284
     14  CG        13.5420   17.1660   16.5800 C.3    61  LEU61       0.0019
     15  CD1       13.5980   16.9500   15.0770 C.3    61  LEU61       0.0001
     16  CD2       12.6000   16.1620   17.2350 C.3    61  LEU61       0.0001
     17  N         17.1770   17.5550   19.4600 N.am   62  VAL62      -0.1980
     18  CA        18.5220   17.3800   20.0010 C.3    62  VAL62       0.1595
     19  C         18.4760   16.5370   21.2680 C.2    62  VAL62       0.2287
     20  O         19.3170   15.6530   21.4740 O.2    62  VAL62      -0.2864
     21  CB        19.1880   18.7460   20.2480 C.3    62  VAL62       0.0276
     22  CG1       20.5210   18.5700   20.9640 C.3    62  VAL62       0.0022
     23  CG2       19.3880   19.4830   18.9330 C.3    62  VAL62       0.0022
     24  N         18.0300   12.9060   20.0410 N.3    65  LEU65      -0.1245
     25  CA        19.2490   12.3470   19.4680 C.3    65  LEU65       0.1561
     26  C         20.3470   12.2160   20.5150 C.2    65  LEU65       0.2260
     27  O         21.1270   11.2560   20.4900 O.2    65  LEU65      -0.2867
     28  CB        19.7220   13.2050   18.2960 C.3    65  LEU65       0.0270
     29  CG        20.9580   12.6870   17.5610 C.3    65  LEU65       0.0019
     30  CD1       20.7230   11.2770   17.0410 C.3    65  LEU65       0.0001
     31  CD2       21.3380   13.6190   16.4300 C.3    65  LEU65       0.0001
     32  N         27.7360   14.2510   14.8210 N.3    97  ILE97      -0.1231
     33  CA        26.6390   14.8670   14.0820 C.3    97  ILE97       0.1692
     34  C         25.8850   15.8430   14.9740 C.2    97  ILE97       0.2591
     35  O         25.4090   16.8930   14.5190 O.2    97  ILE97      -0.2718
     36  CB        25.7140   13.7790   13.5080 C.3    97  ILE97       0.0266
     37  CG1       26.5050   12.8970   12.5380 C.3    97  ILE97       0.0019
     38  CG2       24.5010   14.3980   12.8170 C.3    97  ILE97       0.0020
     39  CD1       25.6890   11.8320   11.8890 C.3    97  ILE97       0.0001
     40  N         25.7620   15.5120   16.2580 N.am   98  LEU98      -0.1980
     41  CA        25.1920   16.4610   17.2050 C.3    98  LEU98       0.1596
     42  C         26.1210   17.6530   17.3950 C.2    98  LEU98       0.2287
     43  O         25.6750   18.8070   17.3880 O.2    98  LEU98      -0.2864
     44  CB        24.9150   15.7660   18.5370 C.3    98  LEU98       0.0297
     45  CG        23.8300   16.4020   19.4050 C.3    98  LEU98       0.0022
     46  CD1       22.5130   16.4590   18.6560 C.3    98  LEU98       0.0001
     47  CD2       23.6740   15.6590   20.7220 C.3    98  LEU98       0.0001
     48  N         26.0090   19.8720   14.2730 N.3   101  ASN101     -0.1240
     49  CA        24.8130   20.7040   14.1940 C.3   101  ASN101      0.1653
     50  C         24.9150   21.9130   15.1160 C.2   101  ASN101      0.2266
     51  O         24.5410   23.0270   14.7310 O.2   101  ASN101     -0.2867
     52  CB        23.5730   19.8770   14.5270 C.3   101  ASN101      0.1155
     53  CG        22.7530   19.5330   13.2990 C.2   101  ASN101      0.2627
     54  OD1       23.2610   18.9730   12.3300 O.2   101  ASN101     -0.2716
     55  ND2       21.4760   19.8820   13.3320 N.am  101  ASN101     -0.0877
     56  N          8.4200   24.3040   11.5600 N.3   253  LEU253     -0.1231
     57  CA         9.3580   23.1900   11.6670 C.3   253  LEU253      0.1693
     58  C          9.3200   22.5650   13.0550 C.2   253  LEU253      0.2592
     59  O          9.4840   21.3480   13.2040 O.2   253  LEU253     -0.2718
     60  CB        10.7770   23.6570   11.3320 C.3   253  LEU253      0.0284
     61  CG        11.1810   23.7620    9.8590 C.3   253  LEU253      0.0019
     62  CD1       12.6650   24.0610    9.7510 C.3   253  LEU253      0.0001
     63  CD2       10.8290   22.4910    9.1040 C.3   253  LEU253      0.0001
     64  N          9.0940   23.3840   14.0840 N.am  254  ASP254     -0.1974
     65  CA         9.0780   22.8770   15.4500 C.3   254  ASP254      0.1709
     66  C          7.7920   22.1190   15.7530 C.2   254  ASP254      0.2293
     67  O          7.8170   21.1540   16.5270 O.2   254  ASP254     -0.2864
     68  CB         9.2830   24.0190   16.4400 C.3   254  ASP254      0.1436
     69  CG        10.7200   24.5370   16.4410 C.2   254  ASP254      0.3671
     70  OD1       11.3930   24.4690   15.3880 O.co2 254  ASP254     -0.2456
     71  OD2       11.1810   25.0080   17.5030 O.co2 254  ASP254     -0.2456
     72  N          6.2700   20.2690   13.5560 N.3   256  PHE256     -0.1227
     73  CA         6.6520   18.9700   13.0170 C.3   256  PHE256      0.1736
     74  C          7.6390   18.2610   13.9330 C.2   256  PHE256      0.2596
     75  O          7.6710   17.0260   13.9740 O.2   256  PHE256     -0.2718
     76  CB         7.2480   19.1350   11.6180 C.3   256  PHE256      0.0547
     77  CG         8.2100   18.0440   11.2370 C.ar  256  PHE256     -0.0202
     78  CD1        7.7460   16.8170   10.7960 C.ar  256  PHE256     -0.0042
     79  CD2        9.5800   18.2500   11.3130 C.ar  256  PHE256     -0.0042
     80  CE1        8.6290   15.8110   10.4460 C.ar  256  PHE256     -0.0003
     81  CE2       10.4680   17.2470   10.9670 C.ar  256  PHE256     -0.0003
     82  CZ         9.9910   16.0270   10.5300 C.ar  256  PHE256     -0.0000
     83  N          8.4500   19.0200   14.6710 N.am  257  GLY257     -0.1957
     84  CA         9.4160   18.4000   15.5600 C.3   257  GLY257      0.1869
     85  C          8.7640   17.6200   16.6850 C.2   257  GLY257      0.2309
     86  O          9.2730   16.5780   17.1060 O.2   257  GLY257     -0.2863
     87  N         14.6690   11.7510   12.4780 N.3   297  ILE297     -0.1231
     88  CA        15.1910   13.1150   12.5200 C.3   297  ILE297      0.1678
     89  C         15.9100   13.4360   11.2140 C.2   297  ILE297      0.2434
     90  O         16.7510   12.6500   10.7610 O.2   297  ILE297     -0.2733
     91  CB        16.1130   13.3040   13.7330 C.3   297  ILE297      0.0265
     92  CG1       15.3130   13.1240   15.0260 C.3   297  ILE297      0.0019
     93  CG2       16.7670   14.6680   13.6980 C.3   297  ILE297      0.0020
     94  CD1       16.1650   12.9810   16.2580 C.3   297  ILE297      0.0001
     95  N         15.6080   14.5690   10.5720 N.am  298  PRO298     -0.2718
     96  CA        16.2600   14.8830    9.2870 C.3   298  PRO298      0.1535
     97  C         17.7600   15.0960    9.3980 C.2   298  PRO298      0.2598
     98  O         18.4490   15.0800    8.3690 O.2   298  PRO298     -0.2715
     99  CB        15.5430   16.1650    8.8380 C.3   298  PRO298      0.0310
    100  CG        14.2430   16.1690    9.5960 C.3   298  PRO298      0.0237
    101  CD        14.5610   15.5470   10.9150 C.3   298  PRO298      0.0939
    102  N         18.2740   15.3240   10.6090 N.am  299  GLU299     -0.1978
    103  CA        19.7070   15.3610   10.8850 C.3   299  GLU299      0.1602
    104  C         20.4380   16.4580   10.1200 C.2   299  GLU299      0.2287
    105  O         20.9970   17.3790   10.7300 O.2   299  GLU299     -0.2864
    106  CB        20.3490   14.0030   10.5810 C.3   299  GLU299      0.0415
    107  CG        20.3950   13.0570   11.7730 C.3   299  GLU299      0.1163
    108  CD        19.5850   11.7950   11.5560 C.2   299  GLU299      0.3649
    109  OE1       18.9810   11.3110   12.5320 O.co2 299  GLU299     -0.2457
    110  OE2       19.5490   11.2890   10.4140 O.co2 299  GLU299     -0.2457
    111  N         19.0440   18.5470    7.8050 N.3   301  LEU301     -0.1231
    112  CA        18.1890   19.6400    7.3440 C.3   301  LEU301      0.1678
    113  C         18.7080   21.0260    7.7150 C.2   301  LEU301      0.2434
    114  O         18.7090   21.9060    6.8400 O.2   301  LEU301     -0.2733
    115  CB        16.7640   19.4330    7.8730 C.3   301  LEU301      0.0284
    116  CG        15.7770   20.5300    7.4810 C.3   301  LEU301      0.0019
    117  CD1       15.4970   20.4920    5.9850 C.3   301  LEU301      0.0001
    118  CD2       14.4910   20.4400    8.2830 C.3   301  LEU301      0.0001
    119  N         19.1290   21.3060    8.9600 N.am  302  PRO302     -0.2729
    120  CA        19.6670   22.6490    9.2370 C.3   302  PRO302      0.1401
    121  C         20.8820   22.9900    8.3960 C.2   302  PRO302      0.2269
    122  O         21.0400   24.1480    7.9900 O.2   302  PRO302     -0.2865
    123  CB        20.0070   22.5900   10.7340 C.3   302  PRO302      0.0296
    124  CG        19.1360   21.5280   11.2740 C.3   302  PRO302      0.0237
    125  CD        19.0450   20.5020   10.1930 C.3   302  PRO302      0.0939
@<TRIPOS>BOND
     1   117   116    1
     2   114   113    2
     3   112   113    1
     4   112   111    1
     5   112   115    1
     6   116   115    1
     7   116   118    1
     8   113   119   am
     9   122   121    2
    10    98    97    2
    11   121   120    1
    12    99    96    1
    13    99   100    1
    14   119   120    1
    15   119   125    1
    16    63    61    1
    17   120   123    1
    18    96    97    1
    19    96    95    1
    20    97   102   am
    21   100   101    1
    22    62    61    1
    23    61    60    1
    24   104   105    2
    25   104   103    1
    26   125   124    1
    27   110   108   ar
    28    80    82   ar
    29    80    78   ar
    30    82    81   ar
    31    95   101    1
    32    95    89   am
    33   106   103    1
    34   106   107    1
    35   102   103    1
    36   123   124    1
    37    90    89    2
    38    78    77   ar
    39    81    79   ar
    40    89    88    1
    41    77    79   ar
    42    77    76    1
    43    60    57    1
    44   108   107    1
    45   108   109   ar
    46    56    57    1
    47    76    73    1
    48    57    58    1
    49    39    37    1
    50    54    53    2
    51    87    88    1
    52    88    91    1
    53    37    36    1
    54    38    36    1
    55    73    72    1
    56    73    74    1
    57    58    59    2
    58    58    64   am
    59    53    55   am
    60    53    52    1
    61    36    33    1
    62    93    91    1
    63    91    92    1
    64    74    75    2
    65    74    83   am
    66    33    32    1
    67    33    34    1
    68    64    65    1
    69    49    48    1
    70    49    52    1
    71    49    50    1
    72    35    34    2
    73    83    84    1
    74    51    50    2
    75    34    40   am
    76    92    94    1
    77    15    14    1
    78    70    69   ar
    79    65    66    1
    80    65    68    1
    81    84    85    1
    82    66    67    2
    83    40    41    1
    84    31    29    1
    85    68    69    1
    86    69    71   ar
    87    14    13    1
    88    14    16    1
    89    85    86    2
    90    30    29    1
    91    13    10    1
    92    41    42    1
    93    41    44    1
    94    43    42    2
    95    29    28    1
    96     8     6   ar
    97    28    25    1
    98    44    45    1
    99    46    45    1
   100    10    11    1
   101    10     9    1
   102    23    21    1
   103     7     6   ar
   104     6     5    1
   105    11    12    2
   106    11    17   am
   107    45    47    1
   108    17    18    1
   109    25    24    1
   110    25    26    1
   111    18    21    1
   112    18    19    1
   113    21    22    1
   114     5     2    1
   115    27    26    2
   116    19    20    2
   117     2     3    1
   118     2     1    1
   119     3     4    2
