@<TRIPOS>MOLECULE
tmp/5ncqA00.pdb
 175 164 0 0 0
SMALL
GASTEIGER

@<TRIPOS>ATOM
      1  N          9.8290   55.8180   -1.5170 N.3   341  ASP341     -0.1225
      2  CA         9.9290   57.2310   -1.8450 C.3   341  ASP341      0.1805
      3  C         10.2330   57.4160   -3.3280 C.2   341  ASP341      0.2598
      4  O         10.8320   56.5530   -3.9720 O.2   341  ASP341     -0.2718
      5  CB        11.0130   57.9080   -1.0020 C.3   341  ASP341      0.1424
      6  CG        10.8360   57.6660    0.4870 C.2   341  ASP341      0.3668
      7  OD1       10.2790   58.5460    1.1770 O.co2 341  ASP341     -0.2456
      8  OD2       11.2610   56.5950    0.9690 O.co2 341  ASP341     -0.2456
      9  N          9.8170   58.5650   -3.8660 N.am  342  LYS342     -0.1966
     10  CA         9.9650   58.8280   -5.2960 C.3   342  LYS342      0.1728
     11  C         11.3940   59.2120   -5.6610 C.2   342  LYS342      0.2616
     12  O         12.0330   58.5580   -6.4930 O.2   342  LYS342     -0.2715
     13  CB         9.0080   59.9350   -5.7390 C.3   342  LYS342      0.0311
     14  CG         9.1000   60.2210   -7.2350 C.3   342  LYS342      0.0038
     15  CD         8.6510   61.6250   -7.5910 C.3   342  LYS342      0.0206
     16  CE         9.7090   62.6600   -7.2410 C.3   342  LYS342      0.1093
     17  NZ         9.6790   63.8210   -8.1750 N.3   342  LYS342     -0.1314
     18  N         11.9010   60.2890   -5.0610 N.am  343  THR343     -0.1951
     19  CA        13.1620   60.8770   -5.4960 C.3   343  THR343      0.1897
     20  C         14.3390   59.9750   -5.1430 C.2   343  THR343      0.2313
     21  O         14.5010   59.5630   -3.9890 O.2   343  THR343     -0.2863
     22  CB        13.3540   62.2520   -4.8590 C.3   343  THR343      0.1794
     23  OG1       12.3310   63.1430   -5.3180 O.3   343  THR343     -0.2208
     24  CG2       14.7080   62.8190   -5.2260 C.3   343  THR343      0.0378
     25  N         19.2170   69.2720   -6.4120 N.3   431  THR431     -0.1218
     26  CA        18.2770   70.2700   -6.9160 C.3   431  THR431      0.1862
     27  C         18.9140   71.6500   -7.0210 C.2   431  THR431      0.2287
     28  O         18.5040   72.4560   -7.8630 O.2   431  THR431     -0.2866
     29  CB        17.0320   70.3290   -6.0270 C.3   431  THR431      0.1770
     30  OG1       17.4240   70.5240   -4.6640 O.3   431  THR431     -0.2211
     31  CG2       16.2450   69.0440   -6.1340 C.3   431  THR431      0.0375
     32  N         15.2700   77.3740    4.5330 N.3   477  PHE477     -0.1241
     33  CA        13.9690   76.8940    4.0900 C.3   477  PHE477      0.1605
     34  C         13.1730   76.3300    5.2610 C.2   477  PHE477      0.2264
     35  O         13.6850   75.5300    6.0490 O.2   477  PHE477     -0.2867
     36  CB        14.1560   75.8260    3.0140 C.3   477  PHE477      0.0534
     37  CG        12.8830   75.1380    2.5960 C.ar  477  PHE477     -0.0203
     38  CD1       12.4210   74.0200    3.2770 C.ar  477  PHE477     -0.0042
     39  CD2       12.1610   75.5970    1.5100 C.ar  477  PHE477     -0.0042
     40  CE1       11.2540   73.3820    2.8880 C.ar  477  PHE477     -0.0003
     41  CE2       11.0030   74.9580    1.1110 C.ar  477  PHE477     -0.0003
     42  CZ        10.5440   73.8530    1.8050 C.ar  477  PHE477     -0.0000
     43  N          9.2480   74.4390    6.0640 N.3   479  ARG479     -0.1245
     44  CA         8.1830   73.7260    5.3710 C.3   479  ARG479      0.1563
     45  C          6.8240   74.3910    5.5330 C.2   479  ARG479      0.2260
     46  O          5.9200   74.1180    4.7370 O.2   479  ARG479     -0.2867
     47  CB         8.1100   72.2790    5.8600 C.3   479  ARG479      0.0307
     48  CG         9.2780   71.4260    5.3960 C.3   479  ARG479      0.0489
     49  CD         9.1490   69.9990    5.8850 C.3   479  ARG479      0.2205
     50  NE        10.2620   69.1690    5.4320 N.pl3 479  ARG479     -0.0865
     51  CZ        10.3800   67.8710    5.6930 C.cat 479  ARG479      0.5346
     52  NH1       11.4270   67.1930    5.2410 N.pl3 479  ARG479      0.1354
     53  NH2        9.4520   67.2470    6.4050 N.pl3 479  ARG479      0.1354
     54  N          7.4830   76.9830    2.7280 N.3   482  LYS482     -0.1245
     55  CA         7.9770   76.3210    1.5190 C.3   482  LYS482      0.1561
     56  C          8.7430   77.2930    0.6220 C.2   482  LYS482      0.2260
     57  O          8.4530   77.4380   -0.5690 O.2   482  LYS482     -0.2867
     58  CB         6.8310   75.6580    0.7520 C.3   482  LYS482      0.0271
     59  CG         6.0030   74.7080    1.5990 C.3   482  LYS482      0.0035
     60  CD         4.6820   74.3560    0.9410 C.3   482  LYS482      0.0206
     61  CE         3.8010   73.5510    1.8900 C.3   482  LYS482      0.1093
     62  NZ         3.4930   74.3030    3.1400 N.3   482  LYS482     -0.1314
     63  N         12.8010   79.8170    0.6490 N.3   484  MET484     -0.1245
     64  CA        13.9980   80.3190    1.3080 C.3   484  MET484      0.1570
     65  C         14.4270   81.6010    0.6100 C.2   484  MET484      0.2261
     66  O         14.0160   81.8790   -0.5200 O.2   484  MET484     -0.2867
     67  CB        15.1310   79.2820    1.2950 C.3   484  MET484      0.0387
     68  CG        15.5770   78.8470   -0.0910 C.3   484  MET484      0.0595
     69  SD        16.9340   79.8190   -0.7720 S.3   484  MET484     -0.1393
     70  CE        18.2700   79.3050    0.2990 C.3   484  MET484      0.0692
     71  N         13.5150   82.0460   -3.3890 N.3   505  LYS505     -0.1231
     72  CA        13.0820   80.9210   -4.2020 C.3   505  LYS505      0.1693
     73  C         12.2760   79.9800   -3.3230 C.2   505  LYS505      0.2593
     74  O         12.5640   79.8370   -2.1290 O.2   505  LYS505     -0.2718
     75  CB        14.2700   80.1800   -4.8490 C.3   505  LYS505      0.0285
     76  CG        14.9560   79.1240   -3.9890 C.3   505  LYS505      0.0035
     77  CD        15.9470   78.3410   -4.8260 C.3   505  LYS505      0.0206
     78  CE        16.2810   76.9920   -4.2050 C.3   505  LYS505      0.1093
     79  NZ        17.3280   77.0980   -3.1550 N.3   505  LYS505     -0.1314
     80  N         11.2620   79.3530   -3.9080 N.am  506  GLY506     -0.1942
     81  CA        10.4350   78.4350   -3.1470 C.3   506  GLY506      0.2014
     82  C          9.3150   77.8660   -3.9910 C.2   506  GLY506      0.2638
     83  O          9.2150   78.1180   -5.1970 O.2   506  GLY506     -0.2714
     84  N          8.4740   77.0800   -3.3270 N.am  507  ALA507     -0.1977
     85  CA         7.3480   76.4470   -3.9970 C.3   507  ALA507      0.1597
     86  C          6.3890   77.5140   -4.5190 C.2   507  ALA507      0.2287
     87  O          6.0650   78.4610   -3.7870 O.2   507  ALA507     -0.2864
     88  CB         6.6220   75.4990   -3.0430 C.3   507  ALA507      0.0319
     89  N          8.8990   69.4160  -11.3930 N.3   550  ARG550     -0.1231
     90  CA         8.8270   70.1810  -10.1610 C.3   550  ARG550      0.1694
     91  C          9.1430   71.6320  -10.4830 C.2   550  ARG550      0.2592
     92  O         10.1060   71.9250  -11.1980 O.2   550  ARG550     -0.2718
     93  CB         9.8120   69.6480   -9.1220 C.3   550  ARG550      0.0321
     94  CG         9.3680   69.8800   -7.6850 C.3   550  ARG550      0.0489
     95  CD        10.5230   70.2650   -6.7700 C.3   550  ARG550      0.2205
     96  NE        11.6580   69.3500   -6.8630 N.pl3 550  ARG550     -0.0865
     97  CZ        11.6790   68.1210   -6.3510 C.cat 550  ARG550      0.5346
     98  NH1       10.6170   67.6380   -5.7170 N.pl3 550  ARG550      0.1354
     99  NH2       12.7620   67.3690   -6.4840 N.pl3 550  ARG550      0.1354
    100  N          8.3270   72.5410   -9.9650 N.am  551  CYS551     -0.1956
    101  CA         8.4380   73.9540  -10.2880 C.3   551  CYS551      0.1843
    102  C          8.9070   74.7480   -9.0770 C.2   551  CYS551      0.2625
    103  O          8.5260   74.4550   -7.9400 O.2   551  CYS551     -0.2714
    104  CB         7.1030   74.5050  -10.7900 C.3   551  CYS551      0.0997
    105  SG         6.7070   74.0320  -12.4920 S.3   551  CYS551     -0.0797
    106  N          9.7410   75.7520   -9.3360 N.am  552  LEU552     -0.1977
    107  CA        10.2080   76.6850   -8.3230 C.3   552  LEU552      0.1596
    108  C          9.9280   78.1030   -8.7900 C.2   552  LEU552      0.2287
    109  O         10.1460   78.4360   -9.9590 O.2   552  LEU552     -0.2864
    110  CB        11.7080   76.5140   -8.0450 C.3   552  LEU552      0.0297
    111  CG        12.1210   75.3480   -7.1450 C.3   552  LEU552      0.0022
    112  CD1       13.6250   75.3560   -6.8990 C.3   552  LEU552      0.0001
    113  CD2       11.3590   75.4020   -5.8310 C.3   552  LEU552      0.0001
    114  N          6.1350   60.9950   -1.6280 N.3   615  THR615     -0.1203
    115  CA         6.9110   62.0100   -2.3250 C.3   615  THR615      0.1994
    116  C          6.6810   63.3640   -1.6680 C.2   615  THR615      0.2618
    117  O          5.7790   63.5390   -0.8450 O.2   615  THR615     -0.2717
    118  CB         6.5480   62.0630   -3.8140 C.3   615  THR615      0.1784
    119  OG1        7.3420   63.0560   -4.4720 O.3   615  THR615     -0.2211
    120  CG2        5.0870   62.4250   -3.9790 C.3   615  THR615      0.0376
    121  N          7.5170   64.3260   -2.0460 N.am  616  GLY616     -0.1942
    122  CA         7.4050   65.6890   -1.5790 C.3   616  GLY616      0.2014
    123  C          6.8150   66.6630   -2.5700 C.2   616  GLY616      0.2638
    124  O          6.6830   67.8470   -2.2440 O.2   616  GLY616     -0.2714
    125  N          6.4650   66.2090   -3.7730 N.am  617  ASP617     -0.1971
    126  CA         5.8120   67.0690   -4.7500 C.3   617  ASP617      0.1709
    127  C          4.4560   67.5390   -4.2210 C.2   617  ASP617      0.2293
    128  O          3.9700   67.0830   -3.1850 O.2   617  ASP617     -0.2864
    129  CB         5.6240   66.3290   -6.0760 C.3   617  ASP617      0.1436
    130  CG         6.8740   65.6050   -6.5250 C.2   617  ASP617      0.3671
    131  OD1        7.7820   66.2700   -7.0660 O.co2 617  ASP617     -0.2456
    132  OD2        6.9470   64.3720   -6.3440 O.co2 617  ASP617     -0.2456
    133  N          3.9670   65.1240    0.5490 N.3   668  ARG668     -0.1231
    134  CA         4.3370   66.0220    1.6440 C.3   668  ARG668      0.1694
    135  C          3.7790   65.5230    2.9790 C.2   668  ARG668      0.2592
    136  O          2.8200   66.0560    3.5340 O.2   668  ARG668     -0.2718
    137  CB         3.8820   67.4540    1.3430 C.3   668  ARG668      0.0321
    138  CG         4.4060   67.9620    0.0190 C.3   668  ARG668      0.0489
    139  CD         4.0390   69.4050   -0.2370 C.3   668  ARG668      0.2205
    140  NE         4.5950   69.8730   -1.5040 N.pl3 668  ARG668     -0.0865
    141  CZ         4.2500   71.0120   -2.0970 C.cat 668  ARG668      0.5346
    142  NH1        3.3410   71.7980   -1.5400 N.pl3 668  ARG668      0.1354
    143  NH2        4.8090   71.3620   -3.2490 N.pl3 668  ARG668      0.1354
    144  N          4.4110   64.4690    3.4710 N.am  669  VAL669     -0.1966
    145  CA         4.0660   63.8990    4.7650 C.3   669  VAL669      0.1727
    146  C          5.0870   64.3730    5.7820 C.2   669  VAL669      0.2616
    147  O          6.2460   64.6500    5.4510 O.2   669  VAL669     -0.2715
    148  CB         4.0010   62.3570    4.7140 C.3   669  VAL669      0.0290
    149  CG1        2.9830   61.9070    3.6830 C.3   669  VAL669      0.0023
    150  CG2        5.3730   61.7630    4.4080 C.3   669  VAL669      0.0023
    151  N          4.6380   64.5140    7.0270 N.am  670  GLU670     -0.1977
    152  CA         5.5360   64.7490    8.1400 C.3   670  GLU670      0.1602
    153  C          6.3350   63.4740    8.3910 C.2   670  GLU670      0.2287
    154  O          6.0050   62.4130    7.8570 O.2   670  GLU670     -0.2864
    155  CB         4.7410   65.1790    9.3730 C.3   670  GLU670      0.0415
    156  CG         4.1010   66.5500    9.2320 C.3   670  GLU670      0.1163
    157  CD         3.3020   66.9560   10.4500 C.2   670  GLU670      0.3649
    158  OE1        3.1060   66.1080   11.3460 O.co2 670  GLU670     -0.2457
    159  OE2        2.8690   68.1260   10.5110 O.co2 670  GLU670     -0.2457
    160  N         15.8730   56.6040    3.9970 N.3   693  ASP693     -0.1239
    161  CA        17.2960   56.9130    3.9230 C.3   693  ASP693      0.1674
    162  C         17.6920   57.9160    4.9970 C.2   693  ASP693      0.2266
    163  O         18.8390   57.9300    5.4480 O.2   693  ASP693     -0.2867
    164  CB        17.6740   57.4550    2.5410 C.3   693  ASP693      0.1410
    165  CG        16.8190   58.6430    2.1080 C.2   693  ASP693      0.3668
    166  OD1       16.2050   59.3050    2.9750 O.co2 693  ASP693     -0.2456
    167  OD2       16.7630   58.9140    0.8870 O.co2 693  ASP693     -0.2456
    168  N         13.8840   58.4010    9.4260 N.3   697  ASP697     -0.1239
    169  CA        13.2460   57.1960    8.9110 C.3   697  ASP697      0.1674
    170  C         13.4730   55.9690    9.7860 C.2   697  ASP697      0.2266
    171  O         12.9020   54.9120    9.4940 O.2   697  ASP697     -0.2867
    172  CB        13.7450   56.9050    7.4940 C.3   697  ASP697      0.1410
    173  CG        13.2070   57.8890    6.4680 C.2   697  ASP697      0.3668
    174  OD1       12.0330   58.3010    6.5880 O.co2 697  ASP697     -0.2456
    175  OD2       13.9620   58.2470    5.5350 O.co2 697  ASP697     -0.2456
@<TRIPOS>BOND
     1   105   104    1
     2    89    90    1
     3    92    91    2
     4   104   101    1
     5    91    90    1
     6    91   100   am
     7   101   100    1
     8   101   102    1
     9    90    93    1
    10   109   108    2
    11   106   102   am
    12   106   107    1
    13    93    94    1
    14   102   103    2
    15   108   107    1
    16   107   110    1
    17    17    16    1
    18   110   111    1
    19    28    27    2
    20    94    95    1
    21    15    16    1
    22    15    14    1
    23    14    13    1
    24   111   112    1
    25   111   113    1
    26   131   130   ar
    27    27    26    1
    28    26    25    1
    29    26    29    1
    30    96    95    1
    31    96    97    2
    32   130   132   ar
    33   130   129    1
    34    12    11    2
    35    99    97    1
    36    97    98    1
    37    31    29    1
    38   129   126    1
    39    29    30    1
    40    13    10    1
    41    11    10    1
    42    11    18   am
    43    19    20    1
    44    19    18    1
    45    19    22    1
    46    23    22    1
    47    10     9    1
    48    24    22    1
    49    83    82    2
    50    20    21    2
    51    75    72    1
    52    75    76    1
    53    77    78    1
    54    77    76    1
    55   126   127    1
    56   126   125    1
    57    86    85    1
    58    86    87    2
    59   119   118    1
    60   127   128    2
    61    78    79    1
    62    72    71    1
    63    72    73    1
    64    85    84    1
    65    85    88    1
    66    82    84   am
    67    82    81    1
    68   120   118    1
    69     4     3    2
    70    80    73   am
    71    80    81    1
    72     9     3   am
    73   118   115    1
    74   125   123   am
    75     3     2    1
    76    73    74    2
    77   143   141    1
    78   123   124    2
    79   123   122    1
    80   115   116    1
    81   115   114    1
    82   141   142    1
    83   141   140    2
    84   121   116   am
    85   121   122    1
    86     2     1    1
    87     2     5    1
    88   116   117    2
    89   140   139    1
    90     5     6    1
    91    69    68    1
    92    69    70    1
    93    57    56    2
    94    66    65    2
    95   139   138    1
    96    68    67    1
    97   138   137    1
    98     6     8   ar
    99     6     7   ar
   100   133   134    1
   101    65    64    1
   102    56    55    1
   103    63    64    1
   104    58    55    1
   105    58    59    1
   106   167   165   ar
   107    60    59    1
   108    60    61    1
   109    41    39   ar
   110    41    42   ar
   111    67    64    1
   112   137   134    1
   113    39    37   ar
   114    55    54    1
   115   134   135    1
   116    42    40   ar
   117    61    62    1
   118   165   164    1
   119   165   166   ar
   120   164   161    1
   121    37    36    1
   122    37    38   ar
   123    40    38   ar
   124   135   144   am
   125   135   136    2
   126    36    33    1
   127   144   145    1
   128   149   148    1
   129   161   160    1
   130   161   162    1
   131    33    32    1
   132    33    34    1
   133   150   148    1
   134   148   145    1
   135    46    45    2
   136   145   146    1
   137   162   163    2
   138    52    51    1
   139    34    35    2
   140    44    45    1
   141    44    47    1
   142    44    43    1
   143    48    47    1
   144    48    49    1
   145    50    51    2
   146    50    49    1
   147   147   146    2
   148   175   173   ar
   149    51    53    1
   150   146   151   am
   151   173   174   ar
   152   173   172    1
   153   151   152    1
   154   172   169    1
   155   154   153    2
   156   152   153    1
   157   152   155    1
   158   169   168    1
   159   169   170    1
   160   156   155    1
   161   156   157    1
   162   171   170    2
   163   157   159   ar
   164   157   158   ar
