@<TRIPOS>MOLECULE
tmp/5ncqA02.pdb
 109 105 0 0 0
SMALL
GASTEIGER

@<TRIPOS>ATOM
      1  N          8.6980   -2.0880   10.0460 N.3   767  LEU767     -0.1245
      2  CA         8.4010   -3.4170    9.5200 C.3   767  LEU767      0.1561
      3  C          9.3610   -4.4530   10.0900 C.2   767  LEU767      0.2260
      4  O          8.9450   -5.5410   10.5080 O.2   767  LEU767     -0.2867
      5  CB         8.4650   -3.4090    7.9920 C.3   767  LEU767      0.0270
      6  CG         7.5350   -2.4640    7.2290 C.3   767  LEU767      0.0019
      7  CD1        7.5610   -2.7950    5.7470 C.3   767  LEU767      0.0001
      8  CD2        6.1140   -2.5280    7.7730 C.3   767  LEU767      0.0001
      9  N          7.6170   -7.3980   11.7730 N.3   771  LEU771     -0.1245
     10  CA         7.7010   -8.7200   11.1690 C.3   771  LEU771      0.1561
     11  C          8.7070   -9.6240   11.8680 C.2   771  LEU771      0.2260
     12  O          8.7270  -10.8270   11.5890 O.2   771  LEU771     -0.2867
     13  CB         8.0520   -8.6050    9.6830 C.3   771  LEU771      0.0270
     14  CG         7.0330   -7.8910    8.7890 C.3   771  LEU771      0.0019
     15  CD1        7.3160   -8.1640    7.3170 C.3   771  LEU771      0.0001
     16  CD2        5.6160   -8.3030    9.1540 C.3   771  LEU771      0.0001
     17  N          6.0850    3.1150    0.2570 N.3   833  TYR833     -0.1241
     18  CA         6.7590    2.3070   -0.7530 C.3   833  TYR833      0.1605
     19  C          8.2570    2.2310   -0.5010 C.2   833  TYR833      0.2264
     20  O          8.8760    1.2010   -0.7820 O.2   833  TYR833     -0.2867
     21  CB         6.4840    2.8670   -2.1500 C.3   833  TYR833      0.0534
     22  CG         7.2120    2.1350   -3.2630 C.ar  833  TYR833     -0.0201
     23  CD1        6.6700    0.9940   -3.8480 C.ar  833  TYR833     -0.0009
     24  CD2        8.4470    2.5760   -3.7200 C.ar  833  TYR833     -0.0009
     25  CE1        7.3390    0.3230   -4.8630 C.ar  833  TYR833      0.0417
     26  CE2        9.1210    1.9110   -4.7290 C.ar  833  TYR833      0.0417
     27  CZ         8.5630    0.7880   -5.2970 C.ar  833  TYR833      0.1957
     28  OH         9.2360    0.1300   -6.3010 O.3   833  TYR833     -0.2866
     29  N          8.6900   -0.3800    2.4360 N.3   836  ALA836     -0.1245
     30  CA         8.4910   -1.7510    1.9770 C.3   836  ALA836      0.1562
     31  C          9.6020   -2.1900    1.0280 C.2   836  ALA836      0.2260
     32  O         10.0700   -3.3330    1.0950 O.2   836  ALA836     -0.2867
     33  CB         7.1250   -1.8790    1.3020 C.3   836  ALA836      0.0290
     34  N         12.9180   -3.0800    3.0040 N.3   839  VAL839     -0.1231
     35  CA        12.7890   -4.3300    3.7430 C.3   839  VAL839      0.1692
     36  C         12.7180   -5.5120    2.7830 C.2   839  VAL839      0.2592
     37  O         13.3760   -6.5380    2.9910 O.2   839  VAL839     -0.2718
     38  CB        11.5640   -4.2700    4.6750 C.3   839  VAL839      0.0266
     39  CG1       11.1660   -5.6610    5.1320 C.3   839  VAL839      0.0020
     40  CG2       11.8590   -3.3790    5.8730 C.3   839  VAL839      0.0020
     41  N         11.9300   -5.3870    1.7150 N.am  840  GLY840     -0.1957
     42  CA        11.8810   -6.4460    0.7230 C.3   840  GLY840      0.1869
     43  C         13.2060   -6.6590    0.0200 C.2   840  GLY840      0.2309
     44  O         13.5100   -7.7750   -0.4110 O.2   840  GLY840     -0.2863
     45  N         15.0310   -8.8560    2.4150 N.3   843  ALA843     -0.1245
     46  CA        14.3550  -10.1480    2.4650 C.3   843  ALA843      0.1562
     47  C         14.6010  -10.9450    1.1910 C.2   843  ALA843      0.2260
     48  O         14.7410  -12.1730    1.2360 O.2   843  ALA843     -0.2867
     49  CB        12.8550   -9.9510    2.6910 C.3   843  ALA843      0.0290
     50  N         15.9610  -14.9050    1.0460 N.3   847  MET847     -0.1230
     51  CA        15.0590  -15.9520    0.5900 C.3   847  MET847      0.1702
     52  C         15.2300  -16.3340   -0.8710 C.2   847  MET847      0.2592
     53  O         14.9660  -17.4840   -1.2230 O.2   847  MET847     -0.2718
     54  CB        13.6020  -15.5300    0.8120 C.3   847  MET847      0.0401
     55  CG        13.3040  -15.0150    2.2100 C.3   847  MET847      0.0596
     56  SD        11.5470  -14.6950    2.4650 S.3   847  MET847     -0.1393
     57  CE        11.1860  -13.6250    1.0750 C.3   847  MET847      0.0692
     58  N         15.6620  -15.4130   -1.7310 N.am  848  TYR848     -0.1976
     59  CA        15.5500  -15.6650   -3.1620 C.3   848  TYR848      0.1639
     60  C         16.8410  -15.4260   -3.9360 C.2   848  TYR848      0.2290
     61  O         17.0120  -15.9800   -5.0260 O.2   848  TYR848     -0.2864
     62  CB        14.4240  -14.8110   -3.7480 C.3   848  TYR848      0.0560
     63  CG        13.0470  -15.3540   -3.4390 C.ar  848  TYR848     -0.0198
     64  CD1       12.4850  -16.3530   -4.2230 C.ar  848  TYR848     -0.0009
     65  CD2       12.3110  -14.8740   -2.3640 C.ar  848  TYR848     -0.0009
     66  CE1       11.2320  -16.8580   -3.9470 C.ar  848  TYR848      0.0417
     67  CE2       11.0540  -15.3740   -2.0800 C.ar  848  TYR848      0.0417
     68  CZ        10.5210  -16.3660   -2.8750 C.ar  848  TYR848      0.1957
     69  OH         9.2710  -16.8730   -2.6040 O.3   848  TYR848     -0.2866
     70  N         18.6830  -18.6670    0.9930 N.3   854  GLY854     -0.1210
     71  CA        17.3760  -19.0850    0.5120 C.3   854  GLY854      0.1956
     72  C         16.4740  -19.6110    1.6060 C.2   854  GLY854      0.2612
     73  O         15.6900  -20.5400    1.3710 O.2   854  GLY854     -0.2717
     74  N         16.5730  -19.0380    2.8070 N.am  855  VAL855     -0.1965
     75  CA        15.7860  -19.4690    3.9590 C.3   855  VAL855      0.1727
     76  C         14.3070  -19.2080    3.7120 C.2   855  VAL855      0.2617
     77  O         13.9350  -18.4830    2.7830 O.2   855  VAL855     -0.2715
     78  CB        16.2490  -18.7600    5.2440 C.3   855  VAL855      0.0290
     79  CG1       17.7480  -18.9060    5.4230 C.3   855  VAL855      0.0023
     80  CG2       15.8500  -17.3030    5.2090 C.3   855  VAL855      0.0023
     81  N         13.4550  -19.7850    4.5510 N.am  856  THR856     -0.1937
     82  CA        12.0240  -19.5470    4.4630 C.3   856  THR856      0.2028
     83  C         11.6400  -18.3470    5.3200 C.2   856  THR856      0.2642
     84  O         12.3820  -17.9250    6.2090 O.2   856  THR856     -0.2714
     85  CB        11.2360  -20.7820    4.9030 C.3   856  THR856      0.1808
     86  OG1       11.4400  -21.0050    6.3030 O.3   856  THR856     -0.2208
     87  CG2       11.6900  -22.0080    4.1270 C.3   856  THR856      0.0379
     88  N         10.4640  -17.7850    5.0250 N.am  857  TYR857     -0.1959
     89  CA        10.0110  -16.5990    5.7450 C.3   857  TYR857      0.1771
     90  C          9.7970  -16.9000    7.2230 C.2   857  TYR857      0.2619
     91  O         10.0600  -16.0490    8.0820 O.2   857  TYR857     -0.2715
     92  CB         8.7300  -16.0500    5.1120 C.3   857  TYR857      0.0574
     93  CG         8.1240  -14.8810    5.8620 C.ar  857  TYR857     -0.0198
     94  CD1        8.6560  -13.6020    5.7450 C.ar  857  TYR857     -0.0009
     95  CD2        7.0190  -15.0540    6.6870 C.ar  857  TYR857     -0.0009
     96  CE1        8.1050  -12.5340    6.4280 C.ar  857  TYR857      0.0417
     97  CE2        6.4650  -13.9900    7.3750 C.ar  857  TYR857      0.0417
     98  CZ         7.0120  -12.7350    7.2420 C.ar  857  TYR857      0.1957
     99  OH         6.4570  -11.6790    7.9270 O.3   857  TYR857     -0.2866
    100  N          9.3170  -18.1050    7.5390 N.am  858  HIS858     -0.1973
    101  CA         9.2130  -18.5070    8.9380 C.3   858  HIS858      0.1656
    102  C         10.5920  -18.5590    9.5790 C.2   858  HIS858      0.2291
    103  O         10.7940  -18.0480   10.6860 O.2   858  HIS858     -0.2864
    104  CB         8.5110  -19.8600    9.0580 C.3   858  HIS858      0.0771
    105  CG         8.4150  -20.3620   10.4650 C.ar  858  HIS858      0.0820
    106  ND1        7.4860  -19.8850   11.3640 N.ar  858  HIS858     -0.2267
    107  CD2        9.1410  -21.2890   11.1310 C.ar  858  HIS858      0.1154
    108  CE1        7.6400  -20.5010   12.5230 C.ar  858  HIS858      0.1986
    109  NE2        8.6380  -21.3580   12.4080 N.ar  858  HIS858     -0.2212
@<TRIPOS>BOND
     1    28    27    1
     2    27    25   ar
     3    27    26   ar
     4    61    60    2
     5    25    23   ar
     6    26    24   ar
     7    64    66   ar
     8    64    63   ar
     9    66    68   ar
    10    60    59    1
    11    23    22   ar
    12    62    63    1
    13    62    59    1
    14    24    22   ar
    15    63    65   ar
    16    22    21    1
    17    59    58    1
    18    68    69    1
    19    68    67   ar
    20    65    67   ar
    21    21    18    1
    22    58    52   am
    23    53    52    2
    24    52    51    1
    25    20    19    2
    26    18    19    1
    27    18    17    1
    28    44    43    2
    29    43    42    1
    30    71    70    1
    31    71    72    1
    32    51    54    1
    33    51    50    1
    34    42    41    1
    35    54    55    1
    36    31    32    2
    37    31    30    1
    38    57    56    1
    39    47    48    2
    40    47    46    1
    41    33    30    1
    42    73    72    2
    43    72    74   am
    44    41    36   am
    45    30    29    1
    46    55    56    1
    47    45    46    1
    48    46    49    1
    49    77    76    2
    50    36    37    2
    51    36    35    1
    52    74    75    1
    53    34    35    1
    54    76    75    1
    55    76    81   am
    56    35    38    1
    57    75    78    1
    58    87    85    1
    59    82    81    1
    60    82    85    1
    61    82    83    1
    62    38    39    1
    63    38    40    1
    64    85    86    1
    65    88    83   am
    66    88    89    1
    67    92    89    1
    68    92    93    1
    69    80    78    1
    70    78    79    1
    71    83    84    2
    72    89    90    1
    73    94    93   ar
    74    94    96   ar
    75     7     6    1
    76    93    95   ar
    77    96    98   ar
    78    95    97   ar
    79    90   100   am
    80    90    91    2
    81     6     8    1
    82     6     5    1
    83    98    97   ar
    84    98    99    1
    85    15    14    1
    86   100   101    1
    87     5     2    1
    88    14    16    1
    89    14    13    1
    90   101   104    1
    91   101   102    1
    92   104   105    1
    93     2     1    1
    94     2     3    1
    95   102   103    2
    96    13    10    1
    97     3     4    2
    98   105   107   ar
    99   105   106   ar
   100   107   109   ar
   101    10     9    1
   102    10    11    1
   103   106   108   ar
   104    12    11    2
   105   109   108   ar
