@<TRIPOS>MOLECULE
tmp/5ncxA00.pdb
 172 165 0 0 0
SMALL
GASTEIGER

@<TRIPOS>ATOM
      1  N         -4.3540   21.9820   31.3490 N.3   409  GLU409     -0.1245
      2  CA        -5.4520   21.7150   30.3750 C.3   409  GLU409      0.1567
      3  C         -5.8240   23.0510   29.6850 C.2   409  GLU409      0.2260
      4  O         -5.9990   23.0920   28.4750 O.2   409  GLU409     -0.2867
      5  CB        -6.6420   21.0760   31.1400 C.3   409  GLU409      0.0388
      6  CG        -7.9340   20.9470   30.3260 C.3   409  GLU409      0.1160
      7  CD        -9.1240   20.3610   31.1040 C.2   409  GLU409      0.3649
      8  OE1       -8.8330   19.8070   32.1970 O.co2 409  GLU409     -0.2457
      9  OE2      -10.4780   20.3020   30.4040 O.co2 409  GLU409     -0.2457
     10  N        -10.1750   25.8280   33.2780 N.3   413  TYR413     -0.1241
     11  CA       -10.2140   24.5780   34.0060 C.3   413  TYR413      0.1605
     12  C         -8.7580   24.2810   34.3730 C.2   413  TYR413      0.2264
     13  O         -8.0150   23.5940   33.6070 O.2   413  TYR413     -0.2867
     14  CB       -10.7960   23.4640   33.1460 C.3   413  TYR413      0.0534
     15  CG       -12.0130   23.8330   32.3100 C.ar  413  TYR413     -0.0201
     16  CD1      -13.0990   24.4750   32.8490 C.ar  413  TYR413     -0.0009
     17  CD2      -12.0720   23.4920   30.9990 C.ar  413  TYR413     -0.0009
     18  CE1      -14.2170   24.7690   32.0620 C.ar  413  TYR413      0.0417
     19  CE2      -13.1830   23.7480   30.2160 C.ar  413  TYR413      0.0417
     20  CZ       -14.2490   24.4010   30.7510 C.ar  413  TYR413      0.1957
     21  OH       -15.2920   24.6230   29.8690 O.3   413  TYR413     -0.2866
     22  N         -6.2540   22.6870   35.6250 N.3   415  TYR415     -0.1241
     23  CA        -5.8170   21.3430   36.0080 C.3   415  TYR415      0.1605
     24  C         -4.5620   20.9480   35.2220 C.2   415  TYR415      0.2264
     25  O         -4.5120   21.0670   34.0090 O.2   415  TYR415     -0.2867
     26  CB        -6.8700   20.2540   35.7160 C.3   415  TYR415      0.0534
     27  CG        -8.2010   20.6450   36.3300 C.ar  415  TYR415     -0.0201
     28  CD1       -8.2710   20.9520   37.6790 C.ar  415  TYR415     -0.0009
     29  CD2       -9.3330   20.7670   35.5430 C.ar  415  TYR415     -0.0009
     30  CE1       -9.4800   21.3260   38.3010 C.ar  415  TYR415      0.0417
     31  CE2      -10.5310   21.1730   36.1460 C.ar  415  TYR415      0.0417
     32  CZ       -10.5670   21.4420   37.4990 C.ar  415  TYR415      0.1957
     33  OH       -11.7490   21.7910   38.0950 O.3   415  TYR415     -0.2866
     34  N         -4.1830   16.9760   32.5070 N.3   418  THR418     -0.1218
     35  CA        -5.3910   16.2150   32.3920 C.3   418  THR418      0.1862
     36  C         -5.1640   15.0690   31.3830 C.2   418  THR418      0.2287
     37  O         -4.8960   15.3100   30.2020 O.2   418  THR418     -0.2866
     38  CB        -6.4950   17.1580   31.9980 C.3   418  THR418      0.1770
     39  OG1       -6.6430   18.1330   33.0440 O.3   418  THR418     -0.2211
     40  CG2       -7.7650   16.3990   31.8280 C.3   418  THR418      0.0375
     41  N         -6.9380   12.6050   30.0900 N.3   420  ASP420     -0.1225
     42  CA        -7.8740   12.3920   28.9520 C.3   420  ASP420      0.1805
     43  C         -7.6750   13.3730   27.8270 C.2   420  ASP420      0.2597
     44  O         -8.0700   13.0630   26.6860 O.2   420  ASP420     -0.2718
     45  CB        -9.3630   12.3490   29.3680 C.3   420  ASP420      0.1424
     46  CG        -9.7510   13.5560   30.2500 C.2   420  ASP420      0.3668
     47  OD1       -9.1320   13.6840   31.3290 O.co2 420  ASP420     -0.2456
     48  OD2      -10.5950   14.3590   29.8590 O.co2 420  ASP420     -0.2456
     49  N         -7.0740   14.5260   28.1350 N.am  421  VAL421     -0.1980
     50  CA        -6.7780   15.5840   27.1900 C.3   421  VAL421      0.1595
     51  C         -5.3880   15.4020   26.6060 C.2   421  VAL421      0.2287
     52  O         -5.1930   15.5640   25.3910 O.2   421  VAL421     -0.2864
     53  CB        -6.9240   16.9700   27.8340 C.3   421  VAL421      0.0276
     54  CG1       -6.5830   18.0510   26.8710 C.3   421  VAL421      0.0022
     55  CG2       -8.3480   17.1740   28.3170 C.3   421  VAL421      0.0022
     56  N         -7.4730   11.8270   36.9420 N.3   475  HIS475     -0.1241
     57  CA        -7.8160   12.7550   35.9020 C.3   475  HIS475      0.1621
     58  C         -6.7120   13.7800   35.6250 C.2   475  HIS475      0.2264
     59  O         -6.4450   14.1690   34.4760 O.2   475  HIS475     -0.2867
     60  CB        -9.0570   13.4920   36.3470 C.3   475  HIS475      0.0745
     61  CG        -9.4300   14.6410   35.4870 C.ar  475  HIS475      0.0817
     62  ND1      -10.2490   14.4910   34.3950 N.ar  475  HIS475     -0.2268
     63  CD2       -9.1610   15.9610   35.5630 C.ar  475  HIS475      0.1154
     64  CE1      -10.4490   15.6590   33.8270 C.ar  475  HIS475      0.1986
     65  NE2       -9.8090   16.5710   34.5200 N.ar  475  HIS475     -0.2212
     66  N         -9.8460   18.1430   39.7230 N.3   491  TYR491     -0.1241
     67  CA       -11.1150   18.2180   39.0050 C.3   491  TYR491      0.1605
     68  C        -12.2070   17.5670   39.8440 C.2   491  TYR491      0.2264
     69  O        -12.0210   16.4690   40.3900 O.2   491  TYR491     -0.2867
     70  CB       -10.9730   17.4290   37.6870 C.3   491  TYR491      0.0534
     71  CG       -12.2020   17.1240   36.8740 C.ar  491  TYR491     -0.0201
     72  CD1      -12.7110   18.0340   35.9440 C.ar  491  TYR491     -0.0009
     73  CD2      -12.7950   15.8830   36.9610 C.ar  491  TYR491     -0.0009
     74  CE1      -13.7930   17.7210   35.1400 C.ar  491  TYR491      0.0417
     75  CE2      -13.8900   15.5790   36.1840 C.ar  491  TYR491      0.0417
     76  CZ       -14.3700   16.4700   35.2730 C.ar  491  TYR491      0.1957
     77  OH       -15.4190   16.1010   34.4550 O.3   491  TYR491     -0.2866
     78  N        -14.2490    6.5460   35.6610 N.3   499  TRP499     -0.1241
     79  CA       -14.2090    6.7750   34.2320 C.3   499  TRP499      0.1605
     80  C        -13.6870    5.5450   33.5410 C.2   499  TRP499      0.2264
     81  O        -12.8840    4.7760   34.1160 O.2   499  TRP499     -0.2867
     82  CB       -13.4050    8.0010   33.8230 C.3   499  TRP499      0.0550
     83  CG       -14.1310    9.3420   34.0460 C.ar  499  TRP499      0.0003
     84  CD1      -15.2520    9.5540   34.8130 C.ar  499  TRP499      0.0946
     85  CD2      -13.7710   10.6070   33.5070 C.ar  499  TRP499      0.0152
     86  NE1      -15.6380   10.8710   34.7480 N.ar  499  TRP499     -0.2442
     87  CE2      -14.7290   11.5480   33.9730 C.ar  499  TRP499      0.0810
     88  CE3      -12.7500   11.0440   32.6490 C.ar  499  TRP499      0.0012
     89  CZ2      -14.6680   12.9100   33.6220 C.ar  499  TRP499      0.0191
     90  CZ3      -12.6990   12.3880   32.2960 C.ar  499  TRP499      0.0001
     91  CH2      -13.6620   13.3140   32.8040 C.ar  499  TRP499      0.0015
     92  N        -14.1250   11.5140   29.0160 N.3   559  THR559     -0.1218
     93  CA       -13.7040   12.8550   28.6160 C.3   559  THR559      0.1862
     94  C        -14.8860   13.7680   28.1470 C.2   559  THR559      0.2287
     95  O        -14.8420   14.9390   28.4140 O.2   559  THR559     -0.2866
     96  CB       -12.5290   12.8300   27.5710 C.3   559  THR559      0.1770
     97  OG1      -11.8000   14.0820   27.5360 O.3   559  THR559     -0.2211
     98  CG2      -13.0280   12.5380   26.1960 C.3   559  THR559      0.0375
     99  N        -17.5200   14.9050   29.2910 N.3   561  ASP561     -0.1239
    100  CA       -17.9570   14.8820   30.6760 C.3   561  ASP561      0.1674
    101  C        -19.3690   15.4950   30.9180 C.2   561  ASP561      0.2266
    102  O        -19.7660   15.6150   32.0350 O.2   561  ASP561     -0.2867
    103  CB       -16.8700   15.4420   31.6230 C.3   561  ASP561      0.1410
    104  CG       -16.6810   16.9430   31.4940 C.2   561  ASP561      0.3668
    105  OD1      -17.2370   17.5210   30.5450 O.co2 561  ASP561     -0.2456
    106  OD2      -15.9030   17.4710   32.2830 O.co2 561  ASP561     -0.2456
    107  N        -22.0950   18.9420   24.1600 N.3   695  GLN695     -0.1245
    108  CA       -20.8430   18.3850   23.6010 C.3   695  GLN695      0.1566
    109  C        -21.0140   17.7430   22.2640 C.2   695  GLN695      0.2260
    110  O        -20.1590   17.8750   21.3900 O.2   695  GLN695     -0.2867
    111  CB       -20.1570   17.4470   24.6100 C.3   695  GLN695      0.0367
    112  CG       -19.6060   18.2440   25.7910 C.3   695  GLN695      0.0905
    113  CD       -19.0510   17.3920   26.8980 C.2   695  GLN695      0.2608
    114  OE1      -19.3250   16.2150   26.9750 O.2   695  GLN695     -0.2717
    115  NE2      -18.2410   18.0060   27.7890 N.am  695  GLN695     -0.0878
    116  N        -14.7180   19.7950   18.5460 N.3   700  TRP700     -0.1241
    117  CA       -13.5280   19.8300   19.4310 C.3   700  TRP700      0.1605
    118  C        -12.3120   19.9360   18.5550 C.2   700  TRP700      0.2264
    119  O        -12.0380   19.0610   17.7450 O.2   700  TRP700     -0.2867
    120  CB       -13.5120   18.6300   20.3750 C.3   700  TRP700      0.0550
    121  CG       -14.4860   18.7510   21.5530 C.ar  700  TRP700      0.0003
    122  CD1      -15.5250   19.6180   21.6760 C.ar  700  TRP700      0.0946
    123  CD2      -14.5180   17.9470   22.7310 C.ar  700  TRP700      0.0152
    124  NE1      -16.1560   19.4350   22.8550 N.ar  700  TRP700     -0.2442
    125  CE2      -15.5660   18.4110   23.5300 C.ar  700  TRP700      0.0810
    126  CE3      -13.7370   16.8860   23.2030 C.ar  700  TRP700      0.0012
    127  CZ2      -15.8710   17.8580   24.8070 C.ar  700  TRP700      0.0191
    128  CZ3      -14.0350   16.3490   24.4500 C.ar  700  TRP700      0.0001
    129  CH2      -15.0990   16.8350   25.2370 C.ar  700  TRP700      0.0015
    130  N        -10.8640   24.7710   23.2040 N.3   745  GLU745     -0.1245
    131  CA       -11.2900   23.3940   23.1500 C.3   745  GLU745      0.1567
    132  C        -12.3330   23.2470   21.9850 C.2   745  GLU745      0.2260
    133  O        -12.2650   22.3270   21.1620 O.2   745  GLU745     -0.2867
    134  CB       -11.9700   22.9860   24.4500 C.3   745  GLU745      0.0388
    135  CG       -12.8430   21.7190   24.4120 C.3   745  GLU745      0.1160
    136  CD       -12.0990   20.4200   24.6110 C.2   745  GLU745      0.3649
    137  OE1      -12.2900   19.8000   25.6890 O.co2 745  GLU745     -0.2457
    138  OE2      -11.3100   20.0340   23.7320 O.co2 745  GLU745     -0.2457
    139  N        -15.7680   27.6600   23.5940 N.3   754  ARG754     -0.1245
    140  CA       -15.6280   27.2860   24.9760 C.3   754  ARG754      0.1563
    141  C        -14.1560   26.9570   25.2490 C.2   754  ARG754      0.2260
    142  O        -13.5760   26.1650   24.5190 O.2   754  ARG754     -0.2867
    143  CB       -16.4920   26.0980   25.3410 C.3   754  ARG754      0.0307
    144  CG       -16.4420   25.6780   26.8010 C.3   754  ARG754      0.0489
    145  CD       -17.5170   24.6730   27.1310 C.3   754  ARG754      0.2205
    146  NE       -17.3840   23.4450   26.3270 N.pl3 754  ARG754     -0.0865
    147  CZ       -16.5430   22.4660   26.5730 C.cat 754  ARG754      0.5346
    148  NH1      -15.6810   22.5560   27.6120 N.pl3 754  ARG754      0.1354
    149  NH2      -16.5280   21.3600   25.7740 N.pl3 754  ARG754      0.1354
    150  N         -6.2470   26.2150   25.0520 N.3   758  TYR758     -0.1241
    151  CA        -6.5160   24.8730   25.4370 C.3   758  TYR758      0.1605
    152  C         -5.4500   23.8970   24.9320 C.2   758  TYR758      0.2264
    153  O         -4.9460   24.0950   23.8510 O.2   758  TYR758     -0.2867
    154  CB        -7.9240   24.4400   24.8740 C.3   758  TYR758      0.0534
    155  CG        -8.5310   23.3070   25.6540 C.ar  758  TYR758     -0.0201
    156  CD1       -9.1330   23.5400   26.8920 C.ar  758  TYR758     -0.0009
    157  CD2       -8.6000   22.0190   25.1610 C.ar  758  TYR758     -0.0009
    158  CE1       -9.6390   22.4960   27.6490 C.ar  758  TYR758      0.0417
    159  CE2       -9.1040   20.9840   25.9070 C.ar  758  TYR758      0.0417
    160  CZ        -9.6480   21.2140   27.1240 C.ar  758  TYR758      0.1957
    161  OH       -10.1590   20.1980   27.8710 O.3   758  TYR758     -0.2866
    162  N         -5.6490   20.5500   24.0520 N.3   760  ARG760     -0.1245
    163  CA        -6.0270   19.5330   23.0800 C.3   760  ARG760      0.1563
    164  C         -5.6280   19.7350   21.6340 C.2   760  ARG760      0.2260
    165  O         -5.1770   18.7400   21.0610 O.2   760  ARG760     -0.2867
    166  CB        -7.5210   19.1420   23.2170 C.3   760  ARG760      0.0307
    167  CG        -7.8040   17.6600   22.9370 C.3   760  ARG760      0.0489
    168  CD        -9.3130   17.3220   22.7770 C.3   760  ARG760      0.2205
    169  NE       -10.0930   17.5790   23.9530 N.pl3 760  ARG760     -0.0865
    170  CZ       -10.3740   16.7750   24.9740 C.cat 760  ARG760      0.5346
    171  NH1      -10.0110   15.4820   25.0220 N.pl3 760  ARG760      0.1354
    172  NH2      -11.1100   17.2360   25.9630 N.pl3 760  ARG760      0.1354
@<TRIPOS>BOND
     1   119   118    2
     2   116   117    1
     3   118   117    1
     4   117   120    1
     5   120   121    1
     6   165   164    2
     7   133   132    2
     8   110   109    2
     9   121   122   ar
    10   121   123   ar
    11   164   163    1
    12   122   124   ar
    13   132   131    1
    14   109   108    1
    15   123   126   ar
    16   123   125   ar
    17   168   167    1
    18   168   169    1
    19   124   125   ar
    20   167   166    1
    21   163   166    1
    22   163   162    1
    23   131   130    1
    24   131   134    1
    25   126   128   ar
    26   125   127   ar
    27   139   140    1
    28   108   107    1
    29   108   111    1
    30   138   136   ar
    31   153   152    2
    32   169   170    2
    33   135   134    1
    34   135   136    1
    35   128   129   ar
    36   142   141    2
    37   111   112    1
    38   136   137   ar
    39   127   129   ar
    40   154   151    1
    41   154   155    1
    42   152   151    1
    43   170   171    1
    44   170   172    1
    45   140   141    1
    46   140   143    1
    47   150   151    1
    48   157   155   ar
    49   157   159   ar
    50   143   144    1
    51    52    51    2
    52   155   156   ar
    53   149   147    1
    54   112   113    1
    55   159   160   ar
    56    98    96    1
    57   146   147    2
    58   146   145    1
    59   147   148    1
    60    51    50    1
    61    44    43    2
    62   144   145    1
    63    54    53    1
    64   156   158   ar
    65   113   114    2
    66   113   115   am
    67   160   158   ar
    68   160   161    1
    69    50    53    1
    70    50    49    1
    71    97    96    1
    72    96    93    1
    73    43    49   am
    74    43    42    1
    75    53    55    1
    76    94    95    2
    77    94    93    1
    78     4     3    2
    79    93    92    1
    80    42    45    1
    81    42    41    1
    82    99   100    1
    83    45    46    1
    84     3     2    1
    85    48    46   ar
    86    21    20    1
    87    37    36    2
    88    19    20   ar
    89    19    17   ar
    90    46    47   ar
    91     6     7    1
    92     6     5    1
    93     2     5    1
    94     2     1    1
    95     9     7   ar
    96   105   104   ar
    97   100   101    1
    98   100   103    1
    99    20    18   ar
   100   101   102    2
   101    17    15   ar
   102     7     8   ar
   103    36    35    1
   104   104   103    1
   105   104   106   ar
   106    40    38    1
   107    38    35    1
   108    38    39    1
   109    18    16   ar
   110    90    88   ar
   111    90    91   ar
   112    15    16   ar
   113    15    14    1
   114    35    34    1
   115    88    85   ar
   116    91    89   ar
   117    14    11    1
   118    10    11    1
   119    85    87   ar
   120    85    83   ar
   121    80    81    2
   122    80    79    1
   123    13    12    2
   124    89    87   ar
   125    82    83    1
   126    82    79    1
   127    64    62   ar
   128    64    65   ar
   129    87    86   ar
   130    11    12    1
   131    25    24    2
   132    83    84   ar
   133    79    78    1
   134    62    61   ar
   135    77    76    1
   136    59    58    2
   137    65    63   ar
   138    86    84   ar
   139    74    76   ar
   140    74    72   ar
   141    24    23    1
   142    76    75   ar
   143    61    63   ar
   144    61    60    1
   145    29    31   ar
   146    29    27   ar
   147    58    57    1
   148    22    23    1
   149    26    23    1
   150    26    27    1
   151    57    60    1
   152    57    56    1
   153    72    71   ar
   154    31    32   ar
   155    75    73   ar
   156    27    28   ar
   157    71    73   ar
   158    71    70    1
   159    32    33    1
   160    32    30   ar
   161    28    30   ar
   162    70    67    1
   163    67    66    1
   164    67    68    1
   165    68    69    2
