@<TRIPOS>MOLECULE
tmp/5ncyA00.pdb
 187 181 0 0 0
SMALL
GASTEIGER

@<TRIPOS>ATOM
      1  N         -1.3400  -57.0380    8.1330 N.3   517  LYS517     -0.1245
      2  CA        -1.1530  -55.9400    9.0590 C.3   517  LYS517      0.1561
      3  C          0.2550  -55.3170    8.9300 C.2   517  LYS517      0.2260
      4  O          0.3010  -54.0990    8.8100 O.2   517  LYS517     -0.2867
      5  CB        -1.4830  -56.3340   10.5100 C.3   517  LYS517      0.0271
      6  CG        -1.6720  -55.1150   11.3930 C.3   517  LYS517      0.0035
      7  CD        -1.4440  -55.4070   12.8470 C.3   517  LYS517      0.0206
      8  CE        -1.5620  -54.1340   13.6500 C.3   517  LYS517      0.1093
      9  NZ        -2.0270  -54.4040   15.0320 N.3   517  LYS517     -0.1314
     10  N          0.3770  -46.9650   14.5640 N.3   559  THR559     -0.1203
     11  CA        -0.1860  -48.2070   14.0600 C.3   559  THR559      0.1994
     12  C         -1.7080  -48.1230   14.0170 C.2   559  THR559      0.2618
     13  O         -2.2760  -47.0340   14.0620 O.2   559  THR559     -0.2717
     14  CB         0.3970  -49.4170   14.8630 C.3   559  THR559      0.1784
     15  OG1        0.0770  -50.6240   14.1880 O.3   559  THR559     -0.2211
     16  CG2       -0.0440  -49.4510   16.3490 C.3   559  THR559      0.0376
     17  N         -2.3590  -49.2520   13.9050 N.am  560  PHE560     -0.1961
     18  CA        -3.8130  -49.3220   13.8740 C.3   560  PHE560      0.1771
     19  C         -4.2420  -50.6370   14.4890 C.2   560  PHE560      0.2619
     20  O         -3.4300  -51.5540   14.5720 O.2   560  PHE560     -0.2715
     21  CB        -4.3680  -49.1630   12.4580 C.3   560  PHE560      0.0574
     22  CG        -4.1210  -50.3430   11.5370 C.ar  560  PHE560     -0.0200
     23  CD1       -2.8880  -50.5080   10.9030 C.ar  560  PHE560     -0.0042
     24  CD2       -5.1370  -51.2530   11.2580 C.ar  560  PHE560     -0.0042
     25  CE1       -2.6520  -51.6120   10.0820 C.ar  560  PHE560     -0.0003
     26  CE2       -4.9130  -52.3300   10.3940 C.ar  560  PHE560     -0.0003
     27  CZ        -3.6690  -52.5060    9.8190 C.ar  560  PHE560     -0.0000
     28  N         -5.4930  -50.7110   14.9630 N.am  561  MET561     -0.1977
     29  CA        -6.0480  -51.9410   15.5090 C.3   561  MET561      0.1605
     30  C         -6.6900  -52.6410   14.3070 C.2   561  MET561      0.2287
     31  O         -7.5940  -52.0850   13.6740 O.2   561  MET561     -0.2864
     32  CB        -7.0910  -51.6230   16.5910 C.3   561  MET561      0.0413
     33  CG        -7.8790  -52.8310   17.0450 C.3   561  MET561      0.0598
     34  SD        -8.7530  -52.4430   18.5630 S.3   561  MET561     -0.1393
     35  CE        -7.3940  -52.4900   19.7120 C.3   561  MET561      0.0692
     36  N         -9.2610  -48.3220   14.2650 N.3   567  PRO567     -0.2102
     37  CA        -8.7620  -47.0610   14.8430 C.3   567  PRO567      0.1504
     38  C         -7.2360  -46.9380   14.7970 C.2   567  PRO567      0.2576
     39  O         -6.5360  -47.9180   14.9660 O.2   567  PRO567     -0.2718
     40  CB        -9.2950  -47.0870   16.2840 C.3   567  PRO567      0.0282
     41  CG        -9.4260  -48.5780   16.6070 C.3   567  PRO567      0.0208
     42  CD        -9.9130  -49.1680   15.2970 C.3   567  PRO567      0.0893
     43  N         -6.7390  -45.7180   14.5880 N.am  568  LEU568     -0.1966
     44  CA        -5.3250  -45.3970   14.5180 C.3   568  LEU568      0.1728
     45  C         -4.7440  -45.1120   15.8790 C.2   568  LEU568      0.2616
     46  O         -5.4210  -44.5560   16.7300 O.2   568  LEU568     -0.2715
     47  CB        -5.0570  -44.1960   13.5820 C.3   568  LEU568      0.0311
     48  CG        -5.7250  -44.2680   12.1900 C.3   568  LEU568      0.0022
     49  CD1       -5.3530  -43.0360   11.3470 C.3   568  LEU568      0.0001
     50  CD2       -5.3930  -45.5840   11.4590 C.3   568  LEU568      0.0001
     51  N         -3.4700  -45.4860   16.0700 N.am  569  TRP569     -0.1974
     52  CA        -2.7060  -45.2750   17.2970 C.3   569  TRP569      0.1640
     53  C         -1.5850  -44.3150   16.8860 C.2   569  TRP569      0.2290
     54  O         -0.7060  -44.6950   16.0990 O.2   569  TRP569     -0.2864
     55  CB        -2.1410  -46.6400   17.7500 C.3   569  TRP569      0.0576
     56  CG        -1.3100  -46.6320   19.0000 C.ar  569  TRP569      0.0006
     57  CD1        0.0370  -46.4150   19.0910 C.ar  569  TRP569      0.0946
     58  CD2       -1.7550  -46.9770   20.3270 C.ar  569  TRP569      0.0152
     59  NE1        0.4590  -46.6030   20.3920 N.ar  569  TRP569     -0.2442
     60  CE2       -0.6240  -46.9360   21.1730 C.ar  569  TRP569      0.0810
     61  CE3       -3.0040  -47.3210   20.8820 C.ar  569  TRP569      0.0012
     62  CZ2       -0.7010  -47.2400   22.5440 C.ar  569  TRP569      0.0191
     63  CZ3       -3.0720  -47.6320   22.2360 C.ar  569  TRP569      0.0001
     64  CH2       -1.9320  -47.5770   23.0500 C.ar  569  TRP569      0.0015
     65  N         -5.6260  -41.7680   20.0970 N.3   586  ILE586     -0.1245
     66  CA        -6.3070  -42.7820   19.2940 C.3   586  ILE586      0.1561
     67  C         -7.2900  -41.9890   18.4470 C.2   586  ILE586      0.2260
     68  O         -8.0210  -41.1750   18.9970 O.2   586  ILE586     -0.2867
     69  CB        -7.0210  -43.8510   20.1730 C.3   586  ILE586      0.0252
     70  CG1       -5.9990  -44.8400   20.7990 C.3   586  ILE586      0.0019
     71  CG2       -8.1080  -44.6070   19.3700 C.3   586  ILE586      0.0019
     72  CD1       -6.5010  -45.4370   22.1290 C.3   586  ILE586      0.0001
     73  N         -8.9640  -40.7900   31.5680 N.3   622  TYR622     -0.1241
     74  CA        -8.3790  -40.4690   30.2510 C.3   622  TYR622      0.1605
     75  C         -9.4250  -39.7570   29.3700 C.2   622  TYR622      0.2264
     76  O        -10.6240  -40.0080   29.4890 O.2   622  TYR622     -0.2867
     77  CB        -7.8220  -41.7340   29.5360 C.3   622  TYR622      0.0534
     78  CG        -8.8870  -42.7530   29.2070 C.ar  622  TYR622     -0.0201
     79  CD1       -9.5540  -42.7260   27.9840 C.ar  622  TYR622     -0.0009
     80  CD2       -9.2020  -43.7770   30.0980 C.ar  622  TYR622     -0.0009
     81  CE1      -10.5400  -43.6590   27.6750 C.ar  622  TYR622      0.0417
     82  CE2      -10.1740  -44.7260   29.7930 C.ar  622  TYR622      0.0417
     83  CZ       -10.8470  -44.6590   28.5850 C.ar  622  TYR622      0.1957
     84  OH       -11.8320  -45.5720   28.2970 O.3   622  TYR622     -0.2866
     85  N         -9.3560  -40.3740   21.5010 N.3   634  ILE634     -0.1231
     86  CA        -9.2490  -41.0530   22.7960 C.3   634  ILE634      0.1692
     87  C         -7.8090  -40.8670   23.2390 C.2   634  ILE634      0.2592
     88  O         -6.8850  -41.0870   22.4460 O.2   634  ILE634     -0.2718
     89  CB        -9.6520  -42.5600   22.7670 C.3   634  ILE634      0.0266
     90  CG1      -11.1540  -42.7290   22.3680 C.3   634  ILE634      0.0019
     91  CG2       -9.4230  -43.1980   24.1540 C.3   634  ILE634      0.0020
     92  CD1      -11.5550  -44.1740   21.8870 C.3   634  ILE634      0.0001
     93  N         -7.6090  -40.4020   24.4780 N.am  635  GLU635     -0.1966
     94  CA        -6.2610  -40.2490   25.0160 C.3   635  GLU635      0.1733
     95  C         -5.6510  -41.6250   25.3350 C.2   635  GLU635      0.2616
     96  O         -6.2630  -42.4410   26.0300 O.2   635  GLU635     -0.2715
     97  CB        -6.3010  -39.4030   26.2850 C.3   635  GLU635      0.0429
     98  CG        -4.9500  -39.2680   26.9540 C.3   635  GLU635      0.1163
     99  CD        -5.0250  -38.6060   28.3150 C.2   635  GLU635      0.3649
    100  OE1       -6.1500  -38.3750   28.8150 O.co2 635  GLU635     -0.2457
    101  OE2       -3.9490  -38.2720   28.8560 O.co2 635  GLU635     -0.2457
    102  N         -4.4410  -41.8610   24.8440 N.am  636  VAL636     -0.1963
    103  CA        -3.7640  -43.1430   25.0920 C.3   636  VAL636      0.1727
    104  C         -3.2980  -43.2240   26.5400 C.2   636  VAL636      0.2616
    105  O         -2.6310  -42.2990   27.0200 O.2   636  VAL636     -0.2715
    106  CB        -2.5560  -43.3250   24.1220 C.3   636  VAL636      0.0290
    107  CG1       -1.5980  -44.4280   24.6010 C.3   636  VAL636      0.0023
    108  CG2       -3.0340  -43.6100   22.7000 C.3   636  VAL636      0.0023
    109  N         -3.5940  -44.3420   27.2060 N.am  637  VAL637     -0.1977
    110  CA        -3.0320  -44.5980   28.5270 C.3   637  VAL637      0.1596
    111  C         -1.7890  -45.4870   28.2500 C.2   637  VAL637      0.2287
    112  O         -1.9350  -46.6480   27.8560 O.2   637  VAL637     -0.2864
    113  CB        -4.0210  -45.2590   29.5030 C.3   637  VAL637      0.0276
    114  CG1       -3.3240  -45.6080   30.8260 C.3   637  VAL637      0.0022
    115  CG2       -5.2290  -44.3550   29.7440 C.3   637  VAL637      0.0022
    116  N          0.1330  -49.8070   29.7780 N.3   640  SER640     -0.1202
    117  CA        -1.0780  -50.5250   30.1250 C.3   640  SER640      0.2020
    118  C         -1.3300  -51.6430   29.1290 C.2   640  SER640      0.2619
    119  O         -0.8830  -51.5580   27.9890 O.2   640  SER640     -0.2717
    120  CB        -2.2740  -49.5640   30.2000 C.3   640  SER640      0.2103
    121  OG        -2.6610  -49.0350   28.9420 O.3   640  SER640     -0.2182
    122  N         -2.0440  -52.6880   29.5540 N.am  641  ASP641     -0.1959
    123  CA        -2.4200  -53.8040   28.6750 C.3   641  ASP641      0.1840
    124  C         -3.8420  -54.2110   28.9540 C.2   641  ASP641      0.2622
    125  O         -4.3880  -53.8680   30.0070 O.2   641  ASP641     -0.2715
    126  CB        -1.4520  -55.0070   28.8630 C.3   641  ASP641      0.1450
    127  CG        -1.2760  -55.9170   27.6480 C.2   641  ASP641      0.3671
    128  OD1       -2.1240  -55.8570   26.7130 O.co2 641  ASP641     -0.2456
    129  OD2       -0.2540  -56.6300   27.5920 O.co2 641  ASP641     -0.2456
    130  N         -4.4550  -54.9650   28.0500 N.am  642  THR642     -0.1951
    131  CA        -5.8060  -55.4490   28.3000 C.3   642  THR642      0.1897
    132  C         -5.7050  -56.6610   29.2490 C.2   642  THR642      0.2313
    133  O         -4.7070  -57.4070   29.2150 O.2   642  THR642     -0.2863
    134  CB        -6.5330  -55.8530   26.9910 C.3   642  THR642      0.1794
    135  OG1       -5.8460  -56.9660   26.4280 O.3   642  THR642     -0.2208
    136  CG2       -6.5980  -54.7170   25.9610 C.3   642  THR642      0.0378
    137  N         -5.3290  -59.7750   27.1690 N.3   645  ASN645     -0.1240
    138  CA        -3.9510  -60.0560   26.7580 C.3   645  ASN645      0.1653
    139  C         -3.1620  -60.6870   27.8790 C.2   645  ASN645      0.2266
    140  O         -2.4890  -61.6700   27.6450 O.2   645  ASN645     -0.2867
    141  CB        -3.2380  -58.8270   26.2370 C.3   645  ASN645      0.1155
    142  CG        -3.5270  -58.4970   24.7870 C.2   645  ASN645      0.2627
    143  OD1       -4.0730  -59.3030   24.0150 O.2   645  ASN645     -0.2716
    144  ND2       -3.1380  -57.3030   24.3780 N.am  645  ASN645     -0.0877
    145  N        -11.7010  -57.9790   27.4430 N.3   706  ASP706     -0.1239
    146  CA       -11.2700  -57.2220   26.2700 C.3   706  ASP706      0.1674
    147  C        -11.5300  -55.7180   26.4170 C.2   706  ASP706      0.2266
    148  O        -10.9770  -54.9380   25.6380 O.2   706  ASP706     -0.2867
    149  CB       -11.9940  -57.7350   25.0090 C.3   706  ASP706      0.1410
    150  CG       -11.2860  -58.8350   24.2400 C.2   706  ASP706      0.3668
    151  OD1      -10.0380  -58.8390   24.2190 O.co2 706  ASP706     -0.2456
    152  OD2      -11.9820  -59.6360   23.5830 O.co2 706  ASP706     -0.2456
    153  N         -8.6710  -52.7620   31.2320 N.3   709  MET709     -0.1245
    154  CA        -7.2290  -52.6400   31.1090 C.3   709  MET709      0.1570
    155  C         -6.5740  -52.4480   32.4630 C.2   709  MET709      0.2261
    156  O         -7.2410  -52.1300   33.4450 O.2   709  MET709     -0.2867
    157  CB        -6.8290  -51.4930   30.1420 C.3   709  MET709      0.0387
    158  CG        -7.3820  -51.6550   28.7070 C.3   709  MET709      0.0595
    159  SD        -6.6760  -50.4640   27.5430 S.3   709  MET709     -0.1393
    160  CE        -4.9430  -51.1390   27.3610 C.3   709  MET709      0.0692
    161  N         -8.7080  -49.8940   34.7800 N.3   717  PHE717     -0.1241
    162  CA        -9.6380  -48.9280   34.1590 C.3   717  PHE717      0.1605
    163  C        -10.4360  -49.5800   33.0310 C.2   717  PHE717      0.2264
    164  O        -10.0440  -50.6300   32.5090 O.2   717  PHE717     -0.2867
    165  CB        -8.9340  -47.6170   33.7240 C.3   717  PHE717      0.0534
    166  CG        -7.9420  -47.7400   32.5910 C.ar  717  PHE717     -0.0203
    167  CD1       -6.6390  -48.1570   32.8300 C.ar  717  PHE717     -0.0042
    168  CD2       -8.3190  -47.4620   31.2810 C.ar  717  PHE717     -0.0042
    169  CE1       -5.7250  -48.2950   31.7690 C.ar  717  PHE717     -0.0003
    170  CE2       -7.4070  -47.5890   30.2270 C.ar  717  PHE717     -0.0003
    171  CZ        -6.1230  -48.0140   30.4760 C.ar  717  PHE717     -0.0000
    172  N        -12.6510  -49.4480   29.2400 N.3   719  ILE719     -0.1231
    173  CA       -12.6600  -48.9050   27.8880 C.3   719  ILE719      0.1692
    174  C        -13.9260  -49.3510   27.1470 C.2   719  ILE719      0.2592
    175  O        -14.6600  -50.2240   27.6210 O.2   719  ILE719     -0.2718
    176  CB       -11.3210  -49.2540   27.1160 C.3   719  ILE719      0.0266
    177  CG1      -11.1610  -50.7880   26.9500 C.3   719  ILE719      0.0019
    178  CG2      -10.0670  -48.6280   27.7980 C.3   719  ILE719      0.0020
    179  CD1      -10.2420  -51.2220   25.8290 C.3   719  ILE719      0.0001
    180  N        -14.1520  -48.7710   25.9520 N.am  720  ASP720     -0.1974
    181  CA       -15.2450  -49.0860   25.0360 C.3   720  ASP720      0.1709
    182  C        -16.6050  -49.1520   25.7320 C.2   720  ASP720      0.2293
    183  O        -17.2370  -50.2100   25.7940 O.2   720  ASP720     -0.2864
    184  CB       -14.9290  -50.3590   24.2210 C.3   720  ASP720      0.1436
    185  CG       -13.5540  -50.3470   23.5640 C.2   720  ASP720      0.3671
    186  OD1      -13.0740  -49.2470   23.2030 O.co2 720  ASP720     -0.2456
    187  OD2      -12.9550  -51.4320   23.4240 O.co2 720  ASP720     -0.2456
@<TRIPOS>BOND
     1     1     2    1
     2     4     3    2
     3     3     2    1
     4     2     5    1
     5    27    25   ar
     6    27    26   ar
     7    25    23   ar
     8    26    24   ar
     9     5     6    1
    10    23    22   ar
    11    24    22   ar
    12    49    48    1
    13     6     7    1
    14    50    48    1
    15    22    21    1
    16    48    47    1
    17    21    18    1
    18     7     8    1
    19    47    44    1
    20     8     9    1
    21    31    30    2
    22    18    17    1
    23    18    19    1
    24    17    12   am
    25    12    11    1
    26    12    13    2
    27    11    10    1
    28    11    14    1
    29    15    14    1
    30    36    37    1
    31    36    42    1
    32    30    29    1
    33    19    20    2
    34    19    28   am
    35    44    43    1
    36    44    45    1
    37    43    38   am
    38    38    37    1
    39    38    39    2
    40    37    40    1
    41    14    16    1
    42    28    29    1
    43    42    41    1
    44    29    32    1
    45    45    51   am
    46    45    46    2
    47    51    52    1
    48    54    53    2
    49    40    41    1
    50    32    33    1
    51    53    52    1
    52    33    34    1
    53    52    55    1
    54    55    56    1
    55    67    68    2
    56    67    66    1
    57    34    35    1
    58    56    57   ar
    59    56    58   ar
    60    57    59   ar
    61    66    65    1
    62    66    69    1
    63    71    69    1
    64    69    70    1
    65    58    61   ar
    66    58    60   ar
    67    59    60   ar
    68    70    72    1
    69    61    63   ar
    70    60    62   ar
    71    85    86    1
    72    92    90    1
    73    63    64   ar
    74    90    89    1
    75    88    87    2
    76    62    64   ar
    77   108   106    1
    78    89    86    1
    79    89    91    1
    80    86    87    1
    81   186   185   ar
    82    87    93   am
    83   187   185   ar
    84   185   184    1
    85   152   150   ar
    86   143   142    2
    87   106   107    1
    88   106   103    1
    89   151   150   ar
    90   184   181    1
    91   150   149    1
    92   144   142   am
    93    93    94    1
    94   142   141    1
    95   102   103    1
    96   102    95   am
    97   149   146    1
    98    94    95    1
    99    94    97    1
   100   181   182    1
   101   181   180    1
   102   103   104    1
   103    95    96    2
   104   148   147    2
   105   182   183    2
   106   179   177    1
   107   180   174   am
   108   136   134    1
   109   141   138    1
   110   146   147    1
   111   146   145    1
   112    97    98    1
   113   135   134    1
   114   104   105    2
   115   104   109   am
   116   128   127   ar
   117   138   137    1
   118   138   139    1
   119   177   176    1
   120    98    99    1
   121   134   131    1
   122   176   178    1
   123   176   173    1
   124   174   175    2
   125   174   173    1
   126   109   110    1
   127   160   159    1
   128   159   158    1
   129   129   127   ar
   130   140   139    2
   131   127   126    1
   132    81    79   ar
   133    81    83   ar
   134   112   111    2
   135   173   172    1
   136    79    78   ar
   137   119   118    2
   138   130   131    1
   139   130   124   am
   140   111   110    1
   141    84    83    1
   142   131   132    1
   143    99   100   ar
   144    99   101   ar
   145   110   113    1
   146    83    82   ar
   147   123   126    1
   148   123   124    1
   149   123   122    1
   150   158   157    1
   151   121   120    1
   152   124   125    2
   153   118   122   am
   154   118   117    1
   155    78    77    1
   156    78    80   ar
   157   133   132    2
   158    75    76    2
   159    75    74    1
   160   113   115    1
   161   113   114    1
   162    77    74    1
   163   116   117    1
   164    82    80   ar
   165   117   120    1
   166   157   154    1
   167   170   171   ar
   168   170   168   ar
   169    74    73    1
   170   171   169   ar
   171   154   153    1
   172   154   155    1
   173   168   166   ar
   174   169   167   ar
   175   155   156    2
   176   164   163    2
   177   166   167   ar
   178   166   165    1
   179   163   162    1
   180   165   162    1
   181   162   161    1
