@<TRIPOS>MOLECULE
tmp/5nczA00.pdb
 179 172 0 0 0
SMALL
GASTEIGER

@<TRIPOS>ATOM
      1  N         -1.5310  -57.2910    8.2890 N.3   517  LYS517     -0.1245
      2  CA        -1.3310  -56.1680    9.1970 C.3   517  LYS517      0.1561
      3  C          0.0990  -55.5800    9.0500 C.2   517  LYS517      0.2260
      4  O          0.1850  -54.3600    8.9420 O.2   517  LYS517     -0.2867
      5  CB        -1.6690  -56.5310   10.6600 C.3   517  LYS517      0.0271
      6  CG        -1.7040  -55.3160   11.5850 C.3   517  LYS517      0.0035
      7  CD        -1.6460  -55.6760   13.0530 C.3   517  LYS517      0.0206
      8  CE        -1.5040  -54.4370   13.9100 C.3   517  LYS517      0.1093
      9  NZ        -1.6810  -54.7340   15.3590 N.3   517  LYS517     -0.1314
     10  N          0.3620  -47.3230   14.7560 N.3   559  THR559     -0.1203
     11  CA        -0.2220  -48.5620   14.2460 C.3   559  THR559      0.1994
     12  C         -1.7380  -48.4190   14.1900 C.2   559  THR559      0.2618
     13  O         -2.2550  -47.3050   14.2570 O.2   559  THR559     -0.2717
     14  CB         0.3190  -49.8090   15.0330 C.3   559  THR559      0.1784
     15  OG1       -0.0920  -50.9920   14.3590 O.3   559  THR559     -0.2211
     16  CG2       -0.1020  -49.8400   16.5130 C.3   559  THR559      0.0376
     17  N         -2.4350  -49.5240   14.0360 N.am  560  PHE560     -0.1961
     18  CA        -3.8850  -49.5850   14.0040 C.3   560  PHE560      0.1771
     19  C         -4.3070  -50.9110   14.6390 C.2   560  PHE560      0.2619
     20  O         -3.4820  -51.8210   14.7540 O.2   560  PHE560     -0.2715
     21  CB        -4.4320  -49.4550   12.5700 C.3   560  PHE560      0.0574
     22  CG        -4.2250  -50.6550   11.6650 C.ar  560  PHE560     -0.0200
     23  CD1       -2.9950  -50.8800   11.0460 C.ar  560  PHE560     -0.0042
     24  CD2       -5.2660  -51.5440   11.4110 C.ar  560  PHE560     -0.0042
     25  CE1       -2.8050  -51.9800   10.2130 C.ar  560  PHE560     -0.0003
     26  CE2       -5.0780  -52.6420   10.5650 C.ar  560  PHE560     -0.0003
     27  CZ        -3.8480  -52.8520    9.9690 C.ar  560  PHE560     -0.0000
     28  N         -5.5530  -50.9900   15.0990 N.am  561  MET561     -0.1977
     29  CA        -6.1110  -52.2200   15.6620 C.3   561  MET561      0.1605
     30  C         -6.7940  -52.9020   14.4840 C.2   561  MET561      0.2287
     31  O         -7.7030  -52.3230   13.9010 O.2   561  MET561     -0.2864
     32  CB        -7.1180  -51.9110   16.7750 C.3   561  MET561      0.0413
     33  CG        -7.8430  -53.1450   17.2740 C.3   561  MET561      0.0598
     34  SD        -8.8650  -52.8160   18.7150 S.3   561  MET561     -0.1393
     35  CE        -7.6120  -52.8260   19.9700 C.3   561  MET561      0.0692
     36  N         -9.3480  -48.5660   14.3930 N.3   567  PRO567     -0.2116
     37  CA        -8.8570  -47.3150   14.9910 C.3   567  PRO567      0.1372
     38  C         -7.3300  -47.1950   14.9300 C.2   567  PRO567      0.2244
     39  O         -6.6290  -48.1910   15.0340 O.2   567  PRO567     -0.2868
     40  CB        -9.3760  -47.3840   16.4320 C.3   567  PRO567      0.0268
     41  CG        -9.4650  -48.8710   16.7140 C.3   567  PRO567      0.0207
     42  CD        -9.9640  -49.4390   15.4150 C.3   567  PRO567      0.0892
     43  N         -3.5860  -45.7920   16.2610 N.3   569  TRP569     -0.1241
     44  CA        -2.7930  -45.5570   17.4690 C.3   569  TRP569      0.1605
     45  C         -1.6730  -44.5840   17.0460 C.2   569  TRP569      0.2264
     46  O         -0.7990  -44.9730   16.2670 O.2   569  TRP569     -0.2867
     47  CB        -2.1890  -46.8980   17.9160 C.3   569  TRP569      0.0550
     48  CG        -1.3640  -46.8520   19.1670 C.ar  569  TRP569      0.0003
     49  CD1       -0.0220  -46.6160   19.2550 C.ar  569  TRP569      0.0946
     50  CD2       -1.8020  -47.1880   20.4950 C.ar  569  TRP569      0.0152
     51  NE1        0.4070  -46.8010   20.5510 N.ar  569  TRP569     -0.2442
     52  CE2       -0.6700  -47.1370   21.3360 C.ar  569  TRP569      0.0810
     53  CE3       -3.0430  -47.5630   21.0500 C.ar  569  TRP569      0.0012
     54  CZ2       -0.7400  -47.4430   22.7090 C.ar  569  TRP569      0.0191
     55  CZ3       -3.1170  -47.8400   22.4060 C.ar  569  TRP569      0.0001
     56  CH2       -1.9740  -47.7980   23.2170 C.ar  569  TRP569      0.0015
     57  N         -5.6840  -41.9910   20.2350 N.3   586  ILE586     -0.1245
     58  CA        -6.3670  -42.9900   19.4170 C.3   586  ILE586      0.1561
     59  C         -7.3390  -42.2150   18.5820 C.2   586  ILE586      0.2260
     60  O         -8.0970  -41.4220   19.1330 O.2   586  ILE586     -0.2867
     61  CB        -7.0760  -44.0930   20.2610 C.3   586  ILE586      0.0252
     62  CG1       -6.0420  -45.0170   20.9290 C.3   586  ILE586      0.0019
     63  CG2       -8.0930  -44.8810   19.4140 C.3   586  ILE586      0.0019
     64  CD1       -6.5610  -45.7460   22.2260 C.3   586  ILE586      0.0001
     65  N         -8.9600  -40.9510   31.6810 N.3   622  TYR622     -0.1241
     66  CA        -8.4060  -40.6660   30.3460 C.3   622  TYR622      0.1605
     67  C         -9.4540  -39.9670   29.4740 C.2   622  TYR622      0.2264
     68  O        -10.6570  -40.2420   29.5810 O.2   622  TYR622     -0.2867
     69  CB        -7.8600  -41.9460   29.6620 C.3   622  TYR622      0.0534
     70  CG        -8.9280  -42.9660   29.3220 C.ar  622  TYR622     -0.0201
     71  CD1       -9.5780  -42.9430   28.0870 C.ar  622  TYR622     -0.0009
     72  CD2       -9.2800  -43.9680   30.2260 C.ar  622  TYR622     -0.0009
     73  CE1      -10.5910  -43.8510   27.7870 C.ar  622  TYR622      0.0417
     74  CE2      -10.2690  -44.9010   29.9200 C.ar  622  TYR622      0.0417
     75  CZ       -10.9110  -44.8470   28.6950 C.ar  622  TYR622      0.1957
     76  OH       -11.9240  -45.7260   28.4150 O.3   622  TYR622     -0.2866
     77  N         -9.3670  -40.6050   21.6190 N.3   634  ILE634     -0.1231
     78  CA        -9.2660  -41.2450   22.9330 C.3   634  ILE634      0.1692
     79  C         -7.8210  -41.0590   23.3540 C.2   634  ILE634      0.2592
     80  O         -6.9210  -41.2610   22.5370 O.2   634  ILE634     -0.2718
     81  CB        -9.6830  -42.7570   22.9420 C.3   634  ILE634      0.0266
     82  CG1      -11.1760  -42.9350   22.5380 C.3   634  ILE634      0.0019
     83  CG2       -9.4590  -43.3810   24.3380 C.3   634  ILE634      0.0020
     84  CD1      -11.5790  -44.4070   22.2580 C.3   634  ILE634      0.0001
     85  N         -7.5960  -40.6360   24.5990 N.am  635  GLU635     -0.1966
     86  CA        -6.2460  -40.4840   25.1350 C.3   635  GLU635      0.1733
     87  C         -5.6550  -41.8580   25.4690 C.2   635  GLU635      0.2616
     88  O         -6.2680  -42.6370   26.2140 O.2   635  GLU635     -0.2715
     89  CB        -6.2850  -39.6260   26.3900 C.3   635  GLU635      0.0429
     90  CG        -4.9470  -39.4470   27.0810 C.3   635  GLU635      0.1163
     91  CD        -5.0540  -38.7790   28.4430 C.2   635  GLU635      0.3649
     92  OE1       -6.1900  -38.6110   28.9400 O.co2 635  GLU635     -0.2457
     93  OE2       -4.0060  -38.3630   28.9830 O.co2 635  GLU635     -0.2457
     94  N         -4.4660  -42.1340   24.9360 N.am  636  VAL636     -0.1963
     95  CA        -3.7530  -43.3930   25.1930 C.3   636  VAL636      0.1727
     96  C         -3.2670  -43.4250   26.6430 C.2   636  VAL636      0.2616
     97  O         -2.6400  -42.4690   27.0980 O.2   636  VAL636     -0.2715
     98  CB        -2.5600  -43.5900   24.2150 C.3   636  VAL636      0.0290
     99  CG1       -1.6090  -44.6960   24.6930 C.3   636  VAL636      0.0023
    100  CG2       -3.0470  -43.8790   22.8000 C.3   636  VAL636      0.0023
    101  N         -3.5560  -44.5270   27.3450 N.am  637  VAL637     -0.1977
    102  CA        -3.0290  -44.7860   28.6850 C.3   637  VAL637      0.1596
    103  C         -1.8590  -45.7280   28.4120 C.2   637  VAL637      0.2287
    104  O         -2.0490  -46.8890   28.0190 O.2   637  VAL637     -0.2864
    105  CB        -4.0520  -45.3990   29.6670 C.3   637  VAL637      0.0276
    106  CG1       -3.3930  -45.7300   31.0200 C.3   637  VAL637      0.0022
    107  CG2       -5.2550  -44.4720   29.8670 C.3   637  VAL637      0.0022
    108  N          0.0220  -50.0190   29.9270 N.3   640  SER640     -0.1202
    109  CA        -1.1830  -50.7450   30.2660 C.3   640  SER640      0.2020
    110  C         -1.4270  -51.8780   29.2860 C.2   640  SER640      0.2619
    111  O         -0.9420  -51.8270   28.1560 O.2   640  SER640     -0.2717
    112  CB        -2.3950  -49.8100   30.3500 C.3   640  SER640      0.2103
    113  OG        -2.7530  -49.2420   29.1020 O.3   640  SER640     -0.2182
    114  N         -2.1640  -52.9010   29.7220 N.am  641  ASP641     -0.1959
    115  CA        -2.5090  -54.0340   28.8570 C.3   641  ASP641      0.1840
    116  C         -3.9210  -54.4310   29.1490 C.2   641  ASP641      0.2622
    117  O         -4.4470  -54.0880   30.2050 O.2   641  ASP641     -0.2715
    118  CB        -1.5450  -55.2280   29.0930 C.3   641  ASP641      0.1450
    119  CG        -1.3530  -56.1610   27.8980 C.2   641  ASP641      0.3671
    120  OD1       -2.2090  -56.1660   27.0020 O.co2 641  ASP641     -0.2456
    121  OD2       -0.3300  -56.8690   27.8570 O.co2 641  ASP641     -0.2456
    122  N         -4.5520  -55.1650   28.2410 N.am  642  THR642     -0.1951
    123  CA        -5.8940  -55.6630   28.4970 C.3   642  THR642      0.1897
    124  C         -5.7910  -56.8980   29.4080 C.2   642  THR642      0.2313
    125  O         -4.8110  -57.6560   29.3210 O.2   642  THR642     -0.2863
    126  CB        -6.6300  -56.0310   27.1960 C.3   642  THR642      0.1794
    127  OG1       -6.0030  -57.1740   26.5940 O.3   642  THR642     -0.2208
    128  CG2       -6.6970  -54.8770   26.2040 C.3   642  THR642      0.0378
    129  N         -5.4990  -60.0510   27.2790 N.3   645  ASN645     -0.1240
    130  CA        -4.1380  -60.3470   26.8260 C.3   645  ASN645      0.1653
    131  C         -3.3180  -61.0370   27.9210 C.2   645  ASN645      0.2266
    132  O         -2.6800  -62.0520   27.6480 O.2   645  ASN645     -0.2867
    133  CB        -3.4050  -59.1030   26.2960 C.3   645  ASN645      0.1155
    134  CG        -2.1260  -59.4070   25.5370 C.2   645  ASN645      0.2627
    135  OD1       -2.0650  -60.2920   24.6830 O.2   645  ASN645     -0.2716
    136  ND2       -1.0790  -58.6540   25.7990 N.am  645  ASN645     -0.0877
    137  N        -11.7660  -58.2660   27.5780 N.3   706  ASP706     -0.1239
    138  CA       -11.2600  -57.4840   26.4480 C.3   706  ASP706      0.1674
    139  C        -11.5290  -55.9760   26.6110 C.2   706  ASP706      0.2266
    140  O        -10.9130  -55.1810   25.8870 O.2   706  ASP706     -0.2867
    141  CB       -11.9040  -57.9470   25.1240 C.3   706  ASP706      0.1410
    142  CG       -11.2220  -59.1000   24.4290 C.2   706  ASP706      0.3668
    143  OD1       -9.9750  -59.0580   24.2880 O.co2 706  ASP706     -0.2456
    144  OD2      -11.9380  -59.9790   23.9140 O.co2 706  ASP706     -0.2456
    145  N         -8.7930  -52.9750   31.3660 N.3   709  MET709     -0.1245
    146  CA        -7.3590  -52.8320   31.2780 C.3   709  MET709      0.1570
    147  C         -6.7330  -52.6500   32.6320 C.2   709  MET709      0.2261
    148  O         -7.4180  -52.3420   33.6140 O.2   709  MET709     -0.2867
    149  CB        -6.9470  -51.7020   30.3140 C.3   709  MET709      0.0387
    150  CG        -7.3840  -51.9330   28.8610 C.3   709  MET709      0.0595
    151  SD        -6.7530  -50.7060   27.6980 S.3   709  MET709     -0.1393
    152  CE        -4.9880  -51.2320   27.5650 C.3   709  MET709      0.0692
    153  N         -8.8410  -50.1240   34.9070 N.3   717  PHE717     -0.1241
    154  CA        -9.7750  -49.1570   34.3090 C.3   717  PHE717      0.1605
    155  C        -10.5950  -49.8010   33.1830 C.2   717  PHE717      0.2264
    156  O        -10.2630  -50.8990   32.7240 O.2   717  PHE717     -0.2867
    157  CB        -9.0790  -47.8430   33.8800 C.3   717  PHE717      0.0534
    158  CG        -8.0940  -47.9640   32.7390 C.ar  717  PHE717     -0.0203
    159  CD1       -6.7770  -48.3570   32.9710 C.ar  717  PHE717     -0.0042
    160  CD2       -8.4750  -47.6650   31.4360 C.ar  717  PHE717     -0.0042
    161  CE1       -5.8630  -48.4610   31.9110 C.ar  717  PHE717     -0.0003
    162  CE2       -7.5640  -47.7820   30.3780 C.ar  717  PHE717     -0.0003
    163  CZ        -6.2670  -48.1730   30.6230 C.ar  717  PHE717     -0.0000
    164  N        -12.7120  -49.6930   29.3560 N.3   719  ILE719     -0.1231
    165  CA       -12.6810  -49.1430   28.0080 C.3   719  ILE719      0.1692
    166  C        -13.9300  -49.5700   27.2550 C.2   719  ILE719      0.2592
    167  O        -14.6670  -50.4330   27.7260 O.2   719  ILE719     -0.2718
    168  CB       -11.3620  -49.5080   27.2510 C.3   719  ILE719      0.0266
    169  CG1      -11.2110  -51.0360   27.0690 C.3   719  ILE719      0.0019
    170  CG2      -10.0960  -48.8920   27.9110 C.3   719  ILE719      0.0020
    171  CD1      -10.2640  -51.4130   25.9570 C.3   719  ILE719      0.0001
    172  N        -14.1330  -48.9970   26.0590 N.am  720  ASP720     -0.1974
    173  CA       -15.2080  -49.3320   25.1220 C.3   720  ASP720      0.1709
    174  C        -16.5900  -49.4070   25.7780 C.2   720  ASP720      0.2293
    175  O        -17.2230  -50.4690   25.7940 O.2   720  ASP720     -0.2864
    176  CB       -14.8650  -50.6260   24.3500 C.3   720  ASP720      0.1436
    177  CG       -13.5000  -50.6280   23.6940 C.2   720  ASP720      0.3671
    178  OD1      -12.9900  -49.5240   23.3670 O.co2 720  ASP720     -0.2456
    179  OD2      -12.9260  -51.7210   23.5320 O.co2 720  ASP720     -0.2456
@<TRIPOS>BOND
     1     1     2    1
     2     4     3    2
     3     3     2    1
     4     2     5    1
     5    27    25   ar
     6    27    26   ar
     7    25    23   ar
     8    26    24   ar
     9     5     6    1
    10    23    22   ar
    11    24    22   ar
    12     6     7    1
    13    22    21    1
    14    21    18    1
    15     7     8    1
    16    31    30    2
    17     8     9    1
    18    18    17    1
    19    18    19    1
    20    17    12   am
    21    12    11    1
    22    12    13    2
    23    11    10    1
    24    11    14    1
    25    15    14    1
    26    36    37    1
    27    36    42    1
    28    30    29    1
    29    19    20    2
    30    19    28   am
    31    38    37    1
    32    38    39    2
    33    37    40    1
    34    14    16    1
    35    28    29    1
    36    42    41    1
    37    29    32    1
    38    43    44    1
    39    46    45    2
    40    40    41    1
    41    32    33    1
    42    45    44    1
    43    33    34    1
    44    44    47    1
    45    47    48    1
    46    59    60    2
    47    59    58    1
    48    34    35    1
    49    48    49   ar
    50    48    50   ar
    51    49    51   ar
    52    63    61    1
    53    58    57    1
    54    58    61    1
    55    61    62    1
    56    50    53   ar
    57    50    52   ar
    58    51    52   ar
    59    62    64    1
    60    53    55   ar
    61    52    54   ar
    62    77    78    1
    63    84    82    1
    64    55    56   ar
    65    80    79    2
    66    82    81    1
    67    54    56   ar
    68   100    98    1
    69    78    81    1
    70    78    79    1
    71    81    83    1
    72    79    85   am
    73   178   177   ar
    74   179   177   ar
    75   177   176    1
    76   144   142   ar
    77    98    99    1
    78    98    95    1
    79   143   142   ar
    80   176   173    1
    81   142   141    1
    82    85    86    1
    83   135   134    2
    84    94    95    1
    85    94    87   am
    86   173   174    1
    87   173   172    1
    88   141   138    1
    89    86    87    1
    90    86    89    1
    91    95    96    1
    92    87    88    2
    93   134   136   am
    94   134   133    1
    95   174   175    2
    96   140   139    2
    97   171   169    1
    98   172   166   am
    99   128   126    1
   100   133   130    1
   101    89    90    1
   102   138   139    1
   103   138   137    1
   104   127   126    1
   105    96    97    2
   106    96   101   am
   107   130   129    1
   108   130   131    1
   109   120   119   ar
   110   169   168    1
   111    90    91    1
   112   126   123    1
   113   168   170    1
   114   168   165    1
   115   166   167    2
   116   166   165    1
   117   101   102    1
   118   152   151    1
   119   132   131    2
   120   151   150    1
   121    73    71   ar
   122    73    75   ar
   123   121   119   ar
   124   119   118    1
   125   165   164    1
   126   104   103    2
   127    71    70   ar
   128   111   110    2
   129   122   123    1
   130   122   116   am
   131   103   102    1
   132    76    75    1
   133    91    92   ar
   134    91    93   ar
   135   123   124    1
   136   102   105    1
   137    75    74   ar
   138   115   118    1
   139   115   116    1
   140   115   114    1
   141   150   149    1
   142   113   112    1
   143   116   117    2
   144   110   114   am
   145   110   109    1
   146   125   124    2
   147    70    69    1
   148    70    72   ar
   149    67    68    2
   150    67    66    1
   151    69    66    1
   152   105   107    1
   153   105   106    1
   154    74    72   ar
   155   108   109    1
   156   109   112    1
   157   149   146    1
   158    66    65    1
   159   162   163   ar
   160   162   160   ar
   161   163   161   ar
   162   146   145    1
   163   146   147    1
   164   160   158   ar
   165   161   159   ar
   166   147   148    2
   167   156   155    2
   168   158   159   ar
   169   158   157    1
   170   155   154    1
   171   157   154    1
   172   154   153    1
