@<TRIPOS>MOLECULE
tmp/5nd0A00.pdb
 160 154 0 0 0
SMALL
GASTEIGER

@<TRIPOS>ATOM
      1  N         24.1990   28.3410    7.7380 N.3    10  ALA10      -0.1245
      2  CA        24.5570   27.0230    7.2340 C.3    10  ALA10       0.1562
      3  C         23.8920   25.9900    8.1350 C.2    10  ALA10       0.2260
      4  O         24.1690   25.9390    9.3390 O.2    10  ALA10      -0.2867
      5  CB        26.0740   26.8420    7.2290 C.3    10  ALA10       0.0290
      6  N         23.2170   22.4430    9.6320 N.3    12  MET12      -0.1245
      7  CA        24.0020   21.2530    9.9100 C.3    12  MET12       0.1570
      8  C         23.1430   20.2320   10.6440 C.2    12  MET12       0.2261
      9  O         22.1600   20.5720   11.3110 O.2    12  MET12      -0.2867
     10  CB        25.2210   21.5890   10.7840 C.3    12  MET12       0.0387
     11  CG        26.0200   22.8070   10.3330 C.3    12  MET12       0.0595
     12  SD        26.8290   22.5890    8.7340 S.3    12  MET12      -0.1393
     13  CE        28.0430   21.3300    9.1190 C.3    12  MET12       0.0692
     14  N         23.8810   16.5440   13.0760 N.3    14  TYR14      -0.1241
     15  CA        24.9430   15.8310   13.7660 C.3    14  TYR14       0.1605
     16  C         24.9070   14.3520   13.4080 C.2    14  TYR14       0.2264
     17  O         23.8740   13.6930   13.5540 O.2    14  TYR14      -0.2867
     18  CB        24.8450   16.0130   15.2790 C.3    14  TYR14       0.0534
     19  CG        26.1280   15.6610   15.9900 C.ar   14  TYR14      -0.0201
     20  CD1       27.2530   16.4700   15.8720 C.ar   14  TYR14      -0.0009
     21  CD2       26.2220   14.5230   16.7750 C.ar   14  TYR14      -0.0009
     22  CE1       28.4330   16.1510   16.5130 C.ar   14  TYR14       0.0417
     23  CE2       27.3950   14.2010   17.4290 C.ar   14  TYR14       0.0417
     24  CZ        28.4970   15.0170   17.2940 C.ar   14  TYR14       0.1957
     25  OH        29.6630   14.6900   17.9460 O.3    14  TYR14      -0.2866
     26  N         30.5360   11.2980   15.2810 N.3    19  LYS19      -0.1231
     27  CA        30.7530   12.4610   16.1400 C.3    19  LYS19       0.1693
     28  C         31.1840   13.6710   15.3150 C.2    19  LYS19       0.2592
     29  O         32.1960   14.3210   15.5890 O.2    19  LYS19      -0.2718
     30  CB        31.7620   12.1560   17.2500 C.3    19  LYS19       0.0285
     31  CG        31.3610   11.0030   18.1630 C.3    19  LYS19       0.0035
     32  CD        30.1090   11.3210   18.9650 C.3    19  LYS19       0.0206
     33  CE        29.7430   10.1780   19.8960 C.3    19  LYS19       0.1093
     34  NZ        28.4610   10.4340   20.6070 N.3    19  LYS19      -0.1314
     35  N         30.3900   13.9710   14.2910 N.am   20  LYS20      -0.1966
     36  CA        30.7400   14.9800   13.3050 C.3    20  LYS20       0.1728
     37  C         29.4750   15.6930   12.8550 C.2    20  LYS20       0.2616
     38  O         28.4330   15.0600   12.6690 O.2    20  LYS20      -0.2715
     39  CB        31.4030   14.3130   12.0950 C.3    20  LYS20       0.0311
     40  CG        32.1750   15.2520   11.1890 C.3    20  LYS20       0.0038
     41  CD        32.6690   14.5320    9.9370 C.3    20  LYS20       0.0206
     42  CE        33.6390   13.4020   10.2700 C.3    20  LYS20       0.1093
     43  NZ        34.1490   12.7160    9.0480 N.3    20  LYS20      -0.1314
     44  N         29.5690   17.0130   12.6930 N.am   21  TRP21      -0.1974
     45  CA        28.5250   17.7600   12.0130 C.3    21  TRP21       0.1640
     46  C         28.6880   17.5850   10.5110 C.2    21  TRP21       0.2290
     47  O         29.8090   17.5740    9.9920 O.2    21  TRP21      -0.2864
     48  CB        28.6260   19.2510   12.3420 C.3    21  TRP21       0.0576
     49  CG        28.2410   19.6150   13.7450 C.ar   21  TRP21       0.0006
     50  CD1       29.0860   19.8760   14.7810 C.ar   21  TRP21       0.0946
     51  CD2       26.9110   19.7730   14.2630 C.ar   21  TRP21       0.0152
     52  NE1       28.3700   20.1850   15.9120 N.ar   21  TRP21      -0.2442
     53  CE2       27.0340   20.1300   15.6200 C.ar   21  TRP21       0.0810
     54  CE3       25.6310   19.6510   13.7120 C.ar   21  TRP21       0.0012
     55  CZ2       25.9270   20.3560   16.4370 C.ar   21  TRP21       0.0191
     56  CZ3       24.5300   19.8760   14.5350 C.ar   21  TRP21       0.0001
     57  CH2       24.6890   20.2300   15.8730 C.ar   21  TRP21       0.0015
     58  N         26.7420   18.8420    6.5810 N.3    23  PRO23      -0.2116
     59  CA        25.7820   19.7960    6.0200 C.3    23  PRO23       0.1372
     60  C         24.4330   19.1330    5.7910 C.2    23  PRO23       0.2244
     61  O         24.3500   18.0240    5.2660 O.2    23  PRO23      -0.2868
     62  CB        26.4370   20.2160    4.6980 C.3    23  PRO23       0.0268
     63  CG        27.3360   19.0830    4.3500 C.3    23  PRO23       0.0207
     64  CD        27.8580   18.5780    5.6590 C.3    23  PRO23       0.0892
     65  N         26.9810   21.6360    1.2400 N.3    28  THR28      -0.1218
     66  CA        27.6250   22.7260    1.9620 C.3    28  THR28       0.1862
     67  C         27.1890   24.0740    1.4010 C.2    28  THR28       0.2287
     68  O         26.9930   24.2360    0.1930 O.2    28  THR28      -0.2866
     69  CB        29.1470   22.5780    1.8660 C.3    28  THR28       0.1770
     70  OG1       29.5680   21.4600    2.6540 O.3    28  THR28      -0.2211
     71  CG2       29.8680   23.8320    2.3600 C.3    28  THR28       0.0375
     72  N         14.0140   22.5460   23.9060 N.3    67  LYS67      -0.1245
     73  CA        15.1640   23.2100   24.5050 C.3    67  LYS67       0.1561
     74  C         16.0450   23.7230   23.3710 C.2    67  LYS67       0.2260
     75  O         16.7050   22.9380   22.6820 O.2    67  LYS67      -0.2867
     76  CB        15.9320   22.2470   25.4070 C.3    67  LYS67       0.0271
     77  CG        17.0650   22.9020   26.1880 C.3    67  LYS67       0.0035
     78  CD        17.8130   21.8990   27.0630 C.3    67  LYS67       0.0206
     79  CE        16.9570   21.3810   28.2070 C.3    67  LYS67       0.1093
     80  NZ        17.6740   20.3560   29.0150 N.3    67  LYS67      -0.1314
     81  N         19.2110   25.5970   22.3640 N.3    69  ASN69      -0.1240
     82  CA        20.4990   25.8740   22.9870 C.3    69  ASN69       0.1653
     83  C         21.2690   26.8840   22.1460 C.2    69  ASN69       0.2266
     84  O         21.6320   26.5960   21.0010 O.2    69  ASN69      -0.2867
     85  CB        21.3090   24.5890   23.1290 C.3    69  ASN69       0.1155
     86  CG        22.5770   24.7920   23.9330 C.2    69  ASN69       0.2627
     87  OD1       22.5450   25.3490   25.0300 O.2    69  ASN69      -0.2716
     88  ND2       23.7030   24.3560   23.3810 N.am   69  ASN69      -0.0877
     89  N         24.3980   27.8750   21.8240 N.3    71  ALA71      -0.1231
     90  CA        25.7500   27.4640   22.1890 C.3    71  ALA71       0.1694
     91  C         26.7150   28.6390   22.1270 C.2    71  ALA71       0.2592
     92  O         27.5130   28.8540   23.0470 O.2    71  ALA71      -0.2718
     93  CB        26.2120   26.3410   21.2610 C.3    71  ALA71       0.0304
     94  N         26.6720   29.3950   21.0350 N.am   72  THR72      -0.1953
     95  CA        27.4590   30.6050   20.8860 C.3    72  THR72       0.1897
     96  C         26.5550   31.6760   20.2940 C.2    72  THR72       0.2313
     97  O         25.3930   31.4250   19.9580 O.2    72  THR72      -0.2863
     98  CB        28.6770   30.3700   19.9840 C.3    72  THR72       0.1794
     99  OG1       28.2450   30.2460   18.6240 O.3    72  THR72      -0.2208
    100  CG2       29.4270   29.1080   20.3930 C.3    72  THR72       0.0378
    101  N         26.0730   30.1730   16.6960 N.3    75  PHE75      -0.1241
    102  CA        25.7120   28.7760   16.4660 C.3    75  PHE75       0.1605
    103  C         24.6790   28.3620   17.5000 C.2    75  PHE75       0.2264
    104  O         24.9750   28.3340   18.6990 O.2    75  PHE75      -0.2867
    105  CB        26.9240   27.8440   16.5270 C.3    75  PHE75       0.0534
    106  CG        26.5960   26.4150   16.1820 C.ar   75  PHE75      -0.0203
    107  CD1       26.3700   26.0440   14.8670 C.ar   75  PHE75      -0.0042
    108  CD2       26.5060   25.4460   17.1700 C.ar   75  PHE75      -0.0042
    109  CE1       26.0650   24.7390   14.5410 C.ar   75  PHE75      -0.0003
    110  CE2       26.2010   24.1340   16.8470 C.ar   75  PHE75      -0.0003
    111  CZ        25.9800   23.7810   15.5320 C.ar   75  PHE75      -0.0000
    112  N         21.4330   25.3850   18.3600 N.3    77  GLN77      -0.1231
    113  CA        21.1810   23.9790   18.0950 C.3    77  GLN77       0.1698
    114  C         19.9780   23.5140   18.8980 C.2    77  GLN77       0.2592
    115  O         19.6270   24.0920   19.9310 O.2    77  GLN77      -0.2718
    116  CB        22.4060   23.1290   18.4560 C.3    77  GLN77       0.0381
    117  CG        22.7910   23.2270   19.9250 C.3    77  GLN77       0.0905
    118  CD        24.1690   22.6650   20.2330 C.2    77  GLN77       0.2608
    119  OE1       24.8080   23.0740   21.2050 O.2    77  GLN77      -0.2717
    120  NE2       24.6230   21.7090   19.4280 N.am   77  GLN77      -0.0878
    121  N         19.3580   22.4460   18.4120 N.am   78  TRP78      -0.1962
    122  CA        18.2780   21.7870   19.1310 C.3    78  TRP78       0.1771
    123  C         18.2100   20.3510   18.6420 C.2    78  TRP78       0.2619
    124  O         18.8940   19.9610   17.6930 O.2    78  TRP78      -0.2715
    125  CB        16.9450   22.5140   18.9400 C.3    78  TRP78       0.0590
    126  CG        16.3990   22.4130   17.5550 C.ar   78  TRP78       0.0006
    127  CD1       15.5200   21.4830   17.0800 C.ar   78  TRP78       0.0946
    128  CD2       16.6940   23.2830   16.4600 C.ar   78  TRP78       0.0152
    129  NE1       15.2490   21.7210   15.7550 N.ar   78  TRP78      -0.2442
    130  CE2       15.9620   22.8180   15.3480 C.ar   78  TRP78       0.0810
    131  CE3       17.5090   24.4070   16.3100 C.ar   78  TRP78       0.0012
    132  CZ2       16.0200   23.4410   14.1060 C.ar   78  TRP78       0.0191
    133  CZ3       17.5650   25.0210   15.0760 C.ar   78  TRP78       0.0001
    134  CH2       16.8230   24.5400   13.9910 C.ar   78  TRP78       0.0015
    135  N         17.3920   19.5550   19.3170 N.am   79  ARG79      -0.1977
    136  CA        17.3110   18.1400   19.0040 C.3    79  ARG79       0.1597
    137  C         15.8610   17.6950   19.0590 C.2    79  ARG79       0.2287
    138  O         15.0190   18.3160   19.7120 O.2    79  ARG79      -0.2864
    139  CB        18.1680   17.3080   19.9680 C.3    79  ARG79       0.0334
    140  CG        18.2840   17.8940   21.3670 C.3    79  ARG79       0.0492
    141  CD        18.7470   16.8430   22.3650 C.3    79  ARG79       0.2205
    142  NE        18.4510   17.1810   23.7550 N.pl3  79  ARG79      -0.0865
    143  CZ        19.3310   17.6250   24.6500 C.cat  79  ARG79       0.5346
    144  NH1       18.9320   17.8900   25.8880 N.pl3  79  ARG79       0.1354
    145  NH2       20.5970   17.8110   24.3270 N.pl3  79  ARG79       0.1354
    146  N         19.8080   15.7840   15.5860 N.3    84  VAL84      -0.1245
    147  CA        20.2830   17.0180   16.1970 C.3    84  VAL84       0.1561
    148  C         20.5420   18.0110   15.0780 C.2    84  VAL84       0.2260
    149  O         21.2420   17.6930   14.1080 O.2    84  VAL84      -0.2867
    150  CB        21.5580   16.7860   17.0250 C.3    84  VAL84       0.0252
    151  CG1       22.0150   18.0850   17.6800 C.3    84  VAL84       0.0019
    152  CG2       21.3280   15.6950   18.0650 C.3    84  VAL84       0.0019
    153  N         24.5480   27.4700   11.8370 N.3    88  ASN88      -0.1240
    154  CA        25.7390   28.3100   11.8960 C.3    88  ASN88       0.1653
    155  C         25.3920   29.5960   11.1620 C.2    88  ASN88       0.2266
    156  O         25.4710   29.6670    9.9340 O.2    88  ASN88      -0.2867
    157  CB        26.9290   27.5950   11.2690 C.3    88  ASN88       0.1155
    158  CG        28.2500   28.1150   11.7890 C.2    88  ASN88       0.2627
    159  OD1       28.4170   28.3080   12.9960 O.2    88  ASN88      -0.2716
    160  ND2       29.1930   28.3520   10.8870 N.am   88  ASN88      -0.0877
@<TRIPOS>BOND
     1    68    67    2
     2    65    66    1
     3    67    66    1
     4    69    66    1
     5    69    71    1
     6    69    70    1
     7    63    62    1
     8    63    64    1
     9    62    59    1
    10    61    60    2
    11    64    58    1
    12    60    59    1
    13    59    58    1
    14     5     2    1
    15     2     1    1
    16     2     3    1
    17     3     4    2
    18    12    13    1
    19    12    11    1
    20    43    42    1
    21     6     7    1
    22     7     8    1
    23     7    10    1
    24   156   155    2
    25    41    42    1
    26    41    40    1
    27    47    46    2
    28    11    10    1
    29    46    45    1
    30     8     9    2
    31   160   158   am
    32   155   154    1
    33    40    39    1
    34   157   158    1
    35   157   154    1
    36   158   159    2
    37   153   154    1
    38    45    48    1
    39    45    44    1
    40    39    36    1
    41    48    49    1
    42    38    37    2
    43    44    37   am
    44    37    36    1
    45    14    15    1
    46    36    35    1
    47    16    17    2
    48    16    15    1
    49    54    51   ar
    50    54    56   ar
    51    49    51   ar
    52    49    50   ar
    53    15    18    1
    54   134   132   ar
    55   134   133   ar
    56   132   130   ar
    57   149   148    2
    58    51    53   ar
    59    35    28   am
    60    56    57   ar
    61   109   107   ar
    62   109   111   ar
    63    50    52   ar
    64   107   106   ar
    65   133   131   ar
    66   148   147    1
    67    18    19    1
    68    26    27    1
    69    28    29    2
    70    28    27    1
    71   130   129   ar
    72   130   128   ar
    73   111   110   ar
    74   146   147    1
    75    53    52   ar
    76    53    55   ar
    77   129   127   ar
    78    20    19   ar
    79    20    22   ar
    80    57    55   ar
    81    19    21   ar
    82    27    30    1
    83   106   105    1
    84   106   108   ar
    85   147   150    1
    86   131   128   ar
    87   128   126   ar
    88   102   105    1
    89   102   101    1
    90   102   103    1
    91    22    24   ar
    92    21    23   ar
    93   110   108   ar
    94   150   151    1
    95   150   152    1
    96   127   126   ar
    97    30    31    1
    98    24    23   ar
    99    24    25    1
   100   103   104    2
   101   126   125    1
   102   124   123    2
   103   113   112    1
   104   113   116    1
   105   113   114    1
   106    31    32    1
   107   121   114   am
   108   121   122    1
   109   116   117    1
   110    99    98    1
   111   123   122    1
   112   123   135   am
   113   114   115    2
   114   125   122    1
   115    32    33    1
   116   136   137    1
   117   136   135    1
   118   136   139    1
   119   137   138    2
   120   120   118   am
   121    33    34    1
   122   117   118    1
   123    97    96    2
   124   139   140    1
   125    98   100    1
   126    98    95    1
   127   118   119    2
   128    96    95    1
   129    95    94    1
   130    84    83    2
   131    94    91   am
   132    93    90    1
   133   140   141    1
   134    89    90    1
   135    91    90    1
   136    91    92    2
   137    83    82    1
   138    81    82    1
   139   141   142    1
   140    75    74    2
   141    82    85    1
   142    85    86    1
   143    74    73    1
   144    88    86   am
   145   142   143    2
   146    72    73    1
   147    86    87    2
   148   145   143    1
   149    73    76    1
   150   143   144    1
   151    76    77    1
   152    77    78    1
   153    78    79    1
   154    79    80    1
