@<TRIPOS>MOLECULE
tmp/5nd2A00.pdb
 108 104 0 0 0
SMALL
GASTEIGER

@<TRIPOS>ATOM
      1  N        186.1650  195.6020  308.8410 N.3     9  ARG9       -0.1245
      2  CA       184.8750  196.1270  308.4910 C.3     9  ARG9        0.1563
      3  C        185.0170  197.1150  307.3510 C.2     9  ARG9        0.2260
      4  O        185.8480  198.0220  307.3950 O.2     9  ARG9       -0.2867
      5  CB       184.2620  196.8320  309.7030 C.3     9  ARG9        0.0307
      6  CG       182.9870  197.5980  309.4070 C.3     9  ARG9        0.0489
      7  CD       182.4240  198.2370  310.6640 C.3     9  ARG9        0.2205
      8  NE       181.3350  199.1610  310.3610 N.pl3   9  ARG9       -0.0865
      9  CZ       180.0680  198.7930  310.1760 C.cat   9  ARG9        0.5346
     10  NH1      179.7210  197.5130  310.2610 N.pl3   9  ARG9        0.1354
     11  NH2      179.1550  199.7100  309.8900 N.pl3   9  ARG9        0.1354
     12  N        182.9550  199.8940  305.1810 N.3    11  ARG11      -0.1231
     13  CA       181.7320  200.6730  305.1920 C.3    11  ARG11       0.1679
     14  C        181.2670  200.9750  303.7750 C.2    11  ARG11       0.2434
     15  O        182.0710  200.9860  302.8390 O.2    11  ARG11      -0.2733
     16  CB       181.8900  201.9570  306.0220 C.3    11  ARG11       0.0321
     17  CG       182.4630  203.1540  305.2770 C.3    11  ARG11       0.0489
     18  CD       181.6470  204.4070  305.5680 C.3    11  ARG11       0.2205
     19  NE       182.4230  205.6350  305.4020 N.pl3  11  ARG11      -0.0865
     20  CZ       182.5670  206.2810  304.2480 C.cat  11  ARG11       0.5346
     21  NH1      181.9850  205.8220  303.1480 N.pl3  11  ARG11       0.1354
     22  NH2      183.2900  207.3940  304.1960 N.pl3  11  ARG11       0.1354
     23  N        179.9630  201.2240  303.5960 N.am   12  PRO12      -0.2729
     24  CA       179.4030  201.5400  302.2870 C.3    12  PRO12       0.1401
     25  C        179.8630  202.9100  301.8160 C.2    12  PRO12       0.2269
     26  O        180.1650  203.7870  302.6330 O.2    12  PRO12      -0.2865
     27  CB       177.8890  201.5470  302.5340 C.3    12  PRO12       0.0296
     28  CG       177.7430  201.8210  303.9890 C.3    12  PRO12       0.0237
     29  CD       178.9330  201.1900  304.6500 C.3    12  PRO12       0.0939
     30  N        179.9880  206.6130  300.6920 N.3    14  LEU14      -0.1245
     31  CA       179.2000  207.7630  301.0970 C.3    14  LEU14       0.1561
     32  C        178.5060  208.3370  299.8690 C.2    14  LEU14       0.2260
     33  O        178.9310  208.0800  298.7460 O.2    14  LEU14      -0.2867
     34  CB       180.1000  208.8200  301.7450 C.3    14  LEU14       0.0270
     35  CG       179.3990  209.8940  302.5800 C.3    14  LEU14       0.0019
     36  CD1      178.7980  209.2910  303.8410 C.3    14  LEU14       0.0001
     37  CD2      180.3650  211.0180  302.9270 C.3    14  LEU14       0.0001
     38  N        177.4230  195.3990  304.9280 N.3    56  VAL56      -0.1231
     39  CA       177.1030  195.1520  306.3240 C.3    56  VAL56       0.1692
     40  C        177.0670  196.4460  307.1320 C.2    56  VAL56       0.2592
     41  O        178.0510  197.1810  307.1980 O.2    56  VAL56      -0.2718
     42  CB       178.1080  194.1660  306.9540 C.3    56  VAL56       0.0266
     43  CG1      177.9340  194.0800  308.4640 C.3    56  VAL56       0.0020
     44  CG2      177.9520  192.7920  306.3250 C.3    56  VAL56       0.0020
     45  N        175.9330  196.7110  307.7570 N.am   57  GLY57      -0.1957
     46  CA       175.7910  197.8950  308.5740 C.3    57  GLY57       0.1869
     47  C        176.3790  197.6590  309.9460 C.2    57  GLY57       0.2309
     48  O        177.0390  196.6430  310.1720 O.2    57  GLY57      -0.2863
     49  N        189.8980  208.1050  309.2040 N.3    87  THR87      -0.1203
     50  CA       188.8200  208.9660  309.6570 C.3    87  THR87       0.1994
     51  C        187.6490  208.8720  308.6760 C.2    87  THR87       0.2618
     52  O        187.8590  208.8190  307.4610 O.2    87  THR87      -0.2717
     53  CB       189.2990  210.4300  309.7500 C.3    87  THR87       0.1784
     54  OG1      190.4140  210.5030  310.6490 O.3    87  THR87      -0.2211
     55  CG2      188.1880  211.3470  310.2400 C.3    87  THR87       0.0376
     56  N        186.4300  208.8130  309.2150 N.am   88  ASN88      -0.1960
     57  CA       185.2100  208.7230  308.4050 C.3    88  ASN88       0.1819
     58  C        185.0100  207.3270  307.7940 C.2    88  ASN88       0.2622
     59  O        184.0950  207.1130  307.0020 O.2    88  ASN88      -0.2715
     60  CB       185.1710  209.8200  307.3260 C.3    88  ASN88       0.1195
     61  CG       183.8230  209.9590  306.6430 C.2    88  ASN88       0.2630
     62  OD1      182.7730  209.8070  307.2650 O.2    88  ASN88      -0.2716
     63  ND2      183.8480  210.2440  305.3500 N.am   88  ASN88      -0.0877
     64  N        185.8600  206.3710  308.1660 N.am   89  SER89      -0.1936
     65  CA       185.7380  205.0080  307.6530 C.3    89  SER89       0.2055
     66  C        184.6520  204.2280  308.3930 C.2    89  SER89       0.2644
     67  O        184.2370  203.1550  307.9570 O.2    89  SER89      -0.2714
     68  CB       187.0720  204.2630  307.7250 C.3    89  SER89       0.2130
     69  OG       188.0320  204.8520  306.8640 O.3    89  SER89      -0.2179
     70  N        184.1440  204.8110  309.5040 N.am   90  GLY90      -0.1939
     71  CA       183.1450  204.1270  310.2720 C.3    90  GLY90       0.2014
     72  C        183.5870  203.8810  311.6830 C.2    90  GLY90       0.2639
     73  O        182.9390  203.1180  312.3990 O.2    90  GLY90      -0.2714
     74  N        184.6910  204.5080  312.1370 N.am   91  LYS91      -0.1963
     75  CA       185.1200  204.2520  313.4870 C.3    91  LYS91       0.1728
     76  C        184.0940  204.6890  314.4880 C.2    91  LYS91       0.2617
     77  O        183.7190  203.9420  315.3860 O.2    91  LYS91      -0.2715
     78  CB       186.4520  204.9060  313.8690 C.3    91  LYS91       0.0311
     79  CG       187.6650  204.2190  313.2450 C.3    91  LYS91       0.0038
     80  CD       188.9810  204.8980  313.6250 C.3    91  LYS91       0.0206
     81  CE       188.9140  206.4130  313.4760 C.3    91  LYS91       0.1093
     82  NZ       188.4040  206.7260  312.1290 N.3    91  LYS91      -0.1314
     83  N        183.6000  205.9210  314.3470 N.am   92  THR92      -0.1937
     84  CA       182.6840  206.5000  315.2720 C.3    92  THR92       0.2028
     85  C        181.3620  205.8040  315.1680 C.2    92  THR92       0.2642
     86  O        180.6260  205.6620  316.1430 O.2    92  THR92      -0.2714
     87  CB       182.6090  207.9770  315.1660 C.3    92  THR92       0.1808
     88  OG1      183.9410  208.5280  315.3190 O.3    92  THR92      -0.2208
     89  CG2      181.6680  208.5180  316.2570 C.3    92  THR92       0.0379
     90  N        181.0440  205.3490  313.9550 N.am   93  TYR93      -0.1973
     91  CA       179.8370  204.6690  313.6320 C.3    93  TYR93       0.1639
     92  C        179.8680  203.3630  314.3610 C.2    93  TYR93       0.2290
     93  O        178.8670  202.9270  314.9240 O.2    93  TYR93      -0.2864
     94  CB       179.7450  204.4260  312.1140 C.3    93  TYR93       0.0560
     95  CG       178.3590  204.0380  311.7320 C.ar   93  TYR93      -0.0198
     96  CD1      177.3500  204.9620  311.8500 C.ar   93  TYR93      -0.0009
     97  CD2      178.0460  202.7730  311.2920 C.ar   93  TYR93      -0.0009
     98  CE1      176.0590  204.6550  311.5030 C.ar   93  TYR93       0.0417
     99  CE2      176.7520  202.4590  310.9380 C.ar   93  TYR93       0.0417
    100  CZ       175.7570  203.4030  311.0410 C.ar   93  TYR93       0.1957
    101  OH       174.4260  203.1060  310.6830 O.3    93  TYR93      -0.2866
    102  N        175.0560  205.8120  315.2710 N.3    98  THR98      -0.1218
    103  CA       174.1340  206.9280  315.1050 C.3    98  THR98       0.1862
    104  C        172.9870  206.7870  316.0940 C.2    98  THR98       0.2287
    105  O        172.9230  205.8090  316.8420 O.2    98  THR98      -0.2866
    106  CB       173.5620  206.9580  313.6780 C.3    98  THR98       0.1770
    107  OG1      173.2230  205.6230  313.2800 O.3    98  THR98      -0.2211
    108  CG2      174.5860  207.5260  312.7140 C.3    98  THR98       0.0375
@<TRIPOS>BOND
     1    33    32    2
     2    32    31    1
     3    30    31    1
     4    31    34    1
     5    34    35    1
     6    25    24    1
     7    25    26    2
     8    24    27    1
     9    24    23    1
    10    27    28    1
    11    35    37    1
    12    35    36    1
    13    15    14    2
    14    21    20    1
    15    23    14   am
    16    23    29    1
    17    14    13    1
    18    28    29    1
    19    22    20    1
    20    20    19    2
    21    38    39    1
    22    12    13    1
    23    13    16    1
    24    17    18    1
    25    17    16    1
    26    63    61   am
    27    19    18    1
    28    39    42    1
    29    39    40    1
    30    44    42    1
    31    61    62    2
    32    61    60    1
    33    69    68    1
    34    42    43    1
    35    59    58    2
    36    40    41    2
    37    40    45   am
    38    60    57    1
    39     3     4    2
    40     3     2    1
    41    52    51    2
    42    65    68    1
    43    65    64    1
    44    65    66    1
    45    45    46    1
    46    58    64   am
    47    58    57    1
    48    67    66    2
    49    66    70   am
    50    57    56    1
    51     2     1    1
    52     2     5    1
    53    46    47    1
    54    51    56   am
    55    51    50    1
    56    49    50    1
    57     6     5    1
    58     6     7    1
    59    70    71    1
    60    50    53    1
    61    53    55    1
    62    53    54    1
    63    11     9    1
    64    47    48    2
    65     9    10    1
    66     9     8    2
    67    71    72    1
    68     8     7    1
    69   101   100    1
    70    99   100   ar
    71    99    97   ar
    72   100    98   ar
    73    97    95   ar
    74    98    96   ar
    75    72    74   am
    76    72    73    2
    77    95    96   ar
    78    95    94    1
    79    94    91    1
    80    82    81    1
    81    74    75    1
    82   108   106    1
    83    79    80    1
    84    79    78    1
    85   107   106    1
    86    81    80    1
    87    75    78    1
    88    75    76    1
    89    91    90    1
    90    91    92    1
    91   106   103    1
    92    90    85   am
    93    83    76   am
    94    83    84    1
    95    92    93    2
    96    76    77    2
    97   103   102    1
    98   103   104    1
    99    87    84    1
   100    87    88    1
   101    87    89    1
   102    85    84    1
   103    85    86    2
   104   104   105    2
