@<TRIPOS>MOLECULE
tmp/5nd4A00.pdb
 185 180 0 0 0
SMALL
GASTEIGER

@<TRIPOS>ATOM
      1  N        185.7360  197.1190  309.2250 N.3     9  ARG9       -0.1231
      2  CA       184.6430  197.8230  308.6020 C.3     9  ARG9        0.1694
      3  C        185.1470  198.8900  307.6560 C.2     9  ARG9        0.2592
      4  O        186.2320  199.4350  307.8370 O.2     9  ARG9       -0.2718
      5  CB       183.6130  198.3580  309.5980 C.3     9  ARG9        0.0321
      6  CG       184.1050  199.4590  310.5140 C.3     9  ARG9        0.0489
      7  CD       182.9380  200.2760  311.0460 C.3     9  ARG9        0.2205
      8  NE       181.8550  199.4280  311.5540 N.pl3   9  ARG9       -0.0865
      9  CZ       180.5730  199.5660  311.2040 C.cat   9  ARG9        0.5346
     10  NH1      180.2100  200.5140  310.3530 N.pl3   9  ARG9        0.1354
     11  NH2      179.6560  198.7450  311.7020 N.pl3   9  ARG9        0.1354
     12  N        184.3610  199.1770  306.6480 N.am   10  ILE10      -0.1966
     13  CA       184.7110  200.1850  305.6750 C.3    10  ILE10       0.1727
     14  C        183.6080  201.2220  305.6560 C.2    10  ILE10       0.2616
     15  O        182.4680  200.9270  306.0210 O.2    10  ILE10      -0.2715
     16  CB       184.9080  199.6100  304.2530 C.3    10  ILE10       0.0290
     17  CG1      183.5910  199.0830  303.6790 C.3    10  ILE10       0.0022
     18  CG2      185.9720  198.5200  304.2450 C.3    10  ILE10       0.0023
     19  CD1      183.5890  198.9800  302.1700 C.3    10  ILE10       0.0001
     20  N        183.9390  202.4280  305.2640 N.am   11  ARG11      -0.1964
     21  CA       182.9580  203.4810  305.2240 C.3    11  ARG11       0.1714
     22  C        182.5880  203.6720  303.7640 C.2    11  ARG11       0.2458
     23  O        183.4230  203.4550  302.8850 O.2    11  ARG11      -0.2730
     24  CB       183.6310  204.7540  305.7740 C.3    11  ARG11       0.0347
     25  CG       182.7190  205.9440  306.0260 C.3    11  ARG11       0.0492
     26  CD       182.9430  207.0450  304.9980 C.3    11  ARG11       0.2205
     27  NE       184.3580  207.3970  304.8400 N.pl3  11  ARG11      -0.0865
     28  CZ       184.9320  207.6700  303.6640 C.cat  11  ARG11       0.5346
     29  NH1      184.2250  207.6190  302.5440 N.pl3  11  ARG11       0.1354
     30  NH2      186.2180  207.9850  303.6110 N.pl3  11  ARG11       0.1354
     31  N        181.3380  204.0510  303.4710 N.am   12  PRO12      -0.2727
     32  CA       180.9070  204.2480  302.0920 C.3    12  PRO12       0.1402
     33  C        181.5340  205.4970  301.5180 C.2    12  PRO12       0.2269
     34  O        181.8160  206.4470  302.2530 O.2    12  PRO12      -0.2865
     35  CB       179.3910  204.4370  302.2190 C.3    12  PRO12       0.0296
     36  CG       179.1840  204.9380  303.6060 C.3    12  PRO12       0.0237
     37  CD       180.2530  204.2950  304.4410 C.3    12  PRO12       0.0939
     38  N        181.7820  208.9760  300.1080 N.3    14  LEU14      -0.1245
     39  CA       180.9130  210.1300  300.2150 C.3    14  LEU14       0.1561
     40  C        180.6120  210.6370  298.8190 C.2    14  LEU14       0.2260
     41  O        181.3920  210.3910  297.9000 O.2    14  LEU14      -0.2867
     42  CB       181.5630  211.2200  301.0700 C.3    14  LEU14       0.0270
     43  CG       181.2020  211.2260  302.5630 C.3    14  LEU14       0.0019
     44  CD1      181.1290  209.8120  303.1200 C.3    14  LEU14       0.0001
     45  CD2      182.2020  212.0520  303.3520 C.3    14  LEU14       0.0001
     46  N        179.6810  199.0140  303.8180 N.3    68  PRO68      -0.2116
     47  CA       179.4880  200.4740  303.8400 C.3    68  PRO68       0.1372
     48  C        178.0560  200.8970  304.1920 C.2    68  PRO68       0.2244
     49  O        177.8250  201.9590  304.7690 O.2    68  PRO68      -0.2868
     50  CB       179.8310  200.8990  302.4080 C.3    68  PRO68       0.0268
     51  CG       179.6150  199.6800  301.5840 C.3    68  PRO68       0.0207
     52  CD       179.9800  198.5190  302.4600 C.3    68  PRO68       0.0892
     53  N        175.6180  199.5140  306.3150 N.3    70  VAL70      -0.1231
     54  CA       175.1790  199.5630  307.7060 C.3    70  VAL70       0.1692
     55  C        176.1500  200.3460  308.5870 C.2    70  VAL70       0.2593
     56  O        177.3500  200.4030  308.3150 O.2    70  VAL70      -0.2718
     57  CB       174.9350  198.1490  308.2800 C.3    70  VAL70       0.0266
     58  CG1      176.2450  197.4120  308.5310 C.3    70  VAL70       0.0020
     59  CG2      174.0730  198.2040  309.5360 C.3    70  VAL70       0.0020
     60  N        175.6230  200.9340  309.6550 N.am   71  GLY71      -0.1942
     61  CA       176.4470  201.7220  310.5510 C.3    71  GLY71       0.2014
     62  C        176.7460  201.0430  311.8760 C.2    71  GLY71       0.2638
     63  O        177.0900  199.8570  311.9210 O.2    71  GLY71      -0.2714
     64  N        176.5900  201.8060  312.9510 N.am   72  GLN72      -0.1977
     65  CA       176.8630  201.3400  314.3090 C.3    72  GLN72       0.1601
     66  C        175.9030  200.2820  314.8310 C.2    72  GLN72       0.2287
     67  O        176.2930  199.4330  315.6300 O.2    72  GLN72      -0.2864
     68  CB       177.0620  202.4910  315.2860 C.3    72  GLN72       0.0394
     69  CG       178.5240  202.8460  315.5090 C.3    72  GLN72       0.0908
     70  CD       179.3910  202.5340  314.3020 C.2    72  GLN72       0.2608
     71  OE1      179.9230  201.4300  314.1720 O.2    72  GLN72      -0.2717
     72  NE2      179.5410  203.5040  313.4140 N.am   72  GLN72      -0.0878
     73  N        193.2280  204.6170  309.2530 N.3   100  VAL100     -0.1231
     74  CA       193.8220  205.7700  308.6220 C.3   100  VAL100      0.1692
     75  C        192.8460  206.9450  308.6630 C.2   100  VAL100      0.2593
     76  O        191.6720  206.7690  308.9810 O.2   100  VAL100     -0.2718
     77  CB       194.1970  205.4470  307.1650 C.3   100  VAL100      0.0266
     78  CG1      192.9650  205.4430  306.2730 C.3   100  VAL100      0.0020
     79  CG2      195.2580  206.4000  306.6450 C.3   100  VAL100      0.0020
     80  N        193.3400  208.1450  308.4120 N.am  101  THR101     -0.1939
     81  CA       192.4910  209.3210  308.3790 C.3   101  THR101      0.2028
     82  C        191.3660  209.1210  307.3550 C.2   101  THR101      0.2642
     83  O        191.5480  208.4330  306.3520 O.2   101  THR101     -0.2714
     84  CB       193.3220  210.5880  308.0480 C.3   101  THR101      0.1808
     85  OG1      194.0670  210.9690  309.2110 O.3   101  THR101     -0.2208
     86  CG2      192.4540  211.7630  307.6160 C.3   101  THR101      0.0379
     87  N        190.2260  209.7430  307.6270 N.am  102  ASN102     -0.1957
     88  CA       189.0340  209.6720  306.7750 C.3   102  ASN102      0.1819
     89  C        188.3700  208.2960  306.8070 C.2   102  ASN102      0.2622
     90  O        187.4520  208.0270  306.0320 O.2   102  ASN102     -0.2715
     91  CB       189.3910  210.0520  305.3300 C.3   102  ASN102      0.1195
     92  CG       188.3830  210.9730  304.6850 C.2   102  ASN102      0.2630
     93  OD1      187.6980  211.7320  305.3640 O.2   102  ASN102     -0.2716
     94  ND2      188.2980  210.9260  303.3660 N.am  102  ASN102     -0.0877
     95  N        188.8180  207.4390  307.7170 N.am  103  SER103     -0.1936
     96  CA       188.2170  206.1210  307.9070 C.3   103  SER103      0.2055
     97  C        186.9010  206.2410  308.6710 C.2   103  SER103      0.2644
     98  O        186.1070  205.3060  308.7230 O.2   103  SER103     -0.2714
     99  CB       189.1730  205.1510  308.5980 C.3   103  SER103      0.2130
    100  OG       190.1060  204.6150  307.6760 O.3   103  SER103     -0.2179
    101  N        186.6940  207.4130  309.2690 N.am  104  GLY104     -0.1939
    102  CA       185.5030  207.6580  310.0530 C.3   104  GLY104      0.2014
    103  C        185.5700  206.9970  311.4150 C.2   104  GLY104      0.2639
    104  O        184.6190  206.3610  311.8600 O.2   104  GLY104     -0.2714
    105  N        186.7580  207.0240  312.0720 N.am  105  LYS105     -0.1962
    106  CA       186.8240  206.4670  313.3940 C.3   105  LYS105      0.1741
    107  C        185.9020  207.1560  314.3870 C.2   105  LYS105      0.2617
    108  O        185.3230  206.4740  315.2310 O.2   105  LYS105     -0.2715
    109  CB       188.1540  206.5200  314.0310 C.3   105  LYS105      0.0466
    110  CG       189.3100  205.8830  313.3190 C.3   105  LYS105      0.0051
    111  CD       190.2230  206.7060  314.1240 C.3   105  LYS105      0.0192
    112  CE       189.1760  207.1840  315.1850 C.3   105  LYS105      0.0939
    113  NZ       189.3790  208.5610  315.7290 N.3   105  LYS105     -0.1328
    114  N        185.7460  208.5040  314.3540 N.am  106  THR106     -0.1937
    115  CA       184.8560  209.2010  315.2770 C.3   106  THR106      0.2028
    116  C        183.4240  208.7050  315.0980 C.2   106  THR106      0.2642
    117  O        182.6420  208.6620  316.0490 O.2   106  THR106     -0.2714
    118  CB       184.8970  210.7200  315.0340 C.3   106  THR106      0.1808
    119  OG1      186.2390  211.1160  314.7180 O.3   106  THR106     -0.2208
    120  CG2      184.4220  211.4770  316.2640 C.3   106  THR106      0.0379
    121  N        183.0960  208.3310  313.8650 N.am  107  TYR107     -0.1959
    122  CA       181.7710  207.8240  313.5330 C.3   107  TYR107      0.1771
    123  C        181.4820  206.5540  314.3260 C.2   107  TYR107      0.2620
    124  O        180.3920  206.3860  314.8670 O.2   107  TYR107     -0.2715
    125  CB       181.6640  207.5550  312.0290 C.3   107  TYR107      0.0574
    126  CG       180.2620  207.6860  311.4780 C.ar  107  TYR107     -0.0198
    127  CD1      179.6540  208.9300  311.3650 C.ar  107  TYR107     -0.0009
    128  CD2      179.5480  206.5660  311.0680 C.ar  107  TYR107     -0.0009
    129  CE1      178.3720  209.0540  310.8620 C.ar  107  TYR107      0.0417
    130  CE2      178.2680  206.6840  310.5630 C.ar  107  TYR107      0.0417
    131  CZ       177.6860  207.9290  310.4620 C.ar  107  TYR107      0.1957
    132  OH       176.4100  208.0520  309.9610 O.3   107  TYR107     -0.2866
    133  N        182.4550  205.6550  314.3730 N.am  108  THR108     -0.1951
    134  CA       182.3090  204.4150  315.1160 C.3   108  THR108      0.1897
    135  C        182.2290  204.6800  316.6200 C.2   108  THR108      0.2313
    136  O        181.3320  204.1890  317.3050 O.2   108  THR108     -0.2863
    137  CB       183.4950  203.4680  314.8390 C.3   108  THR108      0.1794
    138  OG1      184.5450  204.1920  314.1800 O.3   108  THR108     -0.2208
    139  CG2      183.0650  202.3020  313.9680 C.3   108  THR108      0.0378
    140  N        189.0630  215.4760  305.8930 N.3   208  ASN208     -0.1240
    141  CA       187.7860  215.6700  306.5850 C.3   208  ASN208      0.1653
    142  C        187.8710  216.7220  307.6880 C.2   208  ASN208      0.2266
    143  O        188.8870  216.8440  308.3760 O.2   208  ASN208     -0.2867
    144  CB       187.2120  214.3930  307.1530 C.3   208  ASN208      0.1155
    145  CG       188.0680  213.8760  308.3000 C.2   208  ASN208      0.2627
    146  OD1      189.2370  213.5490  308.1090 O.2   208  ASN208     -0.2716
    147  ND2      187.4820  213.8030  309.4980 N.am  208  ASN208     -0.0877
    148  N        185.8890  216.8120  310.3870 N.3   210  GLN210     -0.1231
    149  CA       185.5850  216.2230  311.6640 C.3   210  GLN210      0.1698
    150  C        186.8360  215.8970  312.4250 C.2   210  GLN210      0.2593
    151  O        186.8180  215.9140  313.6560 O.2   210  GLN210     -0.2718
    152  CB       184.7170  214.9580  311.5640 C.3   210  GLN210      0.0381
    153  CG       184.1520  214.5340  312.9220 C.3   210  GLN210      0.0905
    154  CD       183.1360  213.4210  312.7150 C.2   210  GLN210      0.2608
    155  OE1      182.0640  213.4320  313.3130 O.2   210  GLN210     -0.2717
    156  NE2      183.4860  212.4280  311.8540 N.am  210  GLN210     -0.0878
    157  N        187.9410  215.6010  311.7060 N.am  211  SER211     -0.1938
    158  CA       189.2550  215.2180  312.2430 C.3   211  SER211      0.2055
    159  C        189.5300  215.6250  313.6950 C.2   211  SER211      0.2643
    160  O        189.4760  216.8040  314.0610 O.2   211  SER211     -0.2714
    161  CB       190.3590  215.7540  311.3320 C.3   211  SER211      0.2130
    162  OG       190.3680  215.0720  310.0910 O.3   211  SER211     -0.2179
    163  N        189.8730  214.6220  314.4990 N.am  212  SER212     -0.1949
    164  CA       190.1760  214.8210  315.9050 C.3   212  SER212      0.1924
    165  C        191.6820  214.9700  316.0920 C.2   212  SER212      0.2314
    166  O        192.4590  214.1300  315.6330 O.2   212  SER212     -0.2863
    167  CB       189.6990  213.5950  316.6790 C.3   212  SER212      0.2116
    168  OG       189.0000  212.7110  315.8120 O.3   212  SER212     -0.2180
    169  N        193.3460  208.6800  316.9520 N.3   238  ALA238     -0.1231
    170  CA       193.3560  209.4390  315.7250 C.3   238  ALA238      0.1694
    171  C        194.1190  208.6260  314.6950 C.2   238  ALA238      0.2592
    172  O        195.0520  207.8980  315.0390 O.2   238  ALA238     -0.2718
    173  CB       194.0140  210.7940  315.9430 C.3   238  ALA238      0.0304
    174  N        193.7290  208.7370  313.4460 N.am  239  GLY239     -0.1957
    175  CA       194.3970  207.9860  312.4120 C.3   239  GLY239      0.1869
    176  C        195.5760  208.7230  311.8260 C.2   239  GLY239      0.2309
    177  O        195.7420  209.9270  312.0490 O.2   239  GLY239     -0.2863
    178  N        188.8680  200.5120  310.9410 N.3   311  ASN311     -0.1240
    179  CA       188.1370  201.1860  309.8900 C.3   311  ASN311      0.1653
    180  C        189.0320  201.2740  308.6750 C.2   311  ASN311      0.2266
    181  O        190.2250  201.5530  308.8010 O.2   311  ASN311     -0.2867
    182  CB       187.6820  202.5770  310.3310 C.3   311  ASN311      0.1155
    183  CG       186.6360  202.5350  311.4280 C.2   311  ASN311      0.2627
    184  OD1      186.0140  201.5050  311.6730 O.2   311  ASN311     -0.2716
    185  ND2      186.4260  203.6590  312.0890 N.am  311  ASN311     -0.0877
@<TRIPOS>BOND
     1    41    40    2
     2    40    39    1
     3    38    39    1
     4    39    42    1
     5    42    43    1
     6    33    32    1
     7    33    34    2
     8    51    50    1
     9    51    52    1
    10    32    35    1
    11    32    31    1
    12    19    17    1
    13    35    36    1
    14    50    47    1
    15    52    46    1
    16    29    28    1
    17    43    44    1
    18    43    45    1
    19    23    22    2
    20    94    92   am
    21    31    22   am
    22    31    37    1
    23    36    37    1
    24    30    28    1
    25    28    27    2
    26    17    16    1
    27    22    21    1
    28    46    47    1
    29    47    48    1
    30    48    49    2
    31    18    16    1
    32    16    13    1
    33    92    91    1
    34    92    93    2
    35    27    26    1
    36    26    25    1
    37    21    20    1
    38    21    24    1
    39    20    14   am
    40    91    88    1
    41    14    13    1
    42    14    15    2
    43    13    12    1
    44    24    25    1
    45   140   141    1
    46    90    89    2
    47    78    77    1
    48    53    54    1
    49    83    82    2
    50   141   144    1
    51   141   142    1
    52    79    77    1
    53    12     3   am
    54    88    89    1
    55    88    87    1
    56    89    95   am
    57   144   145    1
    58    77    74    1
    59    82    87   am
    60    82    81    1
    61    86    84    1
    62     3     4    2
    63     3     2    1
    64   100    99    1
    65   142   143    2
    66    54    57    1
    67    54    55    1
    68    95    96    1
    69    96    99    1
    70    96    97    1
    71    84    81    1
    72    84    85    1
    73   146   145    2
    74    57    58    1
    75    57    59    1
    76   145   147   am
    77    56    55    2
    78    81    80    1
    79    80    75   am
    80    55    60   am
    81     2     1    1
    82     2     5    1
    83    74    75    1
    84    74    73    1
    85    75    76    2
    86    97    98    2
    87    97   101   am
    88   180   181    2
    89   180   179    1
    90   101   102    1
    91     5     6    1
    92    60    61    1
    93   179   182    1
    94   179   178    1
    95   132   131    1
    96   102   103    1
    97   162   161    1
    98   182   183    1
    99    10     9    1
   100   148   149    1
   101   131   130   ar
   102   131   129   ar
   103     6     7    1
   104    61    62    1
   105   130   128   ar
   106   129   127   ar
   107     7     8    1
   108   128   126   ar
   109     9     8    2
   110     9    11    1
   111   161   158    1
   112   127   126   ar
   113   103   104    2
   114   103   105   am
   115   183   184    2
   116   183   185   am
   117   126   125    1
   118   152   149    1
   119   152   153    1
   120   149   150    1
   121   157   158    1
   122   157   150   am
   123   176   177    2
   124   176   175    1
   125   156   154   am
   126    62    63    2
   127    62    64   am
   128   125   122    1
   129   105   106    1
   130   158   159    1
   131   175   174    1
   132   150   151    2
   133   154   153    1
   134   154   155    2
   135    64    65    1
   136   110   109    1
   137   110   111    1
   138   106   109    1
   139   106   107    1
   140    72    70   am
   141   174   171   am
   142   122   121    1
   143   122   123    1
   144   159   160    2
   145   159   163   am
   146   121   116   am
   147   139   137    1
   148   109   112    1
   149   111   112    1
   150    71    70    2
   151   138   137    1
   152    70    69    1
   153    65    66    1
   154    65    68    1
   155   123   133   am
   156   123   124    2
   157   114   107   am
   158   114   115    1
   159   133   134    1
   160   107   108    2
   161   163   164    1
   162   171   172    2
   163   171   170    1
   164   119   118    1
   165    66    67    2
   166   137   134    1
   167   118   115    1
   168   118   120    1
   169   116   115    1
   170   116   117    2
   171   134   135    1
   172   112   113    1
   173    68    69    1
   174   166   165    2
   175   170   173    1
   176   170   169    1
   177   168   167    1
   178   164   165    1
   179   164   167    1
   180   135   136    2
