@<TRIPOS>MOLECULE
tmp/5nd5A00.pdb
 143 135 0 0 0
SMALL
GASTEIGER

@<TRIPOS>ATOM
      1  N         46.7510  -16.9860   51.7610 N.3    29  HIS29      -0.1241
      2  CA        48.1960  -17.2230   52.1010 C.3    29  HIS29       0.1621
      3  C         48.5120  -16.7790   53.5250 C.2    29  HIS29       0.2264
      4  O         48.7810  -15.6200   53.7130 O.2    29  HIS29      -0.2867
      5  CB        48.9940  -16.3330   51.1430 C.3    29  HIS29       0.0745
      6  CG        48.8970  -16.7920   49.7070 C.ar   29  HIS29       0.0817
      7  ND1       47.8380  -16.4390   48.9090 N.ar   29  HIS29      -0.2268
      8  CD2       49.6560  -17.6610   48.9760 C.ar   29  HIS29       0.1154
      9  CE1       47.9630  -17.0380   47.7310 C.ar   29  HIS29       0.1986
     10  NE2       49.0780  -17.7570   47.7370 N.ar   29  HIS29      -0.2212
     11  N         53.3160  -16.3340   55.0420 N.3    32  MET32      -0.1245
     12  CA        54.1480  -15.1070   55.0600 C.3    32  MET32       0.1570
     13  C         53.6740  -14.1250   56.1230 C.2    32  MET32       0.2261
     14  O         54.4810  -13.6860   56.9310 O.2    32  MET32      -0.2867
     15  CB        54.3150  -14.4750   53.6390 C.3    32  MET32       0.0387
     16  CG        54.9770  -13.1380   53.6280 C.3    32  MET32       0.0595
     17  SD        53.7790  -11.8490   54.0150 S.3    32  MET32      -0.1393
     18  CE        54.8770  -10.4260   53.8590 C.3    32  MET32       0.0692
     19  N         55.9320   -9.1030   47.8990 N.3    67  ALA67      -0.1245
     20  CA        55.4170  -10.4440   48.0350 C.3    67  ALA67       0.1562
     21  C         53.8940  -10.4040   48.1770 C.2    67  ALA67       0.2260
     22  O         53.3550  -10.5920   49.2650 O.2    67  ALA67      -0.2867
     23  CB        56.0660  -11.1520   49.2720 C.3    67  ALA67       0.0290
     24  N         51.1570  -11.9870   47.4580 N.3    69  HIS69      -0.1241
     25  CA        50.4230  -13.0680   48.0070 C.3    69  HIS69       0.1621
     26  C         50.1890  -12.9240   49.5230 C.2    69  HIS69       0.2264
     27  O         49.1180  -13.3060   50.0140 O.2    69  HIS69      -0.2867
     28  CB        51.0500  -14.4430   47.7160 C.3    69  HIS69       0.0745
     29  CG        52.4080  -14.6280   48.2800 C.ar   69  HIS69       0.0817
     30  ND1       53.5440  -14.1980   47.6380 N.ar   69  HIS69      -0.2268
     31  CD2       52.8260  -15.2050   49.4340 C.ar   69  HIS69       0.1154
     32  CE1       54.6030  -14.5380   48.3330 C.ar   69  HIS69       0.1986
     33  NE2       54.1920  -15.1150   49.4550 N.ar   69  HIS69      -0.2212
     34  N         45.2920  -10.0520   45.8330 N.3   104  HIS104     -0.1241
     35  CA        46.6070   -9.4070   45.7720 C.3   104  HIS104      0.1621
     36  C         46.3440   -7.9130   45.8230 C.2   104  HIS104      0.2264
     37  O         45.2420   -7.5020   45.3620 O.2   104  HIS104     -0.2867
     38  CB        47.4010   -9.8420   44.5130 C.3   104  HIS104      0.0745
     39  CG        47.7440  -11.3020   44.5470 C.ar  104  HIS104      0.0817
     40  ND1       46.8720  -12.2870   44.1110 N.ar  104  HIS104     -0.2268
     41  CD2       48.8030  -11.9400   45.0680 C.ar  104  HIS104      0.1154
     42  CE1       47.4120  -13.4690   44.3770 C.ar  104  HIS104      0.1986
     43  NE2       48.6260  -13.2690   44.8590 N.ar  104  HIS104     -0.2212
     44  N         51.5280   -8.9540   43.0880 N.3   118  GLY118     -0.1210
     45  CA        51.0240  -10.2700   42.7480 C.3   118  GLY118      0.1940
     46  C         51.9530  -11.0080   41.8100 C.2   118  GLY118      0.2454
     47  O         52.3140  -12.1830   42.0720 O.2   118  GLY118     -0.2732
     48  N         52.3650  -10.3570   40.6910 N.am  119  PRO119     -0.2717
     49  CA        53.4500  -10.8260   39.8530 C.3   119  PRO119      0.1535
     50  C         54.7950  -10.5690   40.5290 C.2   119  PRO119      0.2598
     51  O         55.2270   -9.4090   40.7230 O.2   119  PRO119     -0.2715
     52  CB        53.2590  -10.0300   38.5370 C.3   119  PRO119      0.0310
     53  CG        51.8840   -9.4690   38.6110 C.3   119  PRO119      0.0237
     54  CD        51.7470   -9.1560   40.0830 C.3   119  PRO119      0.0939
     55  N         55.4430  -11.6660   40.9470 N.am  120  LEU120     -0.1978
     56  CA        56.6500  -11.5640   41.7820 C.3   120  LEU120      0.1596
     57  C         57.7790  -10.7680   41.0780 C.2   120  LEU120      0.2287
     58  O         57.9730  -10.8350   39.8190 O.2   120  LEU120     -0.2864
     59  CB        57.1560  -12.9660   42.1830 C.3   120  LEU120      0.0297
     60  CG        56.1700  -13.6810   43.1140 C.3   120  LEU120      0.0022
     61  CD1       56.4590  -15.2060   43.0690 C.3   120  LEU120      0.0001
     62  CD2       56.2470  -13.2110   44.5690 C.3   120  LEU120      0.0001
     63  N         60.1480  -11.4750   49.0990 N.3   159  GLY159     -0.1210
     64  CA        60.4600  -12.8270   49.4420 C.3   159  GLY159      0.1956
     65  C         61.3590  -13.5450   48.4700 C.2   159  GLY159      0.2612
     66  O         62.0630  -12.9370   47.6280 O.2   159  GLY159     -0.2717
     67  N         61.4090  -14.8790   48.6020 N.am  160  ASP160     -0.1959
     68  CA        62.3690  -15.6160   47.8060 C.3   160  ASP160      0.1840
     69  C         62.0060  -15.5770   46.3250 C.2   160  ASP160      0.2622
     70  O         62.8760  -15.5600   45.4590 O.2   160  ASP160     -0.2715
     71  CB        62.4100  -17.0660   48.2480 C.3   160  ASP160      0.1450
     72  CG        62.8490  -17.1930   49.7040 C.2   160  ASP160      0.3671
     73  OD1       64.0350  -16.8460   50.0230 O.co2 160  ASP160     -0.2456
     74  OD2       62.0170  -17.6510   50.4780 O.co2 160  ASP160     -0.2456
     75  N         60.7150  -15.5380   46.0350 N.am  161  GLY161     -0.1954
     76  CA        60.2740  -15.5390   44.6870 C.3   161  GLY161      0.1869
     77  C         60.6900  -14.2410   43.9760 C.2   161  GLY161      0.2309
     78  O         61.1750  -14.2780   42.8170 O.2   161  GLY161     -0.2863
     79  N         63.4290  -13.8050   40.5810 N.3   165  GLU165     -0.1245
     80  CA        63.0690  -13.1320   39.3080 C.3   165  GLU165      0.1567
     81  C         64.1480  -12.1950   38.8140 C.2   165  GLU165      0.2260
     82  O         64.5600  -11.2560   39.5290 O.2   165  GLU165     -0.2867
     83  CB        61.7360  -12.3940   39.4590 C.3   165  GLU165      0.0388
     84  CG        60.5750  -13.3330   39.5590 C.3   165  GLU165      0.1160
     85  CD        60.1600  -13.9330   38.2500 C.2   165  GLU165      0.3649
     86  OE1       60.8420  -13.7220   37.2040 O.co2 165  GLU165     -0.2457
     87  OE2       59.1030  -14.6530   38.2450 O.co2 165  GLU165     -0.2457
     88  N         62.1000  -11.3860   53.4480 N.3   188  ASP188     -0.1239
     89  CA        61.5690  -12.4600   54.2260 C.3   188  ASP188      0.1674
     90  C         62.3010  -13.7230   53.8130 C.2   188  ASP188      0.2266
     91  O         61.9190  -14.4580   52.8800 O.2   188  ASP188     -0.2867
     92  CB        60.0570  -12.5640   54.0530 C.3   188  ASP188      0.1410
     93  CG        59.4630  -13.6980   54.8890 C.2   188  ASP188      0.3668
     94  OD1       60.2250  -14.2470   55.7440 O.co2 188  ASP188     -0.2456
     95  OD2       58.2600  -14.0280   54.7040 O.co2 188  ASP188     -0.2456
     96  N         62.7850  -17.0000   54.4790 N.3   190  ASN190     -0.1240
     97  CA        62.1620  -18.0810   55.2110 C.3   190  ASN190      0.1653
     98  C         62.4480  -19.4980   54.7010 C.2   190  ASN190      0.2266
     99  O         61.8330  -20.4250   55.1520 O.2   190  ASN190     -0.2867
    100  CB        60.6380  -17.8710   55.3540 C.3   190  ASN190      0.1155
    101  CG        59.8870  -17.7990   54.0250 C.2   190  ASN190      0.2627
    102  OD1       60.4030  -18.1880   52.9580 O.2   190  ASN190     -0.2716
    103  ND2       58.6110  -17.3270   54.0990 N.am  190  ASN190     -0.0877
    104  N         61.5660  -21.0990   52.1900 N.3   192  ILE192     -0.1231
    105  CA        60.3600  -21.8090   51.6430 C.3   192  ILE192      0.1692
    106  C         59.8710  -21.0460   50.4120 C.2   192  ILE192      0.2593
    107  O         59.8510  -19.8170   50.3980 O.2   192  ILE192     -0.2718
    108  CB        59.2340  -21.8520   52.7190 C.3   192  ILE192      0.0266
    109  CG1       59.6030  -22.9080   53.8050 C.3   192  ILE192      0.0019
    110  CG2       57.8110  -22.1110   52.1360 C.3   192  ILE192      0.0020
    111  CD1       59.5700  -24.3670   53.3380 C.3   192  ILE192      0.0001
    112  N         59.5400  -21.7920   49.3800 N.am  193  SER193     -0.1938
    113  CA        58.7240  -21.2920   48.2580 C.3   193  SER193      0.2055
    114  C         57.6640  -22.3710   47.9710 C.2   193  SER193      0.2642
    115  O         57.4810  -23.2720   48.7760 O.2   193  SER193     -0.2714
    116  CB        59.5900  -20.9320   47.0650 C.3   193  SER193      0.2130
    117  OG        60.1930  -22.0310   46.4810 O.3   193  SER193     -0.2179
    118  N         56.9960  -22.3300   46.8230 N.am  194  ILE194     -0.1977
    119  CA        55.8690  -23.2630   46.5880 C.3   194  ILE194      0.1596
    120  C         56.3340  -24.7110   46.4350 C.2   194  ILE194      0.2287
    121  O         55.7000  -25.6140   46.9700 O.2   194  ILE194     -0.2864
    122  CB        54.8990  -22.7870   45.4530 C.3   194  ILE194      0.0276
    123  CG1       54.0310  -21.6760   46.0040 C.3   194  ILE194      0.0022
    124  CG2       54.0460  -23.9770   44.9270 C.3   194  ILE194      0.0022
    125  CD1       53.1180  -21.0480   44.9520 C.3   194  ILE194      0.0001
    126  N         58.2160  -19.4280   58.1810 N.3   253  ILE253     -0.1245
    127  CA        56.9040  -19.2700   57.5050 C.3   253  ILE253      0.1561
    128  C         55.8890  -19.9680   58.3710 C.2   253  ILE253      0.2260
    129  O         56.1480  -21.0440   58.9340 O.2   253  ILE253     -0.2867
    130  CB        56.8900  -19.8370   56.0830 C.3   253  ILE253      0.0252
    131  CG1       55.6650  -19.2980   55.3390 C.3   253  ILE253      0.0019
    132  CG2       56.8910  -21.3510   56.0980 C.3   253  ILE253      0.0019
    133  CD1       55.6380  -19.7270   53.8910 C.3   253  ILE253      0.0001
    134  N         52.0620  -22.0700   52.9870 N.3   267  HIS267     -0.1241
    135  CA        52.3000  -20.9960   52.0160 C.3   267  HIS267      0.1621
    136  C         50.9720  -20.4040   51.5230 C.2   267  HIS267      0.2264
    137  O         50.7360  -19.1450   51.5450 O.2   267  HIS267     -0.2867
    138  CB        53.1620  -21.4640   50.8060 C.3   267  HIS267      0.0745
    139  CG        52.9950  -20.5780   49.6370 C.ar  267  HIS267      0.0817
    140  ND1       53.6210  -19.3570   49.5550 N.ar  267  HIS267     -0.2268
    141  CD2       52.1200  -20.6210   48.5970 C.ar  267  HIS267      0.1154
    142  CE1       53.1990  -18.7150   48.4820 C.ar  267  HIS267      0.1986
    143  NE2       52.2920  -19.4650   47.8770 N.ar  267  HIS267     -0.2212
@<TRIPOS>BOND
     1    86    85   ar
     2    87    85   ar
     3    85    84    1
     4    52    53    1
     5    52    49    1
     6    53    54    1
     7    81    80    1
     8    81    82    2
     9    80    83    1
    10    80    79    1
    11    83    84    1
    12    58    57    2
    13    49    50    1
    14    49    48    1
    15    54    48    1
    16    50    51    2
    17    50    55   am
    18    48    46   am
    19    55    56    1
    20    57    56    1
    21    56    59    1
    22    46    47    2
    23    46    45    1
    24    59    60    1
    25    45    44    1
    26    78    77    2
    27    61    60    1
    28    60    62    1
    29    77    76    1
    30    40    42   ar
    31    40    39   ar
    32    42    43   ar
    33    38    39    1
    34    38    35    1
    35    39    41   ar
    36    76    75    1
    37    43    41   ar
    38   124   122    1
    39   125   123    1
    40    37    36    2
    41   122   123    1
    42   122   119    1
    43    70    69    2
    44    35    36    1
    45    35    34    1
    46    75    69   am
    47    69    68    1
    48   120   119    1
    49   120   121    2
    50   117   116    1
    51   119   118    1
    52   118   114   am
    53   116   113    1
    54    24    25    1
    55    66    65    2
    56    30    29   ar
    57    30    32   ar
    58    28    25    1
    59    28    29    1
    60     9    10   ar
    61     9     7   ar
    62    10     8   ar
    63    68    71    1
    64    68    67    1
    65   143   142   ar
    66   143   141   ar
    67    19    20    1
    68   114   113    1
    69   114   115    2
    70    25    26    1
    71    20    21    1
    72    20    23    1
    73    21    22    2
    74    71    72    1
    75   113   112    1
    76    29    31   ar
    77    32    33   ar
    78    65    67   am
    79    65    64    1
    80   142   140   ar
    81   141   139   ar
    82     7     6   ar
    83     8     6   ar
    84    63    64    1
    85   112   106   am
    86    31    33   ar
    87    26    27    2
    88   140   139   ar
    89   139   138    1
    90    72    73   ar
    91    72    74   ar
    92     6     5    1
    93   107   106    2
    94   106   105    1
    95   138   135    1
    96     5     2    1
    97   136   137    2
    98   136   135    1
    99   105   104    1
   100   105   108    1
   101     1     2    1
   102   135   134    1
   103     2     3    1
   104   110   108    1
   105   108   109    1
   106    91    90    2
   107   102   101    2
   108   111   109    1
   109    88    89    1
   110     3     4    2
   111    16    15    1
   112    16    17    1
   113    15    12    1
   114    90    89    1
   115    18    17    1
   116   133   131    1
   117   101   103   am
   118   101   100    1
   119    92    89    1
   120    92    93    1
   121    96    97    1
   122    98    99    2
   123    98    97    1
   124    95    93   ar
   125    93    94   ar
   126    11    12    1
   127    12    13    1
   128    97   100    1
   129   131   130    1
   130   130   132    1
   131   130   127    1
   132    13    14    2
   133   127   126    1
   134   127   128    1
   135   128   129    2
