@<TRIPOS>MOLECULE
tmp/5nd7A00.pdb
 133 129 0 0 0
SMALL
GASTEIGER

@<TRIPOS>ATOM
      1  N        184.6670  193.7870  310.6630 N.3     9  ARG9       -0.1245
      2  CA       183.3910  194.3080  310.1950 C.3     9  ARG9        0.1563
      3  C        183.6230  195.4220  309.1810 C.2     9  ARG9        0.2260
      4  O        184.4780  196.2850  309.3800 O.2     9  ARG9       -0.2867
      5  CB       182.5550  194.8170  311.3700 C.3     9  ARG9        0.0307
      6  CG       181.0560  194.7040  311.1600 C.3     9  ARG9        0.0489
      7  CD       180.5100  195.9120  310.4250 C.3     9  ARG9        0.2205
      8  NE       179.1270  195.7190  309.9920 N.pl3   9  ARG9       -0.0865
      9  CZ       178.1330  196.5420  310.3120 C.cat   9  ARG9        0.5346
     10  NH1      178.3690  197.6070  311.0680 N.pl3   9  ARG9        0.1354
     11  NH2      176.9050  196.3080  309.8740 N.pl3   9  ARG9        0.1354
     12  N        182.0250  198.5830  306.6600 N.3    11  ARG11      -0.1231
     13  CA       180.9630  199.5750  306.6250 C.3    11  ARG11       0.1679
     14  C        180.0330  199.3130  305.4370 C.2    11  ARG11       0.2434
     15  O        180.4920  198.9600  304.3510 O.2    11  ARG11      -0.2733
     16  CB       181.5880  200.9640  306.5050 C.3    11  ARG11       0.0321
     17  CG       180.6650  202.1170  306.8560 C.3    11  ARG11       0.0489
     18  CD       181.2410  203.4360  306.3720 C.3    11  ARG11       0.2205
     19  NE       181.5560  203.3830  304.9470 N.pl3  11  ARG11      -0.0865
     20  CZ       180.6700  203.6180  303.9800 C.cat  11  ARG11       0.5346
     21  NH1      179.4180  203.9320  304.2830 N.pl3  11  ARG11       0.1354
     22  NH2      181.0280  203.5040  302.7090 N.pl3  11  ARG11       0.1354
     23  N        178.7110  199.4520  305.6400 N.am   12  PRO12      -0.2729
     24  CA       177.7210  199.2380  304.5820 C.3    12  PRO12       0.1401
     25  C        177.7270  200.3480  303.5380 C.2    12  PRO12       0.2269
     26  O        178.2390  201.4410  303.7740 O.2    12  PRO12      -0.2865
     27  CB       176.3900  199.2330  305.3360 C.3    12  PRO12       0.0296
     28  CG       176.6460  200.0480  306.5550 C.3    12  PRO12       0.0237
     29  CD       178.0790  199.7940  306.9270 C.3    12  PRO12       0.0939
     30  N        175.6790  202.9810  301.5610 N.3    14  LEU14      -0.1245
     31  CA       174.4350  203.7340  301.5450 C.3    14  LEU14       0.1561
     32  C        174.2480  204.4260  300.1970 C.2    14  LEU14       0.2260
     33  O        175.1410  204.4020  299.3440 O.2    14  LEU14      -0.2867
     34  CB       174.4210  204.7720  302.6710 C.3    14  LEU14       0.0270
     35  CG       174.7610  204.2720  304.0780 C.3    14  LEU14       0.0019
     36  CD1      174.9040  205.4440  305.0350 C.3    14  LEU14       0.0001
     37  CD2      173.7040  203.2990  304.5770 C.3    14  LEU14       0.0001
     38  N        190.2550  205.0130  309.4480 N.3    87  THR87      -0.1203
     39  CA       189.4950  206.2110  309.7310 C.3    87  THR87       0.1994
     40  C        188.1140  206.1620  309.0880 C.2    87  THR87       0.2618
     41  O        187.9480  205.6190  307.9950 O.2    87  THR87      -0.2717
     42  CB       190.2480  207.4340  309.1940 C.3    87  THR87       0.1784
     43  OG1      191.6460  207.2390  309.4240 O.3    87  THR87      -0.2211
     44  CG2      189.7840  208.6930  309.9010 C.3    87  THR87       0.0376
     45  N        187.1260  206.7000  309.8110 N.am   88  ASN88      -0.1960
     46  CA       185.7320  206.7660  309.3550 C.3    88  ASN88       0.1819
     47  C        185.1870  205.4410  308.8240 C.2    88  ASN88       0.2622
     48  O        184.3790  205.4180  307.8950 O.2    88  ASN88      -0.2715
     49  CB       185.4520  207.9440  308.3990 C.3    88  ASN88       0.1195
     50  CG       186.2490  207.9270  307.1030 C.2    88  ASN88       0.2630
     51  OD1      187.3110  208.5450  307.0030 O.2    88  ASN88      -0.2716
     52  ND2      185.7370  207.2320  306.0990 N.am   88  ASN88      -0.0877
     53  N        185.6190  204.3410  309.4200 N.am   89  SER89      -0.1936
     54  CA       185.1550  203.0290  308.9990 C.3    89  SER89       0.2055
     55  C        183.8220  202.7100  309.6630 C.2    89  SER89       0.2644
     56  O        183.1380  201.7560  309.2890 O.2    89  SER89      -0.2714
     57  CB       186.1890  201.9660  309.3550 C.3    89  SER89       0.2130
     58  OG       186.7050  202.1950  310.6530 O.3    89  SER89      -0.2179
     59  N        183.4770  203.5030  310.6690 N.am   90  GLY90      -0.1939
     60  CA       182.2320  203.3030  311.3700 C.3    90  GLY90       0.2014
     61  C        182.4400  202.6600  312.7240 C.2    90  GLY90       0.2639
     62  O        181.5240  202.0430  313.2600 O.2    90  GLY90      -0.2714
     63  N        183.6370  202.8070  313.2780 N.am   91  LYS91      -0.1963
     64  CA       183.9620  202.2140  314.5730 C.3    91  LYS91       0.1728
     65  C        183.0990  202.7990  315.6890 C.2    91  LYS91       0.2617
     66  O        182.5830  202.0690  316.5340 O.2    91  LYS91      -0.2715
     67  CB       185.4490  202.3730  314.8880 C.3    91  LYS91       0.0311
     68  CG       186.3550  202.0810  313.7070 C.3    91  LYS91       0.0038
     69  CD       187.7590  201.7100  314.1480 C.3    91  LYS91       0.0206
     70  CE       188.5080  202.8950  314.7340 C.3    91  LYS91       0.1093
     71  NZ       188.7910  203.9390  313.7130 N.3    91  LYS91      -0.1314
     72  N        182.9390  204.1170  315.6860 N.am   92  THR92      -0.1937
     73  CA       182.1130  204.7760  316.6900 C.3    92  THR92       0.2028
     74  C        180.6530  204.3570  316.5100 C.2    92  THR92       0.2642
     75  O        179.8670  204.3330  317.4630 O.2    92  THR92      -0.2714
     76  CB       182.2420  206.3100  316.6210 C.3    92  THR92       0.1808
     77  OG1      183.6340  206.6640  316.5780 O.3    92  THR92      -0.2208
     78  CG2      181.6030  206.9550  317.8450 C.3    92  THR92       0.0379
     79  N        180.2990  204.0210  315.2750 N.am   93  TYR93      -0.1959
     80  CA       178.9500  203.5810  314.9570 C.3    93  TYR93       0.1771
     81  C        178.7340  202.1590  315.4600 C.2    93  TYR93       0.2620
     82  O        177.6640  201.8250  315.9480 O.2    93  TYR93      -0.2715
     83  CB       178.6820  203.6370  313.4710 C.3    93  TYR93       0.0574
     84  CG       177.2710  203.1680  313.2030 C.ar   93  TYR93      -0.0198
     85  CD1      176.1920  204.0280  313.4410 C.ar   93  TYR93      -0.0009
     86  CD2      177.0430  201.8770  312.7150 C.ar   93  TYR93      -0.0009
     87  CE1      174.8840  203.5940  313.1930 C.ar   93  TYR93       0.0417
     88  CE2      175.7360  201.4420  312.4670 C.ar   93  TYR93       0.0417
     89  CZ       174.6560  202.3010  312.7060 C.ar   93  TYR93       0.1957
     90  OH       173.3860  201.8800  312.4630 O.3    93  TYR93      -0.2866
     91  N        179.7660  201.3320  315.3510 N.am   94  THR94      -0.1951
     92  CA       179.6870  199.9560  315.8080 C.3    94  THR94       0.1897
     93  C        179.7340  199.8690  317.3340 C.2    94  THR94       0.2313
     94  O        179.0700  199.0260  317.9400 O.2    94  THR94      -0.2863
     95  CB       180.7760  199.0620  315.1780 C.3    94  THR94       0.1794
     96  OG1      181.9590  199.8270  314.9190 O.3    94  THR94      -0.2208
     97  CG2      180.2830  198.4560  313.8730 C.3    94  THR94       0.0378
     98  N        187.3080  216.2950  320.8090 N.3   186  PHE186     -0.1241
     99  CA       187.8210  215.4150  319.7670 C.3   186  PHE186      0.1605
    100  C        189.1520  215.8850  319.2910 C.2   186  PHE186      0.2264
    101  O        189.5840  216.9980  319.5910 O.2   186  PHE186     -0.2867
    102  CB       186.9300  215.2100  318.4980 C.3   186  PHE186      0.0534
    103  CG       185.8210  214.2100  318.7220 C.ar  186  PHE186     -0.0203
    104  CD1      186.0990  212.8650  318.8450 C.ar  186  PHE186     -0.0042
    105  CD2      184.5050  214.6130  318.8060 C.ar  186  PHE186     -0.0042
    106  CE1      185.0920  211.9460  319.0510 C.ar  186  PHE186     -0.0003
    107  CE2      183.4950  213.6990  319.0100 C.ar  186  PHE186     -0.0003
    108  CZ       183.7870  212.3640  319.1360 C.ar  186  PHE186     -0.0000
    109  N        188.8750  204.0120  319.0890 N.3   211  LEU211     -0.1231
    110  CA       189.9100  204.9090  318.6430 C.3   211  LEU211      0.1693
    111  C        189.3070  205.8820  317.6840 C.2   211  LEU211      0.2592
    112  O        188.6710  205.4850  316.7040 O.2   211  LEU211     -0.2718
    113  CB       191.0880  204.2130  317.9120 C.3   211  LEU211      0.0284
    114  CG       191.9130  203.1470  318.6820 C.3   211  LEU211      0.0019
    115  CD1      193.0370  202.5650  317.8010 C.3   211  LEU211      0.0001
    116  CD2      192.4470  203.6770  320.0210 C.3   211  LEU211      0.0001
    117  N        189.4910  207.1910  317.9810 N.am  212  ALA212     -0.1966
    118  CA       189.0640  208.2520  317.1180 C.3   212  ALA212      0.1728
    119  C        190.1270  208.3420  316.0870 C.2   212  ALA212      0.2616
    120  O        191.2400  207.8560  316.2890 O.2   212  ALA212     -0.2715
    121  CB       188.9350  209.6330  317.7880 C.3   212  ALA212      0.0334
    122  N        189.8110  208.9370  314.9340 N.am  213  GLY213     -0.1955
    123  CA       190.8170  208.8690  313.9300 C.3   213  GLY213      0.1869
    124  C        191.1960  210.2270  313.4970 C.2   213  GLY213      0.2309
    125  O        190.3730  211.0570  313.1090 O.2   213  GLY213     -0.2863
    126  N        187.3180  197.2530  312.2430 N.3   279  ASN279     -0.1240
    127  CA       186.3410  197.8300  311.3430 C.3   279  ASN279      0.1653
    128  C        187.0970  198.4010  310.1590 C.2   279  ASN279      0.2266
    129  O        188.0220  199.1980  310.3370 O.2   279  ASN279     -0.2867
    130  CB       185.5810  198.9430  312.0590 C.3   279  ASN279      0.1155
    131  CG       184.0780  198.7800  311.9710 C.2   279  ASN279      0.2627
    132  OD1      183.4510  198.1730  312.8410 O.2   279  ASN279     -0.2716
    133  ND2      183.4850  199.3260  310.9250 N.am  279  ASN279     -0.0877
@<TRIPOS>BOND
     1    33    32    2
     2    32    31    1
     3    31    30    1
     4    31    34    1
     5    34    35    1
     6    22    20    1
     7    25    26    2
     8    25    24    1
     9    20    21    1
    10    20    19    2
    11    35    37    1
    12    35    36    1
    13    15    14    2
    14    24    27    1
    15    24    23    1
    16    19    18    1
    17    27    28    1
    18    14    23   am
    19    14    13    1
    20    23    29    1
    21    52    50   am
    22    18    17    1
    23    16    13    1
    24    16    17    1
    25    28    29    1
    26    13    12    1
    27    51    50    2
    28    50    49    1
    29    48    47    2
    30    41    40    2
    31    49    46    1
    32    47    46    1
    33    47    53   am
    34    54    57    1
    35    54    53    1
    36    54    55    1
    37    40    39    1
    38    40    45   am
    39     3     4    2
    40     3     2    1
    41    42    43    1
    42    42    39    1
    43    42    44    1
    44    56    55    2
    45    46    45    1
    46    57    58    1
    47    38    39    1
    48    55    59   am
    49    11     9    1
    50     8     9    2
    51     8     7    1
    52   128   129    2
    53   128   127    1
    54     2     1    1
    55     2     5    1
    56     9    10    1
    57     7     6    1
    58    59    60    1
    59   133   131   am
    60     6     5    1
    61   127   130    1
    62   127   126    1
    63    60    61    1
    64   131   130    1
    65   131   132    2
    66    90    89    1
    67    88    89   ar
    68    88    86   ar
    69    89    87   ar
    70    86    84   ar
    71    61    62    2
    72    61    63   am
    73   125   124    2
    74    87    85   ar
    75    84    85   ar
    76    84    83    1
    77    63    64    1
    78    83    80    1
    79   124   123    1
    80    68    69    1
    81    68    67    1
    82    71    70    1
    83    97    95    1
    84   123   122    1
    85    69    70    1
    86    64    67    1
    87    64    65    1
    88    96    95    1
    89   122   119   am
    90    80    79    1
    91    80    81    1
    92    95    92    1
    93    79    74   am
    94    91    81   am
    95    91    92    1
    96    81    82    2
    97    72    65   am
    98    72    73    1
    99    65    66    2
   100    92    93    1
   101   119   120    2
   102   119   118    1
   103    74    73    1
   104    74    75    2
   105    77    76    1
   106    76    73    1
   107    76    78    1
   108   112   111    2
   109   118   121    1
   110   118   117    1
   111    93    94    2
   112   111   117   am
   113   111   110    1
   114   115   114    1
   115   113   110    1
   116   113   114    1
   117   102   103    1
   118   102    99    1
   119   110   109    1
   120   114   116    1
   121   103   105   ar
   122   103   104   ar
   123   105   107   ar
   124   104   106   ar
   125   107   108   ar
   126   106   108   ar
   127   100   101    2
   128   100    99    1
   129    99    98    1
