@<TRIPOS>MOLECULE
tmp/5ndbB00.pdb
 100 97 0 0 0
SMALL
GASTEIGER

@<TRIPOS>ATOM
      1  N        -48.1730    7.5640   10.5720 N.3    27  TYR27      -0.1241
      2  CA       -46.8090    7.5590   10.0430 C.3    27  TYR27       0.1605
      3  C        -45.7090    7.4350   11.0980 C.2    27  TYR27       0.2264
      4  O        -44.5670    7.8290   10.8440 O.2    27  TYR27      -0.2867
      5  CB       -46.5830    8.8400    9.2170 C.3    27  TYR27       0.0534
      6  CG       -47.5890    9.0080    8.1010 C.ar   27  TYR27      -0.0201
      7  CD1      -47.4400    8.3280    6.8930 C.ar   27  TYR27      -0.0009
      8  CD2      -48.7090    9.8120    8.2660 C.ar   27  TYR27      -0.0009
      9  CE1      -48.3720    8.4590    5.8710 C.ar   27  TYR27       0.0417
     10  CE2      -49.6510    9.9510    7.2490 C.ar   27  TYR27       0.0417
     11  CZ       -49.4770    9.2690    6.0530 C.ar   27  TYR27       0.1957
     12  OH       -50.4080    9.4000    5.0390 O.3    27  TYR27      -0.2866
     13  N        -50.7580   14.0230   15.2000 N.3    48  PHE48      -0.1241
     14  CA       -51.4560   14.6870   14.1090 C.3    48  PHE48       0.1605
     15  C        -52.7380   15.4380   14.5340 C.2    48  PHE48       0.2264
     16  O        -53.0760   16.4530   13.9430 O.2    48  PHE48      -0.2867
     17  CB       -51.8250   13.6660   13.0230 C.3    48  PHE48       0.0534
     18  CG       -50.8080   13.5420   11.9230 C.ar   48  PHE48      -0.0203
     19  CD1      -49.4800   13.3140   12.2080 C.ar   48  PHE48      -0.0042
     20  CD2      -51.1950   13.6680   10.5970 C.ar   48  PHE48      -0.0042
     21  CE1      -48.5450   13.1890   11.1930 C.ar   48  PHE48      -0.0003
     22  CE2      -50.2820   13.5540    9.5820 C.ar   48  PHE48      -0.0003
     23  CZ       -48.9440   13.3120    9.8790 C.ar   48  PHE48      -0.0000
     24  N        -46.3020   21.4580    9.7370 N.3    77  HIS77      -0.1241
     25  CA       -47.0930   20.2550    9.4410 C.3    77  HIS77       0.1621
     26  C        -47.8100   19.7450   10.6860 C.2    77  HIS77       0.2264
     27  O        -47.5100   20.1710   11.8010 O.2    77  HIS77      -0.2867
     28  CB       -46.2120   19.1650    8.8350 C.3    77  HIS77       0.0745
     29  CG       -45.7010   19.4940    7.4670 C.ar   77  HIS77       0.0817
     30  ND1      -44.6510   18.8260    6.8740 N.ar   77  HIS77      -0.2268
     31  CD2      -46.1020   20.4370    6.5770 C.ar   77  HIS77       0.1154
     32  CE1      -44.4240   19.3420    5.6830 C.ar   77  HIS77       0.1986
     33  NE2      -45.2950   20.3150    5.4700 N.ar   77  HIS77      -0.2212
     34  N        -47.7960   16.9450   12.3290 N.3    79  ASP79      -0.1239
     35  CA       -46.8370   16.4750   13.3260 C.3    79  ASP79       0.1674
     36  C        -45.9010   17.6420   13.6050 C.2    79  ASP79       0.2266
     37  O        -44.7920   17.7290   13.0670 O.2    79  ASP79      -0.2867
     38  CB       -46.0770   15.2020   12.8910 C.3    79  ASP79       0.1410
     39  CG       -45.3070   15.3590   11.5840 C.2    79  ASP79       0.3668
     40  OD1      -45.8040   16.0390   10.6520 O.co2  79  ASP79      -0.2456
     41  OD2      -44.1840   14.7860   11.4950 O.co2  79  ASP79      -0.2456
     42  N        -36.4570   19.7040    5.1760 N.3   164  HIS164     -0.1241
     43  CA       -37.7330   19.0160    5.0300 C.3   164  HIS164      0.1621
     44  C        -38.8420   20.0300    4.8130 C.2   164  HIS164      0.2264
     45  O        -39.7680   19.7870    4.0380 O.2   164  HIS164     -0.2867
     46  CB       -38.0420   18.1580    6.2580 C.3   164  HIS164      0.0745
     47  CG       -39.4630   17.7030    6.3310 C.ar  164  HIS164      0.0817
     48  ND1      -39.9780   16.7330    5.4990 N.ar  164  HIS164     -0.2268
     49  CD2      -40.4870   18.0930    7.1320 C.ar  164  HIS164      0.1154
     50  CE1      -41.2530   16.5370    5.7890 C.ar  164  HIS164      0.1986
     51  NE2      -41.5840   17.3470    6.7760 N.ar  164  HIS164     -0.2212
     52  N        -38.1390   16.1460   11.3060 N.3   183  CYS183     -0.1235
     53  CA       -38.3290   15.4810   10.0200 C.3   183  CYS183      0.1677
     54  C        -37.2940   15.8450    8.9860 C.2   183  CYS183      0.2270
     55  O        -37.4270   15.4650    7.8420 O.2   183  CYS183     -0.2867
     56  CB       -39.7240   15.7780    9.4810 C.3   183  CYS183      0.0956
     57  SG       -41.0000   15.3430   10.6690 S.3   183  CYS183     -0.0801
     58  N        -33.3790   12.1110    8.1020 N.3   186  LYS186     -0.1245
     59  CA       -33.8840   11.1280    7.1450 C.3   186  LYS186      0.1561
     60  C        -32.7530   10.2180    6.6960 C.2   186  LYS186      0.2260
     61  O        -32.1680   10.4330    5.6360 O.2   186  LYS186     -0.2867
     62  CB       -34.5140   11.8320    5.9280 C.3   186  LYS186      0.0271
     63  CG       -35.8600   12.5100    6.2170 C.3   186  LYS186      0.0035
     64  CD       -36.9790   11.4830    6.3880 C.3   186  LYS186      0.0206
     65  CE       -38.2510   12.0970    6.9670 C.3   186  LYS186      0.1093
     66  NZ       -38.7090   13.3000    6.2050 N.3   186  LYS186     -0.1314
     67  N        -35.7700   10.5620    1.8360 N.3   190  LEU190     -0.1231
     68  CA       -36.2210   11.8990    2.2280 C.3   190  LEU190      0.1693
     69  C        -37.7210   12.0340    2.5270 C.2   190  LEU190      0.2593
     70  O        -38.1290   12.9420    3.2590 O.2   190  LEU190     -0.2718
     71  CB       -35.8340   12.9090    1.1520 C.3   190  LEU190      0.0284
     72  CG       -34.3330   13.1150    0.9670 C.3   190  LEU190      0.0019
     73  CD1      -34.0940   14.2460   -0.0150 C.3   190  LEU190      0.0001
     74  CD2      -33.6290   13.3870    2.2980 C.3   190  LEU190      0.0001
     75  N        -38.5420   11.1700    1.9380 N.am  191  GLY191     -0.1942
     76  CA       -39.9800   11.2310    2.1550 C.3   191  GLY191      0.2014
     77  C        -40.6830   12.3230    1.3590 C.2   191  GLY191      0.2638
     78  O        -40.2930   12.6350    0.2350 O.2   191  GLY191     -0.2714
     79  N        -41.7120   12.9160    1.9560 N.am  192  TYR192     -0.1973
     80  CA       -42.5420   13.9330    1.2990 C.3   192  TYR192      0.1639
     81  C        -41.7730   15.2120    0.9290 C.2   192  TYR192      0.2290
     82  O        -41.2450   15.9070    1.8000 O.2   192  TYR192     -0.2864
     83  CB       -43.7390   14.2710    2.1990 C.3   192  TYR192      0.0560
     84  CG       -44.6340   15.3720    1.6750 C.ar  192  TYR192     -0.0198
     85  CD1      -45.4760   15.1610    0.5870 C.ar  192  TYR192     -0.0009
     86  CD2      -44.6790   16.6110    2.3060 C.ar  192  TYR192     -0.0009
     87  CE1      -46.2980   16.1740    0.1120 C.ar  192  TYR192      0.0417
     88  CE2      -45.4980   17.6210    1.8490 C.ar  192  TYR192      0.0417
     89  CZ       -46.3060   17.3960    0.7520 C.ar  192  TYR192      0.1957
     90  OH       -47.1210   18.4040    0.2980 O.3   192  TYR192     -0.2866
     91  N        -39.8250   10.6090   12.4000 N.3   220  HIS220     -0.1241
     92  CA       -40.4570    9.3170   12.1480 C.3   220  HIS220      0.1621
     93  C        -39.4190    8.2040   12.2520 C.2   220  HIS220      0.2264
     94  O        -38.2990    8.3580   11.7780 O.2   220  HIS220     -0.2867
     95  CB       -41.1170    9.2970   10.7650 C.3   220  HIS220      0.0745
     96  CG       -41.9930   10.4760   10.5120 C.ar  220  HIS220      0.0817
     97  ND1      -43.3420   10.4640   10.7720 N.ar  220  HIS220     -0.2268
     98  CD2      -41.7000   11.7290   10.0830 C.ar  220  HIS220      0.1154
     99  CE1      -43.8570   11.6430   10.4810 C.ar  220  HIS220      0.1986
    100  NE2      -42.8820   12.4330   10.0620 N.ar  220  HIS220     -0.2212
@<TRIPOS>BOND
     1    73    72    1
     2    87    85   ar
     3    87    89   ar
     4    78    77    2
     5    90    89    1
     6    85    84   ar
     7    89    88   ar
     8    81    80    1
     9    81    82    2
    10    72    71    1
    11    72    74    1
    12    71    68    1
    13    80    79    1
    14    80    83    1
    15    77    79   am
    16    77    76    1
    17    84    83    1
    18    84    86   ar
    19    67    68    1
    20    88    86   ar
    21    75    76    1
    22    75    69   am
    23    68    69    1
    24    69    70    2
    25    45    44    2
    26    44    43    1
    27    43    42    1
    28    43    46    1
    29    12    11    1
    30    33    32   ar
    31    33    31   ar
    32    48    50   ar
    33    48    47   ar
    34    61    60    2
    35    32    30   ar
    36    50    51   ar
    37     9    11   ar
    38     9     7   ar
    39    62    63    1
    40    62    59    1
    41    11    10   ar
    42    66    65    1
    43    63    64    1
    44    46    47    1
    45    47    49   ar
    46    64    65    1
    47    31    29   ar
    48    60    59    1
    49    51    49   ar
    50    30    29   ar
    51     7     6   ar
    52    59    58    1
    53    10     8   ar
    54    29    28    1
    55    55    54    2
    56     6     8   ar
    57     6     5    1
    58    28    25    1
    59    54    53    1
    60     5     2    1
    61    25    24    1
    62    25    26    1
    63    56    53    1
    64    56    57    1
    65    22    23   ar
    66    22    20   ar
    67    23    21   ar
    68    53    52    1
    69     2     1    1
    70     2     3    1
    71   100    98   ar
    72   100    99   ar
    73    98    96   ar
    74    99    97   ar
    75    96    95    1
    76    96    97   ar
    77    20    18   ar
    78    40    39   ar
    79    26    27    2
    80    95    92    1
    81     4     3    2
    82    21    19   ar
    83    41    39   ar
    84    39    38    1
    85    94    93    2
    86    18    19   ar
    87    18    17    1
    88    92    93    1
    89    92    91    1
    90    34    35    1
    91    38    35    1
    92    17    14    1
    93    37    36    2
    94    35    36    1
    95    16    15    2
    96    14    15    1
    97    14    13    1
