@<TRIPOS>MOLECULE
tmp/5nddA00.pdb
 162 161 0 0 0
SMALL
GASTEIGER

@<TRIPOS>ATOM
      1  N         27.4340    6.2040   54.5680 N.3   186  LEU186     -0.1245
      2  CA        26.1270    6.5980   54.0640 C.3   186  LEU186      0.1561
      3  C         26.0920    8.0460   53.5500 C.2   186  LEU186      0.2260
      4  O         25.6990    8.2660   52.4030 O.2   186  LEU186     -0.2867
      5  CB        25.0460    6.3910   55.1340 C.3   186  LEU186      0.0270
      6  CG        24.7530    4.9630   55.6060 C.3   186  LEU186      0.0019
      7  CD1       23.4530    4.9150   56.3940 C.3   186  LEU186      0.0001
      8  CD2       24.7040    3.9900   54.4460 C.3   186  LEU186      0.0001
      9  N         25.1740    8.9750   49.6940 N.3   190  TYR190     -0.1241
     10  CA        23.9950    9.8170   49.5130 C.3   190  TYR190      0.1605
     11  C         24.3320   11.1570   48.8620 C.2   190  TYR190      0.2264
     12  O         23.5750   11.6540   48.0260 O.2   190  TYR190     -0.2867
     13  CB        23.2990   10.0540   50.8530 C.3   190  TYR190      0.0534
     14  CG        22.5990    8.8300   51.3990 C.ar  190  TYR190     -0.0201
     15  CD1       22.0660    7.8710   50.5460 C.ar  190  TYR190     -0.0009
     16  CD2       22.4720    8.6320   52.7680 C.ar  190  TYR190     -0.0009
     17  CE1       21.4290    6.7510   51.0400 C.ar  190  TYR190      0.0417
     18  CE2       21.8360    7.5140   53.2730 C.ar  190  TYR190      0.0417
     19  CZ        21.3170    6.5760   52.4050 C.ar  190  TYR190      0.1957
     20  OH        20.6810    5.4620   52.9080 O.3   190  TYR190     -0.2866
     21  N         18.7960   14.3990   54.6150 N.3   239  LYS239     -0.1245
     22  CA        19.1200   12.9970   54.8280 C.3   239  LYS239      0.1561
     23  C         20.6060   12.8320   55.1230 C.2   239  LYS239      0.2260
     24  O         20.9910   12.0560   55.9940 O.2   239  LYS239     -0.2867
     25  CB        18.7180   12.1690   53.6100 C.3   239  LYS239      0.0271
     26  CG        18.8090   10.6750   53.8130 C.3   239  LYS239      0.0035
     27  CD        18.3020    9.9470   52.5830 C.3   239  LYS239      0.0206
     28  CE        18.3310    8.4530   52.7880 C.3   239  LYS239      0.1093
     29  NZ        17.7200    7.7330   51.6440 N.3   239  LYS239     -0.1314
     30  N         21.4940   14.2970   58.5700 N.3   242  TYR242     -0.1227
     31  CA        21.0050   13.3690   59.5850 C.3   242  TYR242      0.1736
     32  C         22.0730   12.3690   60.0310 C.2   242  TYR242      0.2595
     33  O         22.3030   12.1810   61.2270 O.2   242  TYR242     -0.2718
     34  CB        19.7760   12.6290   59.0450 C.3   242  TYR242      0.0548
     35  CG        19.3470   11.4310   59.8570 C.ar  242  TYR242     -0.0200
     36  CD1       18.7740   11.5850   61.1150 C.ar  242  TYR242     -0.0009
     37  CD2       19.4930   10.1460   59.3550 C.ar  242  TYR242     -0.0009
     38  CE1       18.3720   10.4920   61.8520 C.ar  242  TYR242      0.0417
     39  CE2       19.0940    9.0440   60.0870 C.ar  242  TYR242      0.0417
     40  CZ        18.5350    9.2240   61.3360 C.ar  242  TYR242      0.1957
     41  OH        18.1380    8.1350   62.0740 O.3   242  TYR242     -0.2866
     42  N         22.7260   11.7430   59.0570 N.am  243  HIS243     -0.1975
     43  CA        23.7130   10.7020   59.3210 C.3   243  HIS243      0.1656
     44  C         25.0440   11.2740   59.8070 C.2   243  HIS243      0.2291
     45  O         25.6880   10.7020   60.6880 O.2   243  HIS243     -0.2864
     46  CB        23.9360    9.8600   58.0630 C.3   243  HIS243      0.0771
     47  CG        22.7590    9.0180   57.6810 C.ar  243  HIS243      0.0820
     48  ND1       22.4070    7.8750   58.3660 N.ar  243  HIS243     -0.2267
     49  CD2       21.8580    9.1460   56.6770 C.ar  243  HIS243      0.1154
     50  CE1       21.3390    7.3380   57.8040 C.ar  243  HIS243      0.1986
     51  NE2       20.9860    8.0890   56.7780 N.ar  243  HIS243     -0.2212
     52  N         17.7640   13.0540   64.3540 N.3   249  TRP249     -0.1241
     53  CA        16.7890   13.8490   63.6190 C.3   249  TRP249      0.1605
     54  C         16.1780   14.9300   64.5030 C.2   249  TRP249      0.2264
     55  O         15.6410   14.6480   65.5730 O.2   249  TRP249     -0.2867
     56  CB        15.6950   12.9490   63.0420 C.3   249  TRP249      0.0550
     57  CG        14.7740   13.6610   62.1040 C.ar  249  TRP249      0.0003
     58  CD1       13.5890   14.2560   62.4150 C.ar  249  TRP249      0.0946
     59  CD2       14.9660   13.8560   60.6980 C.ar  249  TRP249      0.0152
     60  NE1       13.0270   14.8090   61.2900 N.ar  249  TRP249     -0.2442
     61  CE2       13.8530   14.5780   60.2220 C.ar  249  TRP249      0.0810
     62  CE3       15.9690   13.4890   59.7940 C.ar  249  TRP249      0.0012
     63  CZ2       13.7150   14.9400   58.8830 C.ar  249  TRP249      0.0191
     64  CZ3       15.8310   13.8510   58.4660 C.ar  249  TRP249      0.0001
     65  CH2       14.7120   14.5690   58.0230 C.ar  249  TRP249      0.0015
     66  N         10.1560   12.1020   54.3080 N.3   259  LEU259     -0.1231
     67  CA        11.3220   11.4450   53.7340 C.3   259  LEU259      0.1693
     68  C         11.1010    9.9480   53.6020 C.2   259  LEU259      0.2591
     69  O         11.4080    9.3540   52.5660 O.2   259  LEU259     -0.2718
     70  CB        12.5620   11.7120   54.5860 C.3   259  LEU259      0.0284
     71  CG        13.3950   12.9400   54.2140 C.3   259  LEU259      0.0019
     72  CD1       12.6530   14.2360   54.5320 C.3   259  LEU259      0.0001
     73  CD2       14.7540   12.8910   54.9060 C.3   259  LEU259      0.0001
     74  N         10.5680    9.3460   54.6590 N.am  260  ILE260     -0.1980
     75  CA        10.2580    7.9240   54.6540 C.3   260  ILE260      0.1595
     76  C          9.2640    7.5790   53.5520 C.2   260  ILE260      0.2287
     77  O          9.4410    6.5930   52.8330 O.2   260  ILE260     -0.2864
     78  CB         9.6970    7.4770   56.0080 C.3   260  ILE260      0.0276
     79  CG1       10.7880    7.5770   57.0720 C.3   260  ILE260      0.0022
     80  CG2        9.1450    6.0610   55.9260 C.3   260  ILE260      0.0022
     81  CD1       10.3430    7.1460   58.4340 C.3   260  ILE260      0.0001
     82  N         10.7670    7.9750   50.1040 N.3   263  PHE263     -0.1227
     83  CA        11.7960    6.9660   49.9210 C.3   263  PHE263      0.1736
     84  C         11.1850    5.6940   49.3590 C.2   263  PHE263      0.2595
     85  O         11.5870    5.2130   48.3010 O.2   263  PHE263     -0.2718
     86  CB        12.5120    6.6590   51.2330 C.3   263  PHE263      0.0547
     87  CG        13.4310    5.4800   51.1430 C.ar  263  PHE263     -0.0202
     88  CD1       13.0280    4.2340   51.5930 C.ar  263  PHE263     -0.0042
     89  CD2       14.6850    5.6100   50.5770 C.ar  263  PHE263     -0.0042
     90  CE1       13.8670    3.1450   51.4980 C.ar  263  PHE263     -0.0003
     91  CE2       15.5290    4.5280   50.4800 C.ar  263  PHE263     -0.0003
     92  CZ        15.1210    3.2910   50.9420 C.ar  263  PHE263     -0.0000
     93  N         10.2100    5.1520   50.0800 N.am  264  TYR264     -0.1976
     94  CA         9.5380    3.9280   49.6650 C.3   264  TYR264      0.1639
     95  C          8.6920    4.1550   48.4150 C.2   264  TYR264      0.2290
     96  O          8.4620    3.2280   47.6360 O.2   264  TYR264     -0.2864
     97  CB         8.6790    3.3810   50.8050 C.3   264  TYR264      0.0560
     98  CG         9.4900    2.7490   51.9070 C.ar  264  TYR264     -0.0198
     99  CD1        9.8680    3.4800   53.0240 C.ar  264  TYR264     -0.0009
    100  CD2        9.8940    1.4240   51.8230 C.ar  264  TYR264     -0.0009
    101  CE1       10.6210    2.9030   54.0360 C.ar  264  TYR264      0.0417
    102  CE2       10.6450    0.8390   52.8260 C.ar  264  TYR264      0.0417
    103  CZ        11.0050    1.5820   53.9290 C.ar  264  TYR264      0.1957
    104  OH        11.7530    0.9990   54.9260 O.3   264  TYR264     -0.2866
    105  N         15.4550    8.3840   62.9040 N.3   334  CYS334     -0.1221
    106  CA        14.3530    8.4090   61.9570 C.3   334  CYS334      0.1808
    107  C         14.3960    7.1380   61.1190 C.2   334  CYS334      0.2601
    108  O         15.4220    6.8310   60.5170 O.2   334  CYS334     -0.2717
    109  CB        14.4370    9.6530   61.0680 C.3   334  CYS334      0.0970
    110  SG        13.1390    9.8020   59.8150 S.3   334  CYS334     -0.0800
    111  N         13.2940    6.3910   61.1170 N.am  335  HIS335     -0.1961
    112  CA        13.1600    5.1530   60.3450 C.3   335  HIS335      0.1787
    113  C         14.0360    3.9980   60.8340 C.2   335  HIS335      0.2620
    114  O         13.5650    2.8630   60.9260 O.2   335  HIS335     -0.2715
    115  CB        13.4590    5.4140   58.8650 C.3   335  HIS335      0.0785
    116  CG        13.3630    4.1950   58.0060 C.ar  335  HIS335      0.0821
    117  ND1       14.4440    3.3790   57.7420 N.ar  335  HIS335     -0.2267
    118  CD2       12.3120    3.6450   57.3540 C.ar  335  HIS335      0.1154
    119  CE1       14.0630    2.3870   56.9650 C.ar  335  HIS335      0.1986
    120  NE2       12.7730    2.5210   56.7120 N.ar  335  HIS335     -0.2212
    121  N         15.3000    4.2870   61.1410 N.am  336  ASP336     -0.1971
    122  CA        16.3030    3.2530   61.4250 C.3   336  ASP336      0.1709
    123  C         15.9670    2.3890   62.6390 C.2   336  ASP336      0.2293
    124  O         16.3780    1.2300   62.7200 O.2   336  ASP336     -0.2864
    125  CB        17.6790    3.8930   61.6310 C.3   336  ASP336      0.1436
    126  CG        18.0520    4.8530   60.5170 C.2   336  ASP336      0.3671
    127  OD1       17.7170    4.5760   59.3450 O.co2 336  ASP336     -0.2456
    128  OD2       18.6780    5.8910   60.8200 O.co2 336  ASP336     -0.2456
    129  N         20.9560   -4.6590   56.1170 N.3   534  TYR534     -0.1227
    130  CA        19.7030   -3.9420   55.9040 C.3   534  TYR534      0.1736
    131  C         19.9540   -2.4670   55.6100 C.2   534  TYR534      0.2595
    132  O         19.2680   -1.8600   54.7910 O.2   534  TYR534     -0.2718
    133  CB        18.8060   -4.1090   57.1350 C.3   534  TYR534      0.0548
    134  CG        17.6600   -3.1280   57.2670 C.ar  534  TYR534     -0.0200
    135  CD1       16.4270   -3.3890   56.6870 C.ar  534  TYR534     -0.0009
    136  CD2       17.8000   -1.9610   58.0100 C.ar  534  TYR534     -0.0009
    137  CE1       15.3740   -2.5060   56.8210 C.ar  534  TYR534      0.0417
    138  CE2       16.7530   -1.0720   58.1490 C.ar  534  TYR534      0.0417
    139  CZ        15.5420   -1.3500   57.5530 C.ar  534  TYR534      0.1957
    140  OH        14.4940   -0.4680   57.6920 O.3   534  TYR534     -0.2866
    141  N         20.9530   -1.9020   56.2790 N.am  535  ILE535     -0.1980
    142  CA        21.2960   -0.4940   56.1230 C.3   535  ILE535      0.1595
    143  C         22.0310   -0.2440   54.8120 C.2   535  ILE535      0.2287
    144  O         21.7180    0.6940   54.0770 O.2   535  ILE535     -0.2864
    145  CB        22.1540   -0.0020   57.3030 C.3   535  ILE535      0.0276
    146  CG1       21.2760    0.1490   58.5470 C.3   535  ILE535      0.0022
    147  CG2       22.8430    1.3090   56.9580 C.3   535  ILE535      0.0022
    148  CD1       21.8660    1.0280   59.6110 C.3   535  ILE535      0.0001
    149  N         19.5180   -0.5780   51.9630 N.3   538  LEU538     -0.1231
    150  CA        18.6860    0.6100   51.8020 C.3   538  LEU538      0.1693
    151  C         19.4660    1.7530   51.1670 C.2   538  LEU538      0.2592
    152  O         18.9010    2.5800   50.4500 O.2   538  LEU538     -0.2718
    153  CB        18.1190    1.0590   53.1510 C.3   538  LEU538      0.0284
    154  CG        16.9960    0.2300   53.7760 C.3   538  LEU538      0.0019
    155  CD1       16.5990    0.8290   55.1150 C.3   538  LEU538      0.0001
    156  CD2       15.7950    0.1510   52.8470 C.3   538  LEU538      0.0001
    157  N         20.7640    1.7940   51.4410 N.am  539  CYS539     -0.1970
    158  CA        21.6290    2.8270   50.8910 C.3   539  CYS539      0.1712
    159  C         21.8670    2.6170   49.4010 C.2   539  CYS539      0.2296
    160  O         21.7190    3.5430   48.6030 O.2   539  CYS539     -0.2864
    161  CB        22.9640    2.8520   51.6300 C.3   539  CYS539      0.0983
    162  SG        24.1470    4.0380   50.9630 S.3   539  CYS539     -0.0798
@<TRIPOS>BOND
     1    96    95    2
     2    12    11    2
     3    85    84    2
     4    95    94    1
     5   160   159    2
     6    11    10    1
     7    84    83    1
     8    84    93   am
     9   159   158    1
    10    10     9    1
    11    10    13    1
    12    94    93    1
    13    94    97    1
    14    83    82    1
    15    83    86    1
    16   152   151    2
    17    91    89   ar
    18    91    92   ar
    19    15    17   ar
    20    15    14   ar
    21    89    87   ar
    22    97    98    1
    23    13    14    1
    24   158   157    1
    25   158   161    1
    26    92    90   ar
    27   162   161    1
    28    17    19   ar
    29    87    86    1
    30    87    88   ar
    31   151   157   am
    32   151   150    1
    33    14    16   ar
    34    90    88   ar
    35    29    28    1
    36   150   149    1
    37   150   153    1
    38   100    98   ar
    39   100   102   ar
    40    98    99   ar
    41     4     3    2
    42    19    20    1
    43    19    18   ar
    44    69    68    2
    45    27    28    1
    46    27    26    1
    47    16    18   ar
    48   102   103   ar
    49    77    76    2
    50   156   154    1
    51    99   101   ar
    52   153   154    1
    53     3     2    1
    54    76    75    1
    55    68    67    1
    56    68    74   am
    57    25    26    1
    58    25    22    1
    59    67    66    1
    60    67    70    1
    61   154   155    1
    62   103   101   ar
    63   103   104    1
    64     2     1    1
    65     2     5    1
    66   144   143    2
    67    71    72    1
    68    71    70    1
    69    71    73    1
    70     8     6    1
    71    21    22    1
    72    75    74    1
    73    75    78    1
    74   132   131    2
    75   143   142    1
    76    22    23    1
    77    23    24    2
    78     5     6    1
    79     6     7    1
    80   131   130    1
    81   131   141   am
    82   130   129    1
    83   130   133    1
    84    80    78    1
    85    78    79    1
    86   142   141    1
    87   142   145    1
    88    49    51   ar
    89    49    47   ar
    90   135   137   ar
    91   135   134   ar
    92   120   119   ar
    93   120   118   ar
    94    51    50   ar
    95   137   139   ar
    96   147   145    1
    97   119   117   ar
    98    79    81    1
    99   133   134    1
   100   134   136   ar
   101   145   146    1
   102   118   116   ar
   103   139   140    1
   104   139   138   ar
   105    47    46    1
   106    47    48   ar
   107   117   116   ar
   108    50    48   ar
   109   116   115    1
   110   136   138   ar
   111    65    64   ar
   112    65    63   ar
   113    46    43    1
   114    64    62   ar
   115   146   148    1
   116    30    31    1
   117   115   112    1
   118    63    61   ar
   119    34    31    1
   120    34    35    1
   121    42    43    1
   122    42    32   am
   123    43    44    1
   124   127   126   ar
   125    37    35   ar
   126    37    39   ar
   127    31    32    1
   128    62    59   ar
   129    44    45    2
   130   110   109    1
   131    35    36   ar
   132    32    33    2
   133    39    40   ar
   134    61    59   ar
   135    61    60   ar
   136   112   113    1
   137   112   111    1
   138   108   107    2
   139   126   128   ar
   140   126   125    1
   141    59    57   ar
   142   113   114    2
   143   113   121   am
   144   109   106    1
   145    36    38   ar
   146   111   107   am
   147   107   106    1
   148   121   122    1
   149    60    58   ar
   150    40    38   ar
   151    40    41    1
   152   122   125    1
   153   122   123    1
   154   106   105    1
   155    57    58   ar
   156    57    56    1
   157   123   124    2
   158    56    53    1
   159    53    52    1
   160    53    54    1
   161    54    55    2
