@<TRIPOS>MOLECULE
tmp/5ndfD01.pdb
 95 91 0 0 0
SMALL
GASTEIGER

@<TRIPOS>ATOM
      1  N        -31.9340  -50.8020  -74.4220 N.3   178  ILE178     -0.1231
      2  CA       -32.1080  -51.8600  -75.4020 C.3   178  ILE178      0.1692
      3  C        -30.7330  -52.1540  -75.9460 C.2   178  ILE178      0.2591
      4  O        -30.0000  -51.2460  -76.3390 O.2   178  ILE178     -0.2718
      5  CB       -33.0730  -51.4820  -76.5280 C.3   178  ILE178      0.0266
      6  CG1      -34.5030  -51.4590  -75.9700 C.3   178  ILE178      0.0019
      7  CG2      -32.9690  -52.4900  -77.6650 C.3   178  ILE178      0.0020
      8  CD1      -35.5510  -50.9700  -76.9370 C.3   178  ILE178      0.0001
      9  N        -30.3820  -53.4230  -75.9530 N.am  179  ILE179     -0.1980
     10  CA       -29.0520  -53.8220  -76.3440 C.3   179  ILE179      0.1595
     11  C        -29.1020  -54.2800  -77.8080 C.2   179  ILE179      0.2287
     12  O        -29.5960  -55.3820  -78.1080 O.2   179  ILE179     -0.2864
     13  CB       -28.5330  -54.9120  -75.4430 C.3   179  ILE179      0.0276
     14  CG1      -28.5650  -54.4430  -73.9990 C.3   179  ILE179      0.0022
     15  CG2      -27.1220  -55.3060  -75.8730 C.3   179  ILE179      0.0022
     16  CD1      -28.2810  -55.5530  -72.9880 C.3   179  ILE179      0.0001
     17  N        -27.4120  -55.4460  -81.4670 N.3   181  VAL181     -0.1245
     18  CA       -26.4810  -56.5160  -81.7840 C.3   181  VAL181      0.1561
     19  C        -25.3920  -55.9890  -82.7200 C.2   181  VAL181      0.2260
     20  O        -25.6890  -55.4450  -83.7880 O.2   181  VAL181     -0.2867
     21  CB       -27.1780  -57.6680  -82.4930 C.3   181  VAL181      0.0252
     22  CG1      -26.1750  -58.7660  -82.8900 C.3   181  VAL181      0.0019
     23  CG2      -28.2670  -58.2280  -81.6020 C.3   181  VAL181      0.0019
     24  N        -20.9150  -60.6200  -84.4970 N.3   184  MET184     -0.1245
     25  CA       -19.5570  -61.1310  -84.2540 C.3   184  MET184      0.1570
     26  C        -18.7450  -61.5350  -85.4810 C.2   184  MET184      0.2261
     27  O        -17.5350  -61.6810  -85.3770 O.2   184  MET184     -0.2867
     28  CB       -19.5930  -62.3130  -83.2860 C.3   184  MET184      0.0387
     29  CG       -20.4230  -63.5020  -83.7580 C.3   184  MET184      0.0595
     30  SD       -20.1100  -64.9440  -82.7310 S.3   184  MET184     -0.1393
     31  CE       -18.6060  -65.5780  -83.4480 C.3   184  MET184      0.0692
     32  N        -32.0450  -54.2120  -82.3120 N.3   192  ALA192     -0.1231
     33  CA       -32.7540  -55.2730  -81.6290 C.3   192  ALA192      0.1694
     34  C        -34.2410  -54.9720  -81.5500 C.2   192  ALA192      0.2592
     35  O        -34.6950  -53.8320  -81.8000 O.2   192  ALA192     -0.2718
     36  CB       -32.2300  -55.4380  -80.2230 C.3   192  ALA192      0.0304
     37  N        -35.0040  -55.9970  -81.1920 N.am  193  SER193     -0.1952
     38  CA       -36.3970  -55.7990  -80.8740 C.3   193  SER193      0.1924
     39  C        -36.5190  -55.0160  -79.5730 C.2   193  SER193      0.2314
     40  O        -35.7710  -55.2450  -78.6340 O.2   193  SER193     -0.2863
     41  CB       -37.0940  -57.1480  -80.6780 C.3   193  SER193      0.2116
     42  OG       -38.4400  -56.9270  -80.3230 O.3   193  SER193     -0.2180
     43  N        -38.9770  -56.9510  -75.9060 N.3   196  LEU196     -0.1245
     44  CA       -38.4860  -58.0200  -75.0510 C.3   196  LEU196      0.1561
     45  C        -38.3500  -57.5960  -73.6050 C.2   196  LEU196      0.2260
     46  O        -38.2860  -56.4130  -73.3070 O.2   196  LEU196     -0.2867
     47  CB       -37.1160  -58.4700  -75.5230 C.3   196  LEU196      0.0270
     48  CG       -36.9900  -58.8900  -76.9900 C.3   196  LEU196      0.0019
     49  CD1      -35.4840  -59.1020  -77.2160 C.3   196  LEU196      0.0001
     50  CD2      -37.7750  -60.1730  -77.2400 C.3   196  LEU196      0.0001
     51  N        -34.2690  -64.1330  -73.1930 N.3   208  TRP208     -0.1241
     52  CA       -35.1650  -63.0690  -73.6000 C.3   208  TRP208      0.1605
     53  C        -36.5290  -63.6700  -73.8890 C.2   208  TRP208      0.2264
     54  O        -36.6000  -64.6920  -74.5580 O.2   208  TRP208     -0.2867
     55  CB       -34.6450  -62.3550  -74.8400 C.3   208  TRP208      0.0550
     56  CG       -33.3120  -61.6920  -74.6430 C.ar  208  TRP208      0.0003
     57  CD1      -32.0860  -62.1760  -75.0290 C.ar  208  TRP208      0.0946
     58  CD2      -33.0590  -60.4240  -74.0210 C.ar  208  TRP208      0.0152
     59  NE1      -31.0960  -61.2890  -74.6750 N.ar  208  TRP208     -0.2442
     60  CE2      -31.6660  -60.2030  -74.0680 C.ar  208  TRP208      0.0810
     61  CE3      -33.8780  -59.4600  -73.4180 C.ar  208  TRP208      0.0012
     62  CZ2      -31.0720  -59.0710  -73.5430 C.ar  208  TRP208      0.0191
     63  CZ3      -33.2820  -58.3140  -72.8810 C.ar  208  TRP208      0.0001
     64  CH2      -31.8910  -58.1350  -72.9430 C.ar  208  TRP208      0.0015
     65  N        -22.3550  -59.6840  -79.2380 N.3   287  PHE287     -0.1227
     66  CA       -22.7370  -60.9840  -78.6710 C.3   287  PHE287      0.1736
     67  C        -21.8610  -62.0720  -79.2830 C.2   287  PHE287      0.2595
     68  O        -21.6040  -62.0820  -80.4890 O.2   287  PHE287     -0.2718
     69  CB       -24.2150  -61.2890  -78.9100 C.3   287  PHE287      0.0547
     70  CG       -25.1360  -60.3960  -78.1350 C.ar  287  PHE287     -0.0202
     71  CD1      -25.5490  -59.1650  -78.6620 C.ar  287  PHE287     -0.0042
     72  CD2      -25.5670  -60.7660  -76.8540 C.ar  287  PHE287     -0.0042
     73  CE1      -26.3930  -58.3310  -77.9280 C.ar  287  PHE287     -0.0003
     74  CE2      -26.4090  -59.9410  -76.1240 C.ar  287  PHE287     -0.0003
     75  CZ       -26.8100  -58.7160  -76.6560 C.ar  287  PHE287     -0.0000
     76  N        -21.3690  -62.9620  -78.4420 N.am  288  ARG288     -0.1966
     77  CA       -20.6090  -64.1070  -78.9220 C.3   288  ARG288      0.1729
     78  C        -21.0990  -65.4150  -78.3280 C.2   288  ARG288      0.2616
     79  O        -21.8180  -65.4280  -77.3330 O.2   288  ARG288     -0.2715
     80  CB       -19.0940  -63.8840  -78.7640 C.3   288  ARG288      0.0348
     81  CG       -18.6320  -63.4770  -77.3970 C.3   288  ARG288      0.0492
     82  CD       -17.2340  -62.8630  -77.4400 C.3   288  ARG288      0.2205
     83  NE       -16.9150  -62.3000  -76.1200 N.pl3 288  ARG288     -0.0865
     84  CZ       -15.8630  -61.5630  -75.8160 C.cat 288  ARG288      0.5346
     85  NH1      -14.9510  -61.2510  -76.7300 N.pl3 288  ARG288      0.1354
     86  NH2      -15.7360  -61.1380  -74.5560 N.pl3 288  ARG288      0.1354
     87  N        -20.7450  -66.5110  -79.0030 N.am  289  LYS289     -0.1977
     88  CA       -21.2140  -67.8510  -78.6180 C.3   289  LYS289      0.1596
     89  C        -20.2870  -68.5390  -77.6040 C.2   289  LYS289      0.2287
     90  O        -20.7610  -69.3650  -76.8120 O.2   289  LYS289     -0.2864
     91  CB       -21.4230  -68.7020  -79.8790 C.3   289  LYS289      0.0298
     92  CG       -22.6450  -68.2380  -80.6840 C.3   289  LYS289      0.0038
     93  CD       -22.8420  -68.9830  -81.9940 C.3   289  LYS289      0.0206
     94  CE       -22.0600  -68.3810  -83.1740 C.3   289  LYS289      0.1093
     95  NZ       -22.7250  -67.2000  -83.8050 N.3   289  LYS289     -0.1314
@<TRIPOS>BOND
     1    26    27    2
     2    26    25    1
     3    24    25    1
     4    25    28    1
     5    95    94    1
     6    20    19    2
     7    29    28    1
     8    29    30    1
     9    31    30    1
    10    94    93    1
    11    22    21    1
    12    19    18    1
    13    21    18    1
    14    21    23    1
    15    32    33    1
    16    93    92    1
    17    35    34    2
    18    18    17    1
    19    33    34    1
    20    33    36    1
    21    34    37   am
    22    37    38    1
    23    38    41    1
    24    38    39    1
    25    92    91    1
    26    41    42    1
    27    68    67    2
    28    91    88    1
    29    39    40    2
    30    67    66    1
    31    67    76   am
    32    65    66    1
    33    87    88    1
    34    87    78   am
    35    77    80    1
    36    77    76    1
    37    77    78    1
    38    69    66    1
    39    69    70    1
    40    80    81    1
    41    71    70   ar
    42    71    73   ar
    43    88    89    1
    44    78    79    2
    45    70    72   ar
    46    12    11    2
    47    73    75   ar
    48    11    10    1
    49     7     5    1
    50    89    90    2
    51    82    81    1
    52    82    83    1
    53    50    48    1
    54    49    48    1
    55    48    47    1
    56     8     6    1
    57    72    74   ar
    58    85    84    1
    59    75    74   ar
    60     5     6    1
    61     5     2    1
    62    10     9    1
    63    10    13    1
    64     4     3    2
    65    83    84    2
    66     9     3   am
    67     3     2    1
    68    43    44    1
    69    15    13    1
    70    84    86    1
    71    47    44    1
    72    13    14    1
    73     2     1    1
    74    44    45    1
    75    57    59   ar
    76    57    56   ar
    77    55    56    1
    78    55    52    1
    79    59    60   ar
    80    56    58   ar
    81    54    53    2
    82    60    58   ar
    83    60    62   ar
    84    58    61   ar
    85    14    16    1
    86    53    52    1
    87    45    46    2
    88    52    51    1
    89    62    64   ar
    90    61    63   ar
    91    64    63   ar
