@<TRIPOS>MOLECULE
tmp/5ndtA01.pdb
 114 106 0 0 0
SMALL
GASTEIGER

@<TRIPOS>ATOM
      1  N        140.5190    4.8650   -3.5860 N.3    12  LEU12      -0.1245
      2  CA       141.0360    3.5520   -3.9600 C.3    12  LEU12       0.1561
      3  C        139.9980    2.7410   -4.7220 C.2    12  LEU12       0.2260
      4  O        140.3440    1.9740   -5.6280 O.2    12  LEU12      -0.2867
      5  CB       141.4990    2.7900   -2.7170 C.3    12  LEU12       0.0270
      6  CG       142.6350    3.4430   -1.9300 C.3    12  LEU12       0.0019
      7  CD1      143.0620    2.5580   -0.7680 C.3    12  LEU12       0.0001
      8  CD2      143.8030    3.7150   -2.8560 C.3    12  LEU12       0.0001
      9  N        130.5990   -1.9810   -1.2580 N.3    17  PHE17      -0.1241
     10  CA       131.2470   -1.8210    0.0410 C.3    17  PHE17       0.1605
     11  C        131.3450   -0.3660    0.5010 C.2    17  PHE17       0.2264
     12  O        131.7920   -0.1210    1.6230 O.2    17  PHE17      -0.2867
     13  CB       132.6510   -2.4410    0.0030 C.3    17  PHE17       0.0534
     14  CG       133.4950   -1.9610   -1.1520 C.ar   17  PHE17      -0.0203
     15  CD1      133.5080   -2.6540   -2.3550 C.ar   17  PHE17      -0.0042
     16  CD2      134.2730   -0.8190   -1.0350 C.ar   17  PHE17      -0.0042
     17  CE1      134.2780   -2.2150   -3.4210 C.ar   17  PHE17      -0.0003
     18  CE2      135.0460   -0.3740   -2.0970 C.ar   17  PHE17      -0.0003
     19  CZ       135.0510   -1.0750   -3.2900 C.ar   17  PHE17      -0.0000
     20  N        136.2150    4.0420   -0.6460 N.3    20  VAL20      -0.1245
     21  CA       137.4310    3.8120    0.1320 C.3    20  VAL20       0.1561
     22  C        138.5180    4.7420   -0.3840 C.2    20  VAL20       0.2260
     23  O        138.8430    4.7200   -1.5790 O.2    20  VAL20      -0.2867
     24  CB       137.8800    2.3440    0.0570 C.3    20  VAL20       0.0252
     25  CG1      139.1240    2.1050    0.9110 C.3    20  VAL20       0.0019
     26  CG2      136.7350    1.4210    0.4650 C.3    20  VAL20       0.0019
     27  N        143.4250    3.0730    5.1640 N.3    33  ALA33      -0.1245
     28  CA       142.3340    3.1570    4.2060 C.3    33  ALA33       0.1562
     29  C        141.1210    3.7250    4.9300 C.2    33  ALA33       0.2260
     30  O        140.8100    3.3030    6.0450 O.2    33  ALA33      -0.2867
     31  CB       142.0120    1.7850    3.6020 C.3    33  ALA33       0.0290
     32  N        137.2050    4.2180    4.7800 N.3    35  LYS35      -0.1245
     33  CA       136.0290    3.6630    4.1300 C.3    35  LYS35       0.1561
     34  C        134.7820    4.3490    4.6630 C.2    35  LYS35       0.2260
     35  O        134.5640    4.4090    5.8820 O.2    35  LYS35      -0.2867
     36  CB       135.9430    2.1490    4.3600 C.3    35  LYS35       0.0271
     37  CG       134.7510    1.4560    3.7160 C.3    35  LYS35       0.0035
     38  CD       134.6990   -0.0020    4.1900 C.3    35  LYS35       0.0206
     39  CE       134.3380   -0.9750    3.0820 C.3    35  LYS35       0.1093
     40  NZ       134.3630   -2.3990    3.5490 N.3    35  LYS35      -0.1314
     41  N        142.5710   -7.6850    7.4920 N.3    72  ILE72      -0.1245
     42  CA       142.8160   -6.2450    7.5510 C.3    72  ILE72       0.1561
     43  C        142.0960   -5.6890    8.7730 C.2    72  ILE72       0.2260
     44  O        140.8770   -5.8280    8.9060 O.2    72  ILE72      -0.2867
     45  CB       142.3630   -5.5440    6.2640 C.3    72  ILE72       0.0252
     46  CG1      143.3640   -5.7930    5.1330 C.3    72  ILE72       0.0019
     47  CG2      142.2280   -4.0250    6.4700 C.3    72  ILE72       0.0019
     48  CD1      144.6880   -5.1310    5.3230 C.3    72  ILE72       0.0001
     49  N        140.9940    1.7340    8.4340 N.3    88  LEU88      -0.1231
     50  CA       141.5180    0.3850    8.2890 C.3    88  LEU88       0.1693
     51  C        143.0020    0.4250    7.9480 C.2    88  LEU88       0.2592
     52  O        143.4970    1.4050    7.3900 O.2    88  LEU88      -0.2718
     53  CB       140.7590   -0.3770    7.1980 C.3    88  LEU88       0.0284
     54  CG       139.2460   -0.4710    7.4200 C.3    88  LEU88       0.0019
     55  CD1      138.5170   -0.3520    6.0940 C.3    88  LEU88       0.0001
     56  CD2      138.8520   -1.7560    8.1370 C.3    88  LEU88       0.0001
     57  N        143.7050   -0.6530    8.3010 N.am   89  GLU89      -0.1966
     58  CA       145.0800   -0.8420    7.8530 C.3    89  GLU89       0.1733
     59  C        145.1710   -0.6980    6.3430 C.2    89  GLU89       0.2616
     60  O        144.2460   -1.0580    5.6080 O.2    89  GLU89      -0.2715
     61  CB       145.5940   -2.2310    8.2340 C.3    89  GLU89       0.0429
     62  CG       145.9350   -2.4250    9.6900 C.3    89  GLU89       0.1163
     63  CD       146.4920   -3.8190    9.9580 C.2    89  GLU89       0.3649
     64  OE1      145.8780   -4.8140    9.5010 O.co2  89  GLU89      -0.2457
     65  OE2      147.5520   -3.9190   10.6140 O.co2  89  GLU89      -0.2457
     66  N        146.3100   -0.1910    5.8770 N.am   90  ARG90      -0.1964
     67  CA       146.6150   -0.1500    4.4480 C.3    90  ARG90       0.1714
     68  C        148.0590   -0.5870    4.2520 C.2    90  ARG90       0.2458
     69  O        148.9860    0.2240    4.3920 O.2    90  ARG90      -0.2730
     70  CB       146.3850    1.2320    3.8480 C.3    90  ARG90       0.0347
     71  CG       146.7660    1.2980    2.3750 C.3    90  ARG90       0.0492
     72  CD       146.2930    2.5880    1.7350 C.3    90  ARG90       0.2205
     73  NE       146.9180    3.7740    2.3150 N.pl3  90  ARG90      -0.0865
     74  CZ       148.1160    4.2240    1.9560 C.cat  90  ARG90       0.5346
     75  NH1      148.8200    3.5690    1.0400 N.pl3  90  ARG90       0.1354
     76  NH2      148.6130    5.3200    2.5130 N.pl3  90  ARG90       0.1354
     77  N        148.2900   -1.8600    3.9720 N.am   91  PRO91      -0.2727
     78  CA       149.6350   -2.2940    3.6000 C.3    91  PRO91       0.1402
     79  C        150.0670   -1.6640    2.2870 C.2    91  PRO91       0.2269
     80  O        149.2560   -1.2590    1.4490 O.2    91  PRO91      -0.2865
     81  CB       149.5030   -3.8180    3.4750 C.3    91  PRO91       0.0296
     82  CG       148.0220   -4.0900    3.4090 C.3    91  PRO91       0.0237
     83  CD       147.3760   -2.9900    4.1830 C.3    91  PRO91       0.0939
     84  N        150.6240   -3.0110   -2.3410 N.3    94  VAL94      -0.1245
     85  CA       149.5290   -3.9710   -2.2710 C.3    94  VAL94       0.1561
     86  C        148.9170   -4.1530   -3.6550 C.2    94  VAL94       0.2260
     87  O        148.9170   -3.2350   -4.4810 O.2    94  VAL94      -0.2867
     88  CB       148.4500   -3.5120   -1.2610 C.3    94  VAL94       0.0252
     89  CG1      147.7070   -2.2850   -1.7940 C.3    94  VAL94       0.0019
     90  CG2      147.4860   -4.6280   -0.9670 C.3    94  VAL94       0.0019
     91  N        143.7830   -9.0800   -0.2790 N.3   142  LEU142     -0.1245
     92  CA       144.9120   -8.2290   -0.6320 C.3   142  LEU142      0.1561
     93  C        146.2170   -8.9870   -0.4360 C.2   142  LEU142      0.2260
     94  O        146.3590   -9.7710    0.5110 O.2   142  LEU142     -0.2867
     95  CB       144.9290   -6.9560    0.2130 C.3   142  LEU142      0.0270
     96  CG       143.7120   -6.0310    0.1520 C.3   142  LEU142      0.0019
     97  CD1      143.9610   -4.7520    0.9540 C.3   142  LEU142      0.0001
     98  CD2      143.3640   -5.7030   -1.2730 C.3   142  LEU142      0.0001
     99  N        139.6130   -8.8030    3.2900 N.3   153  ILE153     -0.1231
    100  CA       138.9200   -7.5250    3.4350 C.3   153  ILE153      0.1692
    101  C        137.4260   -7.6900    3.1980 C.2   153  ILE153      0.2592
    102  O        136.9420   -8.7340    2.7620 O.2   153  ILE153     -0.2718
    103  CB       139.4610   -6.4270    2.4910 C.3   153  ILE153      0.0266
    104  CG1      139.3280   -6.8570    1.0240 C.3   153  ILE153      0.0019
    105  CG2      140.8980   -6.0900    2.8240 C.3   153  ILE153      0.0020
    106  CD1      139.7490   -5.7540    0.0400 C.3   153  ILE153      0.0001
    107  N        136.7070   -6.6020    3.4820 N.am  154  ASP154     -0.1974
    108  CA       135.3040   -6.3820    3.1590 C.3   154  ASP154      0.1709
    109  C        134.3730   -7.3690    3.8600 C.2   154  ASP154      0.2293
    110  O        133.8700   -8.3200    3.2480 O.2   154  ASP154     -0.2864
    111  CB       135.0830   -6.4040    1.6420 C.3   154  ASP154      0.1436
    112  CG       133.6980   -5.9140    1.2620 C.2   154  ASP154      0.3671
    113  OD1      133.3170   -6.0520    0.0770 O.co2 154  ASP154     -0.2456
    114  OD2      132.9850   -5.4000    2.1640 O.co2 154  ASP154     -0.2456
@<TRIPOS>BOND
     1     4     3    2
     2     3     2    1
     3    87    86    2
     4     2     1    1
     5     2     5    1
     6    86    85    1
     7    17    19   ar
     8    17    15   ar
     9    19    18   ar
    10     8     6    1
    11     5     6    1
    12    15    14   ar
    13    84    85    1
    14    85    88    1
    15    18    16   ar
    16     6     7    1
    17    89    88    1
    18    23    22    2
    19    98    96    1
    20    88    90    1
    21     9    10    1
    22    14    16   ar
    23    14    13    1
    24    20    21    1
    25    92    93    1
    26    92    91    1
    27    92    95    1
    28    93    94    2
    29    22    21    1
    30    13    10    1
    31   106   104    1
    32    10    11    1
    33    24    21    1
    34    24    26    1
    35    24    25    1
    36   113   112   ar
    37    96    95    1
    38    96    97    1
    39    11    12    2
    40   104   103    1
    41    75    74    1
    42   112   111    1
    43   112   114   ar
    44    80    79    2
    45   111   108    1
    46    72    73    1
    47    72    71    1
    48    74    73    2
    49    74    76    1
    50    79    78    1
    51    71    70    1
    52   103   105    1
    53   103   100    1
    54   102   101    2
    55    39    40    1
    56    39    38    1
    57   108   107    1
    58   108   109    1
    59   101   100    1
    60   101   107   am
    61   110   109    2
    62    99   100    1
    63    82    81    1
    64    82    83    1
    65    81    78    1
    66    78    77    1
    67    31    28    1
    68    37    38    1
    69    37    36    1
    70    70    67    1
    71    77    83    1
    72    77    68   am
    73    33    36    1
    74    33    34    1
    75    33    32    1
    76    28    29    1
    77    28    27    1
    78    68    69    2
    79    68    67    1
    80    67    66    1
    81    34    35    2
    82    29    30    2
    83    46    48    1
    84    46    45    1
    85    60    59    2
    86    66    59   am
    87    55    54    1
    88    45    47    1
    89    45    42    1
    90    59    58    1
    91    53    54    1
    92    53    50    1
    93    52    51    2
    94    54    56    1
    95    41    42    1
    96    42    43    1
    97    58    61    1
    98    58    57    1
    99    51    50    1
   100    51    57   am
   101    61    62    1
   102    50    49    1
   103    43    44    2
   104    64    63   ar
   105    62    63    1
   106    63    65   ar
