@<TRIPOS>MOLECULE
tmp/5nduA00.pdb
 132 128 0 0 0
SMALL
GASTEIGER

@<TRIPOS>ATOM
      1  N        -13.7630  -15.0900   24.2070 N.3    12  MET12      -0.1245
      2  CA       -13.0810  -14.9710   25.4870 C.3    12  MET12       0.1570
      3  C        -13.8820  -14.0420   26.3890 C.2    12  MET12       0.2261
      4  O        -14.6000  -13.1390   25.9310 O.2    12  MET12      -0.2867
      5  CB       -11.6710  -14.4060   25.3420 C.3    12  MET12       0.0387
      6  CG       -10.8490  -14.9160   24.1590 C.3    12  MET12       0.0595
      7  SD       -10.5890  -16.6780   24.2630 S.3    12  MET12      -0.1393
      8  CE        -9.5520  -16.8770   25.7030 C.3    12  MET12       0.0692
      9  N        -13.2460  -11.8590   30.2600 N.3    14  TYR14      -0.1241
     10  CA       -12.1370  -11.4600   31.1180 C.3    14  TYR14       0.1605
     11  C        -12.3660  -11.8670   32.5700 C.2    14  TYR14       0.2264
     12  O        -13.4000  -11.5450   33.1620 O.2    14  TYR14      -0.2867
     13  CB       -11.9330   -9.9280   31.0620 C.3    14  TYR14       0.0534
     14  CG       -10.5920   -9.5140   31.5740 C.ar   14  TYR14      -0.0201
     15  CD1       -9.4030   -9.7740   30.8780 C.ar   14  TYR14      -0.0009
     16  CD2      -10.5300   -8.8250   32.7660 C.ar   14  TYR14      -0.0009
     17  CE1       -8.2040   -9.3640   31.4060 C.ar   14  TYR14       0.0417
     18  CE2       -9.3400   -8.4090   33.2640 C.ar   14  TYR14       0.0417
     19  CZ        -8.1980   -8.6940   32.5830 C.ar   14  TYR14       0.1957
     20  OH        -7.0510   -8.2060   33.1950 O.3    14  TYR14      -0.2866
     21  N         -6.9000  -12.0100   33.4200 N.3    20  LYS20      -0.1231
     22  CA        -6.5750  -12.7480   32.1970 C.3    20  LYS20       0.1693
     23  C         -7.8410  -13.1350   31.4520 C.2    20  LYS20       0.2592
     24  O         -8.9270  -13.2000   32.0270 O.2    20  LYS20      -0.2718
     25  CB        -5.6950  -13.9480   32.4680 C.3    20  LYS20       0.0285
     26  CG        -6.3770  -15.0240   33.1690 C.3    20  LYS20       0.0035
     27  CD        -5.4490  -16.2430   33.3080 C.3    20  LYS20       0.0206
     28  CE        -4.2930  -15.9290   34.2110 C.3    20  LYS20       0.1093
     29  NZ        -3.6560  -17.1690   34.7850 N.3    20  LYS20      -0.1314
     30  N         -7.6870  -13.3650   30.1410 N.am   21  TRP21      -0.1976
     31  CA        -8.7890  -13.8110   29.3330 C.3    21  TRP21       0.1640
     32  C         -8.9520  -15.3080   29.5370 C.2    21  TRP21       0.2290
     33  O         -7.9540  -16.0330   29.6560 O.2    21  TRP21      -0.2864
     34  CB        -8.5080  -13.5810   27.8540 C.3    21  TRP21       0.0576
     35  CG        -8.4950  -12.1200   27.4890 C.ar   21  TRP21       0.0006
     36  CD1       -7.3960  -11.3310   27.2440 C.ar   21  TRP21       0.0946
     37  CD2       -9.6240  -11.2850   27.3450 C.ar   21  TRP21       0.0152
     38  NE1       -7.7760  -10.0510   26.9750 N.ar   21  TRP21      -0.2442
     39  CE2       -9.1380   -9.9800   27.0190 C.ar   21  TRP21       0.0810
     40  CE3      -11.0000  -11.4670   27.4680 C.ar   21  TRP21       0.0012
     41  CZ2       -9.9610   -8.9140   26.8620 C.ar   21  TRP21       0.0191
     42  CZ3      -11.8290  -10.3700   27.2370 C.ar   21  TRP21       0.0001
     43  CH2      -11.2960   -9.1100   26.9270 C.ar   21  TRP21       0.0015
     44  N        -19.9180    0.8370   23.4010 N.3    67  LYS67      -0.1245
     45  CA       -18.5850    1.1590   22.9140 C.3    67  LYS67       0.1561
     46  C        -17.8760   -0.1240   22.5110 C.2    67  LYS67       0.2260
     47  O        -17.5270   -0.9530   23.3510 O.2    67  LYS67      -0.2867
     48  CB       -17.8300    1.9630   23.9900 C.3    67  LYS67       0.0271
     49  CG       -16.4970    2.4850   23.5410 C.3    67  LYS67       0.0035
     50  CD       -15.7810    3.3730   24.5780 C.3    67  LYS67       0.0206
     51  CE       -16.5190    4.6790   24.8820 C.3    67  LYS67       0.1093
     52  NZ       -15.6170    5.6520   25.5460 N.3    67  LYS67      -0.1314
     53  N        -14.7090   -1.8110   20.9110 N.3    69  ASN69      -0.1240
     54  CA       -13.3030   -1.4630   20.7920 C.3    69  ASN69       0.1653
     55  C        -12.6160   -2.4280   19.8360 C.2    69  ASN69       0.2266
     56  O        -12.5380   -3.6230   20.1150 O.2    69  ASN69      -0.2867
     57  CB       -12.6170   -1.5120   22.1610 C.3    69  ASN69       0.1155
     58  CG       -11.2580   -0.8970   22.1160 C.2    69  ASN69       0.2627
     59  OD1      -11.1310    0.2950   21.7460 O.2    69  ASN69      -0.2716
     60  ND2      -10.2390   -1.6390   22.4780 N.am   69  ASN69      -0.0877
     61  N         -9.3710   -3.3590   19.2210 N.3    71  ALA71      -0.1231
     62  CA        -8.0240   -3.2730   19.7860 C.3    71  ALA71       0.1694
     63  C         -6.9490   -3.5460   18.7480 C.2    71  ALA71       0.2592
     64  O         -5.9590   -2.8330   18.6620 O.2    71  ALA71      -0.2718
     65  CB        -7.8980   -4.2240   20.9790 C.3    71  ALA71       0.0304
     66  N         -7.1260   -4.6260   17.9630 N.am   72  THR72      -0.1953
     67  CA        -6.2530   -4.9590   16.8390 C.3    72  THR72       0.1897
     68  C         -7.1550   -5.3330   15.6730 C.2    72  THR72       0.2313
     69  O         -8.3770   -5.3670   15.8090 O.2    72  THR72      -0.2863
     70  CB        -5.3210   -6.1320   17.1620 C.3    72  THR72       0.1794
     71  OG1       -6.1200   -7.2850   17.1460 O.3    72  THR72      -0.2208
     72  CG2       -4.7030   -5.9670   18.5570 C.3    72  THR72       0.0378
     73  N         -8.6410   -8.6910   17.1200 N.3    75  PHE75      -0.1241
     74  CA        -9.1080   -8.8210   18.4970 C.3    75  PHE75       0.1605
     75  C         -9.9630   -7.6190   18.8590 C.2    75  PHE75       0.2264
     76  O         -9.4390   -6.4950   18.9250 O.2    75  PHE75      -0.2867
     77  CB        -7.9660   -9.0080   19.5120 C.3    75  PHE75       0.0534
     78  CG        -8.4270   -9.4360   20.8850 C.ar   75  PHE75      -0.0203
     79  CD1       -8.6330  -10.7470   21.1710 C.ar   75  PHE75      -0.0042
     80  CD2       -8.6490   -8.4960   21.9090 C.ar   75  PHE75      -0.0042
     81  CE1       -9.0540  -11.1710   22.4340 C.ar   75  PHE75      -0.0003
     82  CE2       -9.0670   -8.9170   23.1710 C.ar   75  PHE75      -0.0003
     83  CZ        -9.2540  -10.2320   23.4380 C.ar   75  PHE75      -0.0000
     84  N        -13.3990   -6.0990   21.3850 N.3    77  GLN77      -0.1231
     85  CA       -13.8680   -6.2570   22.7520 C.3    77  GLN77       0.1698
     86  C        -15.0090   -5.2970   23.0360 C.2    77  GLN77       0.2592
     87  O        -15.1330   -4.2340   22.4190 O.2    77  GLN77      -0.2718
     88  CB       -12.7010   -6.0790   23.7270 C.3    77  GLN77       0.0381
     89  CG       -11.8610   -4.9110   23.5020 C.3    77  GLN77       0.0905
     90  CD       -10.5680   -4.9570   24.3110 C.2    77  GLN77       0.2608
     91  OE1       -9.6190   -4.2800   23.9710 O.2    77  GLN77      -0.2717
     92  NE2      -10.5320   -5.7700   25.3780 N.am   77  GLN77      -0.0878
     93  N        -15.8010   -5.6370   24.0470 N.am   78  TRP78      -0.1962
     94  CA       -16.7970   -4.7200   24.5710 C.3    78  TRP78       0.1771
     95  C        -17.1750   -5.1780   25.9580 C.2    78  TRP78       0.2619
     96  O        -16.7910   -6.2480   26.3870 O.2    78  TRP78      -0.2715
     97  CB       -18.0350   -4.6440   23.6910 C.3    78  TRP78       0.0590
     98  CG       -18.8860   -5.9120   23.6580 C.ar   78  TRP78       0.0006
     99  CD1      -20.0120   -6.1570   24.4200 C.ar   78  TRP78       0.0946
    100  CD2      -18.7280   -7.0200   22.7970 C.ar   78  TRP78       0.0152
    101  NE1      -20.5210   -7.3750   24.1200 N.ar   78  TRP78      -0.2442
    102  CE2      -19.7740   -7.9330   23.1160 C.ar   78  TRP78       0.0810
    103  CE3      -17.8070   -7.3320   21.7840 C.ar   78  TRP78       0.0012
    104  CZ2      -19.9000   -9.1730   22.4930 C.ar   78  TRP78       0.0191
    105  CZ3      -17.9230   -8.5660   21.1480 C.ar   78  TRP78       0.0001
    106  CH2      -18.9880   -9.4740   21.5090 C.ar   78  TRP78       0.0015
    107  N        -17.8660   -4.3300   26.6940 N.am   79  ARG79      -0.1977
    108  CA       -18.1900   -4.6700   28.0740 C.3    79  ARG79       0.1597
    109  C        -19.6590   -4.3680   28.3380 C.2    79  ARG79       0.2287
    110  O        -20.2040   -3.4240   27.7300 O.2    79  ARG79      -0.2864
    111  CB       -17.2230   -3.9500   29.0140 C.3    79  ARG79       0.0334
    112  CG       -17.0880   -2.4490   28.7980 C.3    79  ARG79       0.0492
    113  CD       -16.2360   -1.7700   29.8300 C.3    79  ARG79       0.2205
    114  NE       -15.5000   -0.6290   29.2770 N.pl3  79  ARG79      -0.0865
    115  CZ       -16.0740    0.4390   28.7390 C.cat  79  ARG79       0.5346
    116  NH1      -15.3140    1.4300   28.2960 N.pl3  79  ARG79       0.1354
    117  NH2      -17.4100    0.5440   28.6670 N.pl3  79  ARG79       0.1354
    118  N        -16.6150   -8.4510   30.5560 N.3    84  VAL84      -0.1245
    119  CA       -15.9220   -7.9400   29.3750 C.3    84  VAL84       0.1561
    120  C        -15.7470   -9.1000   28.4350 C.2    84  VAL84       0.2260
    121  O        -15.2450  -10.1650   28.8320 O.2    84  VAL84      -0.2867
    122  CB       -14.5390   -7.3750   29.6990 C.3    84  VAL84       0.0252
    123  CG1      -13.8650   -6.7990   28.5080 C.3    84  VAL84       0.0019
    124  CG2      -14.7230   -6.3130   30.8250 C.3    84  VAL84       0.0019
    125  N        -11.4540  -13.2260   19.5130 N.3    88  ASN88      -0.1240
    126  CA       -10.1780  -13.3870   18.8320 C.3    88  ASN88       0.1653
    127  C        -10.5010  -14.0440   17.5000 C.2    88  ASN88       0.2266
    128  O        -10.7600  -15.2470   17.4130 O.2    88  ASN88      -0.2867
    129  CB        -9.2610  -14.2620   19.6660 C.3    88  ASN88       0.1155
    130  CG        -7.7750  -14.1590   19.2810 C.2    88  ASN88       0.2627
    131  OD1       -6.9270  -14.6810   20.0140 O.2    88  ASN88      -0.2716
    132  ND2       -7.4540  -13.5050   18.2060 N.am   88  ASN88      -0.0877
@<TRIPOS>BOND
     1    68    69    2
     2    68    67    1
     3    67    70    1
     4    67    66    1
     5    73    74    1
     6    71    70    1
     7    70    72    1
     8   128   127    2
     9   127   126    1
    10    66    63   am
    11   132   130   am
    12    74    75    1
    13    74    77    1
    14    64    63    2
    15    63    62    1
    16   126   125    1
    17   126   129    1
    18    75    76    2
    19    61    62    1
    20   130   129    1
    21   130   131    2
    22    77    78    1
    23    62    65    1
    24    55    56    2
    25    55    54    1
    26    54    53    1
    27    54    57    1
    28    78    79   ar
    29    78    80   ar
    30   105   106   ar
    31   105   103   ar
    32    79    81   ar
    33    84    85    1
    34   106   104   ar
    35    59    58    2
    36   103   100   ar
    37    80    82   ar
    38    58    57    1
    39    58    60   am
    40    87    86    2
    41    81    83   ar
    42   104   102   ar
    43    46    45    1
    44    46    47    2
    45    85    86    1
    46    85    88    1
    47   100   102   ar
    48   100    98   ar
    49    45    44    1
    50    45    48    1
    51    86    93   am
    52   102   101   ar
    53    82    83   ar
    54    89    88    1
    55    89    90    1
    56    49    48    1
    57    49    50    1
    58    98    97    1
    59    98    99   ar
    60    97    94    1
    61    91    90    2
    62    93    94    1
    63   101    99   ar
    64     6     7    1
    65     6     5    1
    66     1     2    1
    67     7     8    1
    68    90    92   am
    69    94    95    1
    70    50    51    1
    71    51    52    1
    72     5     2    1
    73     2     3    1
    74     4     3    2
    75    95    96    2
    76    95   107   am
    77   107   108    1
    78    41    43   ar
    79    41    39   ar
    80    43    42   ar
    81    38    39   ar
    82    38    36   ar
    83    39    37   ar
    84    42    40   ar
    85    36    35   ar
    86    37    40   ar
    87    37    35   ar
    88    35    34    1
    89   110   109    2
    90    34    31    1
    91   108   109    1
    92   108   111    1
    93   116   115    1
    94   120   121    2
    95   120   119    1
    96   123   122    1
    97   117   115    1
    98   115   114    2
    99   112   111    1
   100   112   113    1
   101   114   113    1
   102    31    32    1
   103    31    30    1
   104   119   122    1
   105   119   118    1
   106    32    33    2
   107   122   124    1
   108    30    23   am
   109     9    10    1
   110    15    17   ar
   111    15    14   ar
   112    13    10    1
   113    13    14    1
   114    10    11    1
   115    17    19   ar
   116    23    24    2
   117    23    22    1
   118    14    16   ar
   119    22    25    1
   120    22    21    1
   121    25    26    1
   122    11    12    2
   123    19    20    1
   124    19    18   ar
   125    16    18   ar
   126    26    27    1
   127    27    28    1
   128    28    29    1
