@<TRIPOS>MOLECULE
tmp/5ndxA01.pdb
 136 134 0 0 0
SMALL
GASTEIGER

@<TRIPOS>ATOM
      1  N         11.9480   65.9870   -9.9230 N.3    19  ASN19      -0.1225
      2  CA        11.8140   66.4990   -8.5870 C.3    19  ASN19       0.1785
      3  C         13.0790   67.2090   -8.1410 C.2    19  ASN19       0.2597
      4  O         14.2050   66.7510   -8.4240 O.2    19  ASN19      -0.2718
      5  CB        11.5250   65.3720   -7.6310 C.3    19  ASN19       0.1169
      6  CG        10.1430   64.7700   -7.8560 C.2    19  ASN19       0.2627
      7  OD1        9.9860   63.7250   -8.5630 O.2    19  ASN19      -0.2716
      8  ND2        9.1840   65.3380   -7.2100 N.am   19  ASN19      -0.0877
      9  N         12.8740   68.3060   -7.4220 N.am   20  ARG20      -0.1966
     10  CA        13.9660   69.0230   -6.7600 C.3    20  ARG20       0.1729
     11  C         14.1300   68.3600   -5.4200 C.2    20  ARG20       0.2616
     12  O         13.5170   68.7460   -4.4380 O.2    20  ARG20      -0.2715
     13  CB        13.6630   70.5280   -6.6490 C.3    20  ARG20       0.0348
     14  CG        13.4000   71.1690   -8.0390 C.3    20  ARG20       0.0492
     15  CD        12.9030   72.6140   -7.9690 C.3    20  ARG20       0.2205
     16  NE        11.7240   72.6030   -7.1380 N.pl3  20  ARG20      -0.0865
     17  CZ        11.3920   73.4860   -6.2260 C.cat  20  ARG20       0.5346
     18  NH1       12.0830   74.6100   -6.0040 N.pl3  20  ARG20       0.1354
     19  NH2       10.3530   73.1930   -5.5000 N.pl3  20  ARG20       0.1354
     20  N         14.9810   67.3330   -5.3870 N.am   21  PHE21      -0.1974
     21  CA        15.0690   66.4250   -4.2750 C.3    21  PHE21       0.1639
     22  C         16.1080   66.7860   -3.1840 C.2    21  PHE21       0.2290
     23  O         16.3610   65.9780   -2.2910 O.2    21  PHE21      -0.2864
     24  CB        15.3240   65.0010   -4.8250 C.3    21  PHE21       0.0560
     25  CG        16.6230   64.8550   -5.6060 C.ar   21  PHE21      -0.0200
     26  CD1       17.8320   64.7090   -4.9560 C.ar   21  PHE21      -0.0042
     27  CD2       16.6240   64.8990   -6.9870 C.ar   21  PHE21      -0.0042
     28  CE1       19.0240   64.6120   -5.6810 C.ar   21  PHE21      -0.0003
     29  CE2       17.8090   64.8060   -7.7330 C.ar   21  PHE21      -0.0003
     30  CZ        18.9940   64.6470   -7.0800 C.ar   21  PHE21      -0.0000
     31  N         16.2480   69.7500   -1.2500 N.3    23  ARG23      -0.1245
     32  CA        15.7970   71.0350   -0.6850 C.3    23  ARG23       0.1563
     33  C         15.8310   70.9890    0.8390 C.2    23  ARG23       0.2260
     34  O         14.8190   71.0820    1.5350 O.2    23  ARG23      -0.2867
     35  CB        14.4470   71.4560   -1.2370 C.3    23  ARG23       0.0307
     36  CG        14.4570   71.8710   -2.7160 C.3    23  ARG23       0.0489
     37  CD        13.2400   71.4090   -3.5350 C.3    23  ARG23       0.2205
     38  NE        12.1660   71.8690   -2.9580 N.pl3  23  ARG23      -0.0865
     39  CZ        10.9780   71.3840   -2.6850 C.cat  23  ARG23       0.5346
     40  NH1       10.3590   70.2780   -3.1160 N.pl3  23  ARG23       0.1354
     41  NH2       10.3290   72.3000   -2.0060 N.pl3  23  ARG23       0.1354
     42  N         13.5030   73.7440    2.0410 N.3    54  LYS54      -0.1231
     43  CA        12.2310   73.4570    2.7110 C.3    54  LYS54       0.1693
     44  C         12.3950   72.8180    4.0880 C.2    54  LYS54       0.2592
     45  O         11.5840   73.1100    4.9670 O.2    54  LYS54      -0.2718
     46  CB        11.4030   72.5650    1.8250 C.3    54  LYS54       0.0285
     47  CG        10.0110   72.2250    2.3260 C.3    54  LYS54       0.0035
     48  CD         9.2550   71.4810    1.2360 C.3    54  LYS54       0.0206
     49  CE         7.8440   71.0800    1.7310 C.3    54  LYS54       0.1093
     50  NZ         7.1010   70.5390    0.5440 N.3    54  LYS54      -0.1314
     51  N         13.4070   71.9540    4.2570 N.am   55  PHE55      -0.1976
     52  CA        13.6350   71.2040    5.4890 C.3    55  PHE55       0.1639
     53  C         14.9300   71.5900    6.1800 C.2    55  PHE55       0.2290
     54  O         15.9380   71.8260    5.5110 O.2    55  PHE55      -0.2864
     55  CB        13.6150   69.7010    5.2060 C.3    55  PHE55       0.0560
     56  CG        12.2860   69.2060    4.6910 C.ar   55  PHE55      -0.0200
     57  CD1       11.2530   68.9270    5.5800 C.ar   55  PHE55      -0.0042
     58  CD2       12.0720   69.0510    3.3740 C.ar   55  PHE55      -0.0042
     59  CE1       10.0140   68.5090    5.1240 C.ar   55  PHE55      -0.0003
     60  CE2       10.8310   68.6230    2.8900 C.ar   55  PHE55      -0.0003
     61  CZ         9.7920   68.3430    3.7840 C.ar   55  PHE55      -0.0000
     62  N         13.1410   68.4240    9.6240 N.3    93  PHE93      -0.1241
     63  CA        13.4850   67.0350    9.3870 C.3    93  PHE93       0.1605
     64  C         13.9560   66.6440   10.7880 C.2    93  PHE93       0.2264
     65  O         15.0960   66.8950   11.1600 O.2    93  PHE93      -0.2867
     66  CB        14.5620   66.9350    8.2990 C.3    93  PHE93       0.0534
     67  CG        14.9440   65.5440    7.8890 C.ar   93  PHE93      -0.0203
     68  CD1       14.3020   64.4110    8.3610 C.ar   93  PHE93      -0.0042
     69  CD2       16.0110   65.3740    6.9980 C.ar   93  PHE93      -0.0042
     70  CE1       14.7070   63.1400    7.9710 C.ar   93  PHE93      -0.0003
     71  CE2       16.4200   64.1090    6.6180 C.ar   93  PHE93      -0.0003
     72  CZ        15.7490   62.9850    7.0800 C.ar   93  PHE93      -0.0000
     73  N          9.0500   65.2420    8.5540 N.3   140  TYR140     -0.1241
     74  CA         9.5880   63.8740    8.5820 C.3   140  TYR140      0.1605
     75  C         10.2950   63.7050    9.9080 C.2   140  TYR140      0.2264
     76  O         10.9380   64.6200   10.3670 O.2   140  TYR140     -0.2867
     77  CB        10.5200   63.5700    7.3990 C.3   140  TYR140      0.0534
     78  CG         9.7910   63.6230    6.0920 C.ar  140  TYR140     -0.0201
     79  CD1        9.5800   64.8250    5.4480 C.ar  140  TYR140     -0.0009
     80  CD2        9.2480   62.4780    5.5310 C.ar  140  TYR140     -0.0009
     81  CE1        8.8310   64.8850    4.2690 C.ar  140  TYR140      0.0417
     82  CE2        8.5250   62.5180    4.3210 C.ar  140  TYR140      0.0417
     83  CZ         8.2840   63.7180    3.7090 C.ar  140  TYR140      0.1957
     84  OH         7.5450   63.7590    2.5090 O.3   140  TYR140     -0.2866
     85  N          9.2910   54.0620    7.0620 N.3   215  ASP215     -0.1225
     86  CA         8.7640   54.7230    5.8800 C.3   215  ASP215      0.1805
     87  C          9.8630   55.1360    4.9170 C.2   215  ASP215      0.2597
     88  O          9.5720   55.4010    3.7820 O.2   215  ASP215     -0.2718
     89  CB         7.9590   55.9230    6.3010 C.3   215  ASP215      0.1424
     90  CG         6.7380   55.5280    7.1490 C.2   215  ASP215      0.3668
     91  OD1        5.9730   54.6920    6.6740 O.co2 215  ASP215     -0.2456
     92  OD2        6.5680   56.0090    8.2810 O.co2 215  ASP215     -0.2456
     93  N         11.1120   55.1840    5.3710 N.am  216  TYR216     -0.1976
     94  CA        12.2530   55.5240    4.4790 C.3   216  TYR216      0.1639
     95  C         13.5380   55.0640    5.1370 C.2   216  TYR216      0.2290
     96  O         13.6190   54.9550    6.3610 O.2   216  TYR216     -0.2864
     97  CB        12.2670   57.0460    4.1230 C.3   216  TYR216      0.0560
     98  CG        12.5390   57.9090    5.3190 C.ar  216  TYR216     -0.0198
     99  CD1       13.8330   58.1570    5.7270 C.ar  216  TYR216     -0.0009
    100  CD2       11.5000   58.4100    6.1050 C.ar  216  TYR216     -0.0009
    101  CE1       14.1070   58.9260    6.8670 C.ar  216  TYR216      0.0417
    102  CE2       11.7550   59.1580    7.2400 C.ar  216  TYR216      0.0417
    103  CZ        13.0740   59.4320    7.6120 C.ar  216  TYR216      0.1957
    104  OH        13.3850   60.1610    8.7540 O.3   216  TYR216     -0.2866
    105  N         11.6500   54.6340    0.0270 N.3   260  PRO260     -0.2116
    106  CA        12.3800   55.8730   -0.2110 C.3   260  PRO260      0.1372
    107  C         13.7670   55.8450    0.4450 C.2   260  PRO260      0.2244
    108  O         13.9090   55.4030    1.5860 O.2   260  PRO260     -0.2868
    109  CB        11.4510   56.9540    0.3730 C.3   260  PRO260      0.0268
    110  CG        10.0470   56.3640    0.2560 C.3   260  PRO260      0.0207
    111  CD        10.2390   54.8650    0.4300 C.3   260  PRO260      0.0892
    112  N         17.1740   58.0550    1.4560 N.3   262  VAL262     -0.1245
    113  CA        17.5130   59.4240    1.8140 C.3   262  VAL262      0.1561
    114  C         18.9940   59.4750    2.1940 C.2   262  VAL262      0.2260
    115  O         19.4550   58.6250    2.9630 O.2   262  VAL262     -0.2867
    116  CB        16.6360   59.8490    2.9830 C.3   262  VAL262      0.0252
    117  CG1       17.1080   61.1730    3.5800 C.3   262  VAL262      0.0019
    118  CG2       15.1800   59.9130    2.5140 C.3   262  VAL262      0.0019
    119  N         14.9910   59.7140   -2.8660 N.3   308  THR308     -0.1203
    120  CA        13.9550   60.7000   -2.5850 C.3   308  THR308      0.1994
    121  C         14.4080   62.0500   -2.0230 C.2   308  THR308      0.2617
    122  O         13.7020   63.0600   -2.2350 O.2   308  THR308     -0.2717
    123  CB        12.9190   60.0420   -1.6230 C.3   308  THR308      0.1784
    124  OG1       12.3290   58.9250   -2.3060 O.3   308  THR308     -0.2211
    125  CG2       11.8050   60.9760   -1.2360 C.3   308  THR308      0.0376
    126  N         15.4800   62.0800   -1.2360 N.am  309  PHE309     -0.1975
    127  CA        15.9230   63.3170   -0.6250 C.3   309  PHE309      0.1639
    128  C         17.4290   63.2890   -0.3620 C.2   309  PHE309      0.2290
    129  O         17.9860   62.2730    0.0060 O.2   309  PHE309     -0.2864
    130  CB        15.1500   63.5330    0.6560 C.3   309  PHE309      0.0560
    131  CG        15.3420   64.8590    1.3090 C.ar  309  PHE309     -0.0200
    132  CD1       15.0040   66.0090    0.6650 C.ar  309  PHE309     -0.0042
    133  CD2       15.7450   64.9310    2.6170 C.ar  309  PHE309     -0.0042
    134  CE1       15.1100   67.2380    1.2840 C.ar  309  PHE309     -0.0003
    135  CE2       15.8670   66.1500    3.2630 C.ar  309  PHE309     -0.0003
    136  CZ        15.5720   67.3180    2.5750 C.ar  309  PHE309     -0.0000
@<TRIPOS>BOND
     1     1     2    1
     2     2     3    1
     3     2     5    1
     4     7     6    2
     5     4     3    2
     6     3     9   am
     7    14    15    1
     8    14    13    1
     9    15    16    1
    10     6     5    1
    11     6     8   am
    12    29    30   ar
    13    29    27   ar
    14     9    10    1
    15    16    17    2
    16    30    28   ar
    17    27    25   ar
    18    10    13    1
    19    10    11    1
    20    17    18    1
    21    17    19    1
    22    28    26   ar
    23    25    26   ar
    24    25    24    1
    25    11    20   am
    26    11    12    2
    27    20    21    1
    28    24    21    1
    29    21    22    1
    30    37    38    1
    31    37    36    1
    32    22    23    2
    33    40    39    1
    34    38    39    2
    35   119   120    1
    36    36    35    1
    37    39    41    1
    38   120   121    1
    39   120   123    1
    40   124   123    1
    41   122   121    2
    42   121   126   am
    43   123   125    1
    44    31    32    1
    45    35    32    1
    46   126   127    1
    47    32    33    1
    48   127   128    1
    49   127   130    1
    50   128   129    2
    51   106   105    1
    52   106   109    1
    53   106   107    1
    54   105   111    1
    55   110   109    1
    56   110   111    1
    57   107   108    2
    58    50    49    1
    59   130   131    1
    60   132   134   ar
    61   132   131   ar
    62    33    34    2
    63    48    49    1
    64    48    47    1
    65   134   136   ar
    66   131   133   ar
    67   112   113    1
    68   113   114    1
    69   113   116    1
    70    46    47    1
    71    46    43    1
    72    42    43    1
    73   114   115    2
    74    84    83    1
    75   118   116    1
    76   136   135   ar
    77   133   135   ar
    78    43    44    1
    79    60    58   ar
    80    60    61   ar
    81   116   117    1
    82    58    56   ar
    83    83    81   ar
    84    83    82   ar
    85    88    87    2
    86    61    59   ar
    87    44    51   am
    88    44    45    2
    89    97    94    1
    90    97    98    1
    91    51    52    1
    92    81    79   ar
    93    82    80   ar
    94    94    95    1
    95    94    93    1
    96    56    55    1
    97    56    57   ar
    98    87    93   am
    99    87    86    1
   100    59    57   ar
   101    95    96    2
   102    55    52    1
   103    98    99   ar
   104    98   100   ar
   105    79    78   ar
   106    52    53    1
   107    54    53    2
   108    80    78   ar
   109    99   101   ar
   110    86    89    1
   111    86    85    1
   112    78    77    1
   113   100   102   ar
   114    89    90    1
   115    71    69   ar
   116    71    72   ar
   117    91    90   ar
   118   101   103   ar
   119    69    67   ar
   120    72    70   ar
   121    90    92   ar
   122   102   103   ar
   123    77    74    1
   124   103   104    1
   125    67    66    1
   126    67    68   ar
   127    70    68   ar
   128    66    63    1
   129    73    74    1
   130    74    75    1
   131    63    62    1
   132    63    64    1
   133    75    76    2
   134    64    65    2
