@<TRIPOS>MOLECULE
tmp/5ndxA00.pdb
 150 144 0 0 0
SMALL
GASTEIGER

@<TRIPOS>ATOM
      1  N         22.2800   71.6960   10.5850 N.3    27  PHE27      -0.1227
      2  CA        23.3520   72.1390   11.4770 C.3    27  PHE27       0.1736
      3  C         23.1550   71.5250   12.8780 C.2    27  PHE27       0.2596
      4  O         22.1840   70.7930   13.1260 O.2    27  PHE27      -0.2718
      5  CB        23.4440   73.6630   11.5610 C.3    27  PHE27       0.0547
      6  CG        22.2090   74.3230   12.1050 C.ar   27  PHE27      -0.0202
      7  CD1       22.0160   74.4670   13.4730 C.ar   27  PHE27      -0.0042
      8  CD2       21.2440   74.7860   11.2580 C.ar   27  PHE27      -0.0042
      9  CE1       20.8760   75.0530   13.9720 C.ar   27  PHE27      -0.0003
     10  CE2       20.1050   75.4040   11.7470 C.ar   27  PHE27      -0.0003
     11  CZ        19.9210   75.5180   13.1190 C.ar   27  PHE27      -0.0000
     12  N         24.1330   71.8110   13.7430 N.am   28  SER28      -0.1952
     13  CA        24.1760   71.3710   15.1120 C.3    28  SER28       0.1924
     14  C         24.8820   72.4800   15.9100 C.2    28  SER28       0.2314
     15  O         25.7610   73.1330   15.3620 O.2    28  SER28      -0.2863
     16  CB        24.9580   70.0710   15.2170 C.3    28  SER28       0.2116
     17  OG        24.7200   69.5280   16.4810 O.3    28  SER28      -0.2180
     18  N         20.3260   68.9300   14.8380 N.3    59  HIS59      -0.1241
     19  CA        20.6840   67.9260   15.8480 C.3    59  HIS59       0.1621
     20  C         20.3160   68.3500   17.2670 C.2    59  HIS59       0.2264
     21  O         20.4650   69.5230   17.6290 O.2    59  HIS59      -0.2867
     22  CB        22.2050   67.6730   15.9020 C.3    59  HIS59       0.0745
     23  CG        22.7660   66.8500   14.7930 C.ar   59  HIS59       0.0817
     24  ND1       21.9920   66.0890   13.9430 N.ar   59  HIS59      -0.2268
     25  CD2       24.0600   66.5950   14.4550 C.ar   59  HIS59       0.1154
     26  CE1       22.7730   65.4330   13.1010 C.ar   59  HIS59       0.1986
     27  NE2       24.0330   65.7340   13.3830 N.ar   59  HIS59      -0.2212
     28  N         20.8370   60.6560   15.3700 N.3   145  ASN145     -0.1225
     29  CA        21.9010   60.7160   14.4060 C.3   145  ASN145      0.1785
     30  C         22.9740   59.6540   14.7180 C.2   145  ASN145      0.2597
     31  O         23.1150   59.1700   15.8790 O.2   145  ASN145     -0.2718
     32  CB        22.5080   62.1200   14.4080 C.3   145  ASN145      0.1169
     33  CG        23.5290   62.3110   13.3060 C.2   145  ASN145      0.2627
     34  OD1       23.2280   62.1020   12.1100 O.2   145  ASN145     -0.2716
     35  ND2       24.7710   62.6550   13.7070 N.am  145  ASN145     -0.0877
     36  N         23.6860   59.2870   13.6500 N.am  146  GLN146     -0.1979
     37  CA        24.6510   58.2350   13.6730 C.3   146  GLN146      0.1601
     38  C         24.0050   57.1200   14.4870 C.2   146  GLN146      0.2287
     39  O         23.0180   56.5170   14.0410 O.2   146  GLN146     -0.2864
     40  CB        26.0030   58.7220   14.2330 C.3   146  GLN146      0.0394
     41  CG        26.9850   59.2110   13.1730 C.3   146  GLN146      0.0908
     42  CD        27.1720   60.7300   13.1230 C.2   146  GLN146      0.2608
     43  OE1       27.4650   61.3690   14.1380 O.2   146  GLN146     -0.2717
     44  NE2       27.0380   61.3040   11.9330 N.am  146  GLN146     -0.0878
     45  N         28.8060   55.7380   15.8410 N.3   149  SER149     -0.1217
     46  CA        29.9840   56.5750   16.1520 C.3   149  SER149      0.1889
     47  C         30.1580   56.7100   17.6950 C.2   149  SER149      0.2288
     48  O         30.9100   55.9370   18.2960 O.2   149  SER149     -0.2866
     49  CB        29.8820   57.9320   15.4470 C.3   149  SER149      0.2089
     50  OG        30.0510   57.7760   14.0460 O.3   149  SER149     -0.2183
     51  N         26.4160   56.8050    9.7100 N.3   185  ALA185     -0.1231
     52  CA        27.5320   57.4940    9.0680 C.3   185  ALA185      0.1694
     53  C         28.4240   56.5790    8.2180 C.2   185  ALA185      0.2591
     54  O         29.0670   57.0490    7.2920 O.2   185  ALA185     -0.2718
     55  CB        28.3890   58.1940   10.1100 C.3   185  ALA185      0.0304
     56  N         28.4860   55.3030    8.5580 N.am  186  ARG186     -0.1980
     57  CA        29.3520   54.3800    7.8630 C.3   186  ARG186      0.1597
     58  C         28.5840   53.3440    7.0880 C.2   186  ARG186      0.2287
     59  O         27.6220   52.7460    7.5880 O.2   186  ARG186     -0.2864
     60  CB        30.3050   53.7220    8.8680 C.3   186  ARG186      0.0334
     61  CG        31.3280   54.7400    9.3770 C.3   186  ARG186      0.0492
     62  CD        32.1640   54.2060   10.5280 C.3   186  ARG186      0.2205
     63  NE        31.2690   53.7990   11.6000 N.pl3 186  ARG186     -0.0865
     64  CZ        31.6040   53.0420   12.6440 C.cat 186  ARG186      0.5346
     65  NH1       32.8570   52.6090   12.8130 N.pl3 186  ARG186      0.1354
     66  NH2       30.6700   52.7300   13.5460 N.pl3 186  ARG186      0.1354
     67  N         24.1190   58.7000    5.7800 N.3   220  HIS220     -0.1241
     68  CA        24.9870   59.7700    5.3100 C.3   220  HIS220      0.1621
     69  C         26.0930   59.1660    4.4430 C.2   220  HIS220      0.2264
     70  O         26.7750   58.2370    4.8570 O.2   220  HIS220     -0.2867
     71  CB        25.8380   60.5390    6.3480 C.3   220  HIS220      0.0745
     72  CG        25.2720   60.6810    7.6890 C.ar  220  HIS220      0.0817
     73  ND1       23.9250   60.7760    7.9270 N.ar  220  HIS220     -0.2268
     74  CD2       25.8850   60.8280    8.8810 C.ar  220  HIS220      0.1154
     75  CE1       23.7190   60.9900    9.2060 C.ar  220  HIS220      0.1986
     76  NE2       24.8860   60.9730    9.8150 N.ar  220  HIS220     -0.2212
     77  N         29.2890   60.9260    2.1540 N.3   222  LYS222     -0.1245
     78  CA        30.0340   62.1320    1.8460 C.3   222  LYS222      0.1561
     79  C         31.1700   61.8660    0.9050 C.2   222  LYS222      0.2260
     80  O         31.6090   60.7320    0.7190 O.2   222  LYS222     -0.2867
     81  CB        30.5370   62.7660    3.1410 C.3   222  LYS222      0.0271
     82  CG        29.3880   62.9950    4.1080 C.3   222  LYS222      0.0035
     83  CD        29.6620   64.0950    5.1230 C.3   222  LYS222      0.0206
     84  CE        28.6300   64.1760    6.2720 C.3   222  LYS222      0.1093
     85  NZ        28.5020   65.5660    6.8400 N.3   222  LYS222     -0.1314
     86  N         22.8490   63.6780    4.9430 N.3   265  GLU265     -0.1245
     87  CA        24.0000   64.5570    5.1330 C.3   265  GLU265      0.1567
     88  C         24.9830   64.3690    4.0100 C.2   265  GLU265      0.2260
     89  O         25.9620   63.6160    4.1390 O.2   265  GLU265     -0.2867
     90  CB        24.7410   64.2420    6.4400 C.3   265  GLU265      0.0388
     91  CG        24.2940   65.0170    7.6230 C.3   265  GLU265      0.1160
     92  CD        25.1390   64.7130    8.8440 C.2   265  GLU265      0.3649
     93  OE1       26.3860   64.8470    8.7640 O.co2 265  GLU265     -0.2457
     94  OE2       24.5490   64.3870    9.8870 O.co2 265  GLU265     -0.2457
     95  N         33.7650   65.5360    4.7740 N.3   270  LEU270     -0.1231
     96  CA        33.5630   65.4690    6.2360 C.3   270  LEU270      0.1693
     97  C         34.2730   66.5930    6.9810 C.2   270  LEU270      0.2593
     98  O         35.2990   67.1130    6.5180 O.2   270  LEU270     -0.2718
     99  CB        33.9970   64.1050    6.8110 C.3   270  LEU270      0.0284
    100  CG        32.9970   62.9970    6.5050 C.3   270  LEU270      0.0019
    101  CD1       33.6330   61.6840    6.0020 C.3   270  LEU270      0.0001
    102  CD2       32.0440   62.7570    7.7140 C.3   270  LEU270      0.0001
    103  N         33.7080   66.9780    8.1270 N.am  271  GLY271     -0.1942
    104  CA        34.3760   67.9630    9.0500 C.3   271  GLY271      0.2014
    105  C         34.1560   69.4440    8.6860 C.2   271  GLY271      0.2638
    106  O         35.0420   70.1080    8.1580 O.2   271  GLY271     -0.2714
    107  N         32.9650   69.9470    8.9970 N.am  272  TRP272     -0.1973
    108  CA        32.5290   71.2800    8.5670 C.3   272  TRP272      0.1640
    109  C         33.4510   72.4020    8.9850 C.2   272  TRP272      0.2290
    110  O         33.5610   73.4400    8.2890 O.2   272  TRP272     -0.2864
    111  CB        31.1230   71.5860    9.1260 C.3   272  TRP272      0.0576
    112  CG        31.0520   71.9710   10.5760 C.ar  272  TRP272      0.0006
    113  CD1       30.8030   71.1340   11.6340 C.ar  272  TRP272      0.0946
    114  CD2       31.2080   73.2730   11.1350 C.ar  272  TRP272      0.0152
    115  NE1       30.7980   71.8430   12.8010 N.ar  272  TRP272     -0.2442
    116  CE2       31.0460   73.1530   12.5270 C.ar  272  TRP272      0.0810
    117  CE3       31.4790   74.5260   10.5980 C.ar  272  TRP272      0.0012
    118  CZ2       31.1390   74.2370   13.3830 C.ar  272  TRP272      0.0191
    119  CZ3       31.5820   75.6110   11.4440 C.ar  272  TRP272      0.0001
    120  CH2       31.4200   75.4680   12.8190 C.ar  272  TRP272      0.0015
    121  N         24.5550   69.5800    4.7640 N.3   313  ASP313     -0.1239
    122  CA        24.6730   69.8830    6.1870 C.3   313  ASP313      0.1674
    123  C         25.5870   71.0890    6.3730 C.2   313  ASP313      0.2266
    124  O         26.6600   71.0030    6.9510 O.2   313  ASP313     -0.2867
    125  CB        25.1580   68.6400    6.8840 C.3   313  ASP313      0.1410
    126  CG        24.9360   68.6970    8.3540 C.2   313  ASP313      0.3668
    127  OD1       23.7860   68.9400    8.7720 O.co2 313  ASP313     -0.2456
    128  OD2       25.9170   68.4810    9.0690 O.co2 313  ASP313     -0.2456
    129  N         25.8060   75.5060    9.3090 N.3   316  PHE316     -0.1241
    130  CA        26.6560   75.8350   10.4590 C.3   316  PHE316      0.1605
    131  C         27.0670   77.2780   10.2920 C.2   316  PHE316      0.2264
    132  O         27.0000   77.8340    9.1640 O.2   316  PHE316     -0.2867
    133  CB        27.9120   74.9580   10.5260 C.3   316  PHE316      0.0534
    134  CG        27.6270   73.5350   10.8400 C.ar  316  PHE316     -0.0203
    135  CD1       27.5400   73.1150   12.1490 C.ar  316  PHE316     -0.0042
    136  CD2       27.4270   72.5900    9.8130 C.ar  316  PHE316     -0.0042
    137  CE1       27.2540   71.7850   12.4490 C.ar  316  PHE316     -0.0003
    138  CE2       27.1520   71.2520   10.1200 C.ar  316  PHE316     -0.0003
    139  CZ        27.0520   70.8500   11.4320 C.ar  316  PHE316     -0.0000
    140  N         32.3900   74.8570    6.0520 N.3   323  ARG323     -0.1245
    141  CA        31.2190   74.3950    5.2930 C.3   323  ARG323      0.1563
    142  C         29.9700   75.0560    5.8270 C.2   323  ARG323      0.2260
    143  O         29.2030   74.5010    6.6730 O.2   323  ARG323     -0.2867
    144  CB        31.0810   72.9110    5.3590 C.3   323  ARG323      0.0307
    145  CG        29.9360   72.3150    4.5110 C.3   323  ARG323      0.0489
    146  CD        30.1340   70.7730    4.5030 C.3   323  ARG323      0.2205
    147  NE        29.4940   70.3210    5.5810 N.pl3 323  ARG323     -0.0865
    148  CZ        29.7860   69.3350    6.4090 C.cat 323  ARG323      0.5346
    149  NH1       30.7600   68.4420    6.3100 N.pl3 323  ARG323      0.1354
    150  NH2       28.9290   69.2720    7.3800 N.pl3 323  ARG323      0.1354
@<TRIPOS>BOND
     1    80    79    2
     2    79    78    1
     3    78    77    1
     4    78    81    1
     5    81    82    1
     6    88    89    2
     7    88    87    1
     8    82    83    1
     9    69    70    2
    10    69    68    1
    11   146   145    1
    12   146   147    1
    13   145   144    1
    14   121   122    1
    15    95    96    1
    16    86    87    1
    17    83    84    1
    18    87    90    1
    19   141   144    1
    20   141   142    1
    21   141   140    1
    22    68    67    1
    23    68    71    1
    24   147   148    2
    25   142   143    2
    26   101   100    1
    27   122   123    1
    28   122   125    1
    29    96    99    1
    30    96    97    1
    31    84    85    1
    32   149   148    1
    33    71    72    1
    34   123   124    2
    35   148   150    1
    36    90    91    1
    37   100    99    1
    38   100   102    1
    39    98    97    2
    40   125   126    1
    41    97   103   am
    42    58    59    2
    43    58    57    1
    44    54    53    2
    45    91    92    1
    46    72    73   ar
    47    72    74   ar
    48    57    56    1
    49    57    60    1
    50    73    75   ar
    51   103   104    1
    52   106   105    2
    53    53    56   am
    54    53    52    1
    55   110   109    2
    56   126   127   ar
    57   126   128   ar
    58   108   109    1
    59   108   107    1
    60   108   111    1
    61   105   107   am
    62   105   104    1
    63    93    92   ar
    64    92    94   ar
    65    60    61    1
    66    74    76   ar
    67    52    51    1
    68    52    55    1
    69   111   112    1
    70   132   131    2
    71    75    76   ar
    72   129   130    1
    73    61    62    1
    74   136   138   ar
    75   136   134   ar
    76   138   139   ar
    77   131   130    1
    78   130   133    1
    79   133   134    1
    80    62    63    1
    81   112   114   ar
    82   112   113   ar
    83     1     2    1
    84   117   114   ar
    85   117   119   ar
    86   134   135   ar
    87   114   116   ar
    88     8    10   ar
    89     8     6   ar
    90   139   137   ar
    91   119   120   ar
    92     2     5    1
    93     2     3    1
    94     5     6    1
    95    63    64    2
    96   113   115   ar
    97    10    11   ar
    98    44    42   am
    99     6     7   ar
   100    34    33    2
   101   135   137   ar
   102   116   115   ar
   103   116   118   ar
   104    64    65    1
   105    64    66    1
   106   120   118   ar
   107     3     4    2
   108     3    12   am
   109    26    27   ar
   110    26    24   ar
   111    11     9   ar
   112    42    41    1
   113    42    43    2
   114    41    40    1
   115    33    35   am
   116    33    32    1
   117    27    25   ar
   118     7     9   ar
   119    36    37    1
   120    36    30   am
   121    37    40    1
   122    37    38    1
   123    12    13    1
   124    24    23   ar
   125    39    38    2
   126    50    49    1
   127    29    32    1
   128    29    30    1
   129    29    28    1
   130    25    23   ar
   131    30    31    2
   132    23    22    1
   133    18    19    1
   134    13    16    1
   135    13    14    1
   136    16    17    1
   137    15    14    2
   138    49    46    1
   139    45    46    1
   140    19    22    1
   141    19    20    1
   142    46    47    1
   143    20    21    2
   144    47    48    2
