@<TRIPOS>MOLECULE
tmp/5ndzA00.pdb
 123 118 0 0 0
SMALL
GASTEIGER

@<TRIPOS>ATOM
      1  N          9.5330   12.3060   37.8210 N.3   216  LEU216     -0.1231
      2  CA         8.8250   13.0610   38.8500 C.3   216  LEU216      0.1693
      3  C          8.9210   12.3560   40.1970 C.2   216  LEU216      0.2591
      4  O          9.1470   13.0010   41.2280 O.2   216  LEU216     -0.2718
      5  CB         7.3670   13.2710   38.4450 C.3   216  LEU216      0.0284
      6  CG         6.5160   14.0690   39.4330 C.3   216  LEU216      0.0019
      7  CD1        7.1450   15.4280   39.7000 C.3   216  LEU216      0.0001
      8  CD2        5.0980   14.2290   38.9100 C.3   216  LEU216      0.0001
      9  N          8.7320   11.0330   40.2090 N.am  217  ALA217     -0.1980
     10  CA         8.9270   10.2630   41.4330 C.3   217  ALA217      0.1597
     11  C         10.3400   10.4510   41.9690 C.2   217  ALA217      0.2287
     12  O         10.5440   10.5520   43.1850 O.2   217  ALA217     -0.2864
     13  CB         8.6340    8.7840   41.1800 C.3   217  ALA217      0.0319
     14  N         10.5420   14.1750   43.4130 N.3   220  LEU220     -0.1245
     15  CA         9.7660   14.3540   44.6330 C.3   220  LEU220      0.1561
     16  C         10.3970   13.6780   45.8440 C.2   220  LEU220      0.2260
     17  O          9.9050   13.8670   46.9610 O.2   220  LEU220     -0.2867
     18  CB         8.3520   13.8120   44.4250 C.3   220  LEU220      0.0270
     19  CG         7.4190   14.6550   43.5550 C.3   220  LEU220      0.0019
     20  CD1        5.9800   14.2050   43.7350 C.3   220  LEU220      0.0001
     21  CD2        7.5680   16.1310   43.8820 C.3   220  LEU220      0.0001
     22  N          7.4950    9.8960   50.9460 N.3   251  PHE251     -0.1241
     23  CA         8.0540   10.1000   49.6170 C.3   251  PHE251      0.1605
     24  C          9.1880    9.1310   49.3100 C.2   251  PHE251      0.2264
     25  O          9.5000    8.9140   48.1340 O.2   251  PHE251     -0.2867
     26  CB         8.5930   11.5290   49.5170 C.3   251  PHE251      0.0534
     27  CG         7.5370   12.5780   49.3190 C.ar  251  PHE251     -0.0203
     28  CD1        6.8600   12.6950   48.1220 C.ar  251  PHE251     -0.0042
     29  CD2        7.2150   13.4440   50.3470 C.ar  251  PHE251     -0.0042
     30  CE1        5.8930   13.6740   47.9520 C.ar  251  PHE251     -0.0003
     31  CE2        6.2460   14.4150   50.1820 C.ar  251  PHE251     -0.0003
     32  CZ         5.5840   14.5280   48.9840 C.ar  251  PHE251     -0.0000
     33  N          7.2450    5.8810   48.4210 N.3   254  ALA254     -0.1231
     34  CA         6.4860    6.2070   47.2190 C.3   254  ALA254      0.1694
     35  C          7.3340    6.0300   45.9620 C.2   254  ALA254      0.2592
     36  O          6.9610    5.2900   45.0440 O.2   254  ALA254     -0.2718
     37  CB         5.9530    7.6330   47.3280 C.3   254  ALA254      0.0304
     38  N          8.4860    6.7080   45.9050 N.am  255  ASN255     -0.1974
     39  CA         9.3840    6.5610   44.7610 C.3   255  ASN255      0.1688
     40  C          9.8680    5.1240   44.6330 C.2   255  ASN255      0.2292
     41  O         10.1070    4.6410   43.5210 O.2   255  ASN255     -0.2864
     42  CB        10.5630    7.5290   44.8770 C.3   255  ASN255      0.1181
     43  CG        11.7230    7.1560   43.9650 C.2   255  ASN255      0.2629
     44  OD1       11.6420    7.2890   42.7400 O.2   255  ASN255     -0.2716
     45  ND2       12.8170    6.6990   44.5640 N.am  255  ASN255     -0.0877
     46  N          6.6510    3.4810   43.0230 N.3   258  CYS258     -0.1235
     47  CA         6.3130    4.0820   41.7370 C.3   258  CYS258      0.1677
     48  C          7.3160    3.6510   40.6750 C.2   258  CYS258      0.2270
     49  O          6.9390    3.3450   39.5380 O.2   258  CYS258     -0.2867
     50  CB         6.2820    5.6070   41.8480 C.3   258  CYS258      0.0956
     51  SG         4.6890    6.3200   42.3050 S.3   258  CYS258     -0.0801
     52  N         -0.5340    6.5520   40.5740 N.3   296  TRP296     -0.1227
     53  CA        -0.2370    7.6150   41.5250 C.3   296  TRP296      0.1737
     54  C         -1.2060    7.5650   42.7020 C.2   296  TRP296      0.2595
     55  O         -0.8010    7.7290   43.8570 O.2   296  TRP296     -0.2718
     56  CB        -0.3270    8.9650   40.8080 C.3   296  TRP296      0.0564
     57  CG         0.9490    9.4190   40.1350 C.ar  296  TRP296      0.0003
     58  CD1        1.2120    9.3870   38.7960 C.ar  296  TRP296      0.0946
     59  CD2        2.0960   10.0270   40.7470 C.ar  296  TRP296      0.0152
     60  NE1        2.4590    9.8930   38.5390 N.ar  296  TRP296     -0.2442
     61  CE2        3.0220   10.3000   39.7180 C.ar  296  TRP296      0.0810
     62  CE3        2.4370   10.3530   42.0620 C.ar  296  TRP296      0.0012
     63  CZ2        4.2620   10.8820   39.9630 C.ar  296  TRP296      0.0191
     64  CZ3        3.6700   10.9370   42.2990 C.ar  296  TRP296      0.0001
     65  CH2        4.5670   11.1910   41.2570 C.ar  296  TRP296      0.0015
     66  N         -2.4910    7.3190   42.4320 N.am  297  LEU297     -0.1980
     67  CA        -3.4870    7.2680   43.4980 C.3   297  LEU297      0.1596
     68  C         -3.4120    5.9690   44.2910 C.2   297  LEU297      0.2287
     69  O         -3.6770    5.9690   45.4980 O.2   297  LEU297     -0.2864
     70  CB        -4.9000    7.4490   42.9390 C.3   297  LEU297      0.0297
     71  CG        -5.2170    8.7450   42.1930 C.3   297  LEU297      0.0022
     72  CD1       -6.6370    8.7100   41.6530 C.3   297  LEU297      0.0001
     73  CD2       -5.0140    9.9460   43.1020 C.3   297  LEU297      0.0001
     74  N         -0.7440    4.2800   45.0680 N.3   299  ILE299     -0.1231
     75  CA         0.3740    4.3320   46.0020 C.3   299  ILE299      0.1692
     76  C          0.0880    5.3330   47.1140 C.2   299  ILE299      0.2591
     77  O          0.4940    5.1250   48.2640 O.2   299  ILE299     -0.2718
     78  CB         1.6830    4.6270   45.2520 C.3   299  ILE299      0.0266
     79  CG1        2.0120    3.4380   44.3470 C.3   299  ILE299      0.0019
     80  CG2        2.8200    4.8920   46.2240 C.3   299  ILE299      0.0020
     81  CD1        3.3910    3.4630   43.7690 C.3   299  ILE299      0.0001
     82  N         -0.6280    6.4160   46.7990 N.am  300  LEU300     -0.1980
     83  CA        -1.0700    7.3440   47.8340 C.3   300  LEU300      0.1596
     84  C         -1.9390    6.6490   48.8710 C.2   300  LEU300      0.2287
     85  O         -1.8860    6.9920   50.0580 O.2   300  LEU300     -0.2864
     86  CB        -1.8380    8.4970   47.1890 C.3   300  LEU300      0.0297
     87  CG        -2.4960    9.5030   48.1260 C.3   300  LEU300      0.0022
     88  CD1       -1.4530   10.2660   48.8780 C.3   300  LEU300      0.0001
     89  CD2       -3.3750   10.4530   47.3280 C.3   300  LEU300      0.0001
     90  N          0.4300    3.9340   50.9990 N.3   303  THR303     -0.1203
     91  CA         1.4060    4.4590   51.9440 C.3   303  THR303      0.1994
     92  C          0.7500    5.1500   53.1310 C.2   303  THR303      0.2617
     93  O          1.4390    5.8240   53.9030 O.2   303  THR303     -0.2717
     94  CB         2.3500    5.4410   51.2440 C.3   303  THR303      0.1784
     95  OG1        1.5810    6.4310   50.5490 O.3   303  THR303     -0.2211
     96  CG2        3.2370    4.7100   50.2520 C.3   303  THR303      0.0376
     97  N         -0.5680    5.0010   53.2800 N.am  304  ILE304     -0.1979
     98  CA        -1.2650    5.5960   54.4220 C.3   304  ILE304      0.1595
     99  C         -0.7550    5.0540   55.7540 C.2   304  ILE304      0.2287
    100  O         -0.4850    5.8600   56.6600 O.2   304  ILE304     -0.2864
    101  CB        -2.7860    5.4410   54.2520 C.3   304  ILE304      0.0276
    102  CG1       -3.3050    6.4380   53.2150 C.3   304  ILE304      0.0022
    103  CG2       -3.4980    5.6450   55.5800 C.3   304  ILE304      0.0022
    104  CD1       -4.8030    6.3940   53.0190 C.3   304  ILE304      0.0001
    105  N          2.2390    7.2470   56.7680 N.3   307  TYR307     -0.1227
    106  CA         1.9970    8.6400   57.1240 C.3   307  TYR307      0.1736
    107  C          1.4910    8.7630   58.5570 C.2   307  TYR307      0.2595
    108  O          1.9010    9.6670   59.2940 O.2   307  TYR307     -0.2718
    109  CB         0.9970    9.2490   56.1440 C.3   307  TYR307      0.0548
    110  CG         1.6360    9.7330   54.8640 C.ar  307  TYR307     -0.0200
    111  CD1        2.3020   10.9490   54.8080 C.ar  307  TYR307     -0.0009
    112  CD2        1.5860    8.9580   53.7120 C.ar  307  TYR307     -0.0009
    113  CE1        2.8930   11.3830   53.6350 C.ar  307  TYR307      0.0417
    114  CE2        2.1710    9.3810   52.5390 C.ar  307  TYR307      0.0417
    115  CZ         2.8230   10.5930   52.5040 C.ar  307  TYR307      0.1957
    116  OH         3.4070   11.0140   51.3300 O.3   307  TYR307     -0.2866
    117  N          0.5850    7.8660   58.9640 N.am  308  VAL308     -0.1980
    118  CA        -0.2450    8.0780   60.1470 C.3   308  VAL308      0.1595
    119  C          0.3180    7.4710   61.4230 C.2   308  VAL308      0.2287
    120  O         -0.2040    7.7620   62.5110 O.2   308  VAL308     -0.2864
    121  CB        -1.6560    7.4930   59.9390 C.3   308  VAL308      0.0276
    122  CG1       -2.2700    8.0360   58.6650 C.3   308  VAL308      0.0022
    123  CG2       -1.6020    5.9710   59.9120 C.3   308  VAL308      0.0022
@<TRIPOS>BOND
     1     1     2    1
     2     5     2    1
     3     5     6    1
     4    60    58   ar
     5    60    61   ar
     6    58    57   ar
     7     2     3    1
     8     8     6    1
     9     6     7    1
    10    49    48    2
    11    61    63   ar
    12    61    59   ar
    13    63    65   ar
    14    57    59   ar
    15    57    56    1
    16     3     9   am
    17     3     4    2
    18     9    10    1
    19    52    53    1
    20    48    47    1
    21    59    62   ar
    22    56    53    1
    23    13    10    1
    24    65    64   ar
    25    10    11    1
    26    53    54    1
    27    72    71    1
    28    47    50    1
    29    47    46    1
    30    50    51    1
    31    11    12    2
    32    62    64   ar
    33    71    70    1
    34    71    73    1
    35    66    54   am
    36    66    67    1
    37    54    55    2
    38    44    43    2
    39    70    67    1
    40    14    15    1
    41    67    68    1
    42    41    40    2
    43    19    20    1
    44    19    21    1
    45    19    18    1
    46    81    79    1
    47    43    45   am
    48    43    42    1
    49    68    69    2
    50    79    78    1
    51    18    15    1
    52    40    39    1
    53    15    16    1
    54    39    42    1
    55    39    38    1
    56    36    35    2
    57    74    75    1
    58    78    75    1
    59    78    80    1
    60    16    17    2
    61    38    35   am
    62    35    34    1
    63    75    76    1
    64    82    76   am
    65    82    83    1
    66    76    77    2
    67    86    83    1
    68    86    87    1
    69    34    37    1
    70    34    33    1
    71    89    87    1
    72    83    84    1
    73    30    28   ar
    74    30    32   ar
    75    28    27   ar
    76    87    88    1
    77    25    24    2
    78    84    85    2
    79    32    31   ar
    80    24    23    1
    81    27    26    1
    82    27    29   ar
    83    26    23    1
    84    23    22    1
    85    31    29   ar
    86    96    94    1
    87    95    94    1
    88    90    91    1
    89    94    91    1
    90   116   115    1
    91    91    92    1
    92   115   114   ar
    93   115   113   ar
    94   114   112   ar
    95   104   102    1
    96    92    97   am
    97    92    93    2
    98   102   101    1
    99    97    98    1
   100   113   111   ar
   101   112   110   ar
   102   101    98    1
   103   101   103    1
   104    98    99    1
   105   111   110   ar
   106   110   109    1
   107    99   100    2
   108   109   106    1
   109   105   106    1
   110   106   107    1
   111   107   117   am
   112   107   108    2
   113   122   121    1
   114   117   118    1
   115   123   121    1
   116   121   118    1
   117   118   119    1
   118   119   120    2
