@<TRIPOS>MOLECULE
tmp/5ne1B01.pdb
 138 130 0 0 0
SMALL
GASTEIGER

@<TRIPOS>ATOM
      1  N        178.0380   84.1070  209.8190 N.3    50  SER50      -0.1217
      2  CA       177.7220   84.5040  211.1890 C.3    50  SER50       0.1889
      3  C        178.5270   83.7350  212.2530 C.2    50  SER50       0.2288
      4  O        178.4320   84.0780  213.3930 O.2    50  SER50      -0.2866
      5  CB       176.2060   84.5160  211.4790 C.3    50  SER50       0.2089
      6  OG       175.5240   85.3970  210.6030 O.3    50  SER50      -0.2183
      7  N        180.5220   85.7480  214.8950 N.3    53  LYS53      -0.1245
      8  CA       179.8990   86.3900  216.0490 C.3    53  LYS53       0.1561
      9  C        180.3720   85.7940  217.3850 C.2    53  LYS53       0.2260
     10  O        180.3680   86.4850  218.4040 O.2    53  LYS53      -0.2867
     11  CB       178.3670   86.3300  215.9160 C.3    53  LYS53       0.0271
     12  CG       177.8480   87.3420  214.8710 C.3    53  LYS53       0.0035
     13  CD       176.4690   86.9920  214.3260 C.3    53  LYS53       0.0206
     14  CE       176.0590   88.0190  213.2470 C.3    53  LYS53       0.1093
     15  NZ       174.7920   87.6840  212.5600 N.3    53  LYS53      -0.1314
     16  N        167.2360   90.9000  209.1380 N.3    85  HIS85      -0.1241
     17  CA       167.2640   89.8810  210.1870 C.3    85  HIS85       0.1621
     18  C        167.6170   90.5140  211.5270 C.2    85  HIS85       0.2264
     19  O        168.7940   90.6110  211.8980 O.2    85  HIS85      -0.2867
     20  CB       168.2510   88.7620  209.8390 C.3    85  HIS85       0.0745
     21  CG       168.3080   87.6620  210.8580 C.ar   85  HIS85       0.0817
     22  ND1      167.3590   86.6660  210.9360 N.ar   85  HIS85      -0.2268
     23  CD2      169.2010   87.4120  211.8470 C.ar   85  HIS85       0.1154
     24  CE1      167.6660   85.8420  211.9240 C.ar   85  HIS85       0.1986
     25  NE2      168.7790   86.2710  212.4940 N.ar   85  HIS85      -0.2212
     26  N        170.4370   84.0600  218.3800 N.3   109  THR109     -0.1203
     27  CA       169.4730   84.2770  217.2740 C.3   109  THR109      0.1994
     28  C        170.1520   84.7670  215.9860 C.2   109  THR109      0.2618
     29  O        169.5060   84.8600  214.9460 O.2   109  THR109     -0.2717
     30  CB       168.3670   85.3300  217.6050 C.3   109  THR109      0.1784
     31  OG1      168.9460   86.6430  217.6380 O.3   109  THR109     -0.2211
     32  CG2      167.6430   85.0460  218.9460 C.3   109  THR109      0.0376
     33  N        171.4300   85.1210  216.0790 N.am  110  SER110     -0.1951
     34  CA       172.2190   85.6180  214.9450 C.3   110  SER110      0.1924
     35  C        171.8000   87.0290  214.4740 C.2   110  SER110      0.2314
     36  O        172.1110   87.4180  213.3500 O.2   110  SER110     -0.2863
     37  CB       172.1480   84.6150  213.7780 C.3   110  SER110      0.2116
     38  OG       173.4160   84.4570  213.1710 O.3   110  SER110     -0.2180
     39  N        171.4850   90.5020  213.2260 N.3   112  ASN112     -0.1240
     40  CA       172.5240   91.2930  212.5310 C.3   112  ASN112      0.1653
     41  C        172.6560   92.7160  213.0640 C.2   112  ASN112      0.2266
     42  O        173.7620   93.2790  213.1210 O.2   112  ASN112     -0.2867
     43  CB       172.2650   91.3830  211.0260 C.3   112  ASN112      0.1155
     44  CG       172.7830   90.1700  210.2470 C.2   112  ASN112      0.2627
     45  OD1      173.5750   89.3630  210.7480 O.2   112  ASN112     -0.2716
     46  ND2      172.3380   90.0550  208.9970 N.am  112  ASN112     -0.0877
     47  N        177.7490   94.1140  208.8530 N.3   146  GLU146     -0.1231
     48  CA       176.5630   93.4030  208.3610 C.3   146  GLU146      0.1684
     49  C        175.7740   94.3020  207.4100 C.2   146  GLU146      0.2434
     50  O        175.6840   95.4950  207.6520 O.2   146  GLU146     -0.2733
     51  CB       175.6700   92.9510  209.5260 C.3   146  GLU146      0.0402
     52  CG       176.3160   91.8960  210.4580 C.3   146  GLU146      0.1161
     53  CD       176.3520   90.4890  209.8450 C.2   146  GLU146      0.3649
     54  OE1      175.9320   90.3340  208.6810 O.co2 146  GLU146     -0.2457
     55  OE2      176.7820   89.5350  210.5320 O.co2 146  GLU146     -0.2457
     56  N        175.1770   93.7300  206.3440 N.am  147  PRO147     -0.2729
     57  CA       175.1540   92.3070  205.9970 C.3   147  PRO147      0.1401
     58  C        176.1660   91.8910  204.9270 C.2   147  PRO147      0.2269
     59  O        176.2060   90.7060  204.6020 O.2   147  PRO147     -0.2865
     60  CB       173.7350   92.1220  205.4710 C.3   147  PRO147      0.0296
     61  CG       173.4910   93.3880  204.7250 C.3   147  PRO147      0.0237
     62  CD       174.2150   94.4840  205.5180 C.3   147  PRO147      0.0939
     63  N        178.9320   88.7120  204.7850 N.3   150  ASN150     -0.1240
     64  CA       178.5180   87.3650  204.4000 C.3   150  ASN150      0.1653
     65  C        178.7830   87.0010  202.9320 C.2   150  ASN150      0.2266
     66  O        178.6350   85.8420  202.5520 O.2   150  ASN150     -0.2867
     67  CB       177.0300   87.1570  204.6820 C.3   150  ASN150      0.1155
     68  CG       176.6720   87.3300  206.1550 C.2   150  ASN150      0.2627
     69  OD1      177.0340   86.5060  206.9980 O.2   150  ASN150     -0.2716
     70  ND2      175.9350   88.3980  206.4640 N.am  150  ASN150     -0.0877
     71  N        169.5630   78.3190  216.7870 N.3   196  THR196     -0.1218
     72  CA       169.4990   78.2760  215.3230 C.3   196  THR196      0.1862
     73  C        170.1110   77.0200  214.6900 C.2   196  THR196      0.2287
     74  O        170.0990   76.8830  213.4680 O.2   196  THR196     -0.2866
     75  CB       170.2250   79.4880  214.7050 C.3   196  THR196      0.1770
     76  OG1      171.6210   79.3960  215.0110 O.3   196  THR196     -0.2211
     77  CG2      169.6750   80.8010  215.2620 C.3   196  THR196      0.0375
     78  N        177.6130   77.6810  217.0780 N.3   214  LYS214     -0.1231
     79  CA       177.1890   78.9080  216.3860 C.3   214  LYS214      0.1693
     80  C        177.1110   78.6210  214.8870 C.2   214  LYS214      0.2593
     81  O        178.0660   78.1150  214.3070 O.2   214  LYS214     -0.2718
     82  CB       178.1500   80.0850  216.6600 C.3   214  LYS214      0.0285
     83  CG       177.7440   81.4270  215.9700 C.3   214  LYS214      0.0035
     84  CD       176.5850   82.1330  216.6910 C.3   214  LYS214      0.0206
     85  CE       175.9520   83.2510  215.8300 C.3   214  LYS214      0.1093
     86  NZ       175.0390   82.6960  214.7870 N.3   214  LYS214     -0.1314
     87  N        175.9680   78.9220  214.2770 N.am  215  THR215     -0.1939
     88  CA       175.7430   78.6530  212.8510 C.3   215  THR215      0.2028
     89  C        176.0810   79.8700  211.9930 C.2   215  THR215      0.2643
     90  O        176.3250   80.9710  212.5200 O.2   215  THR215     -0.2714
     91  CB       174.2810   78.2780  212.5680 C.3   215  THR215      0.1808
     92  OG1      173.4280   79.2710  213.1550 O.3   215  THR215     -0.2208
     93  CG2      173.9230   76.8970  213.1420 C.3   215  THR215      0.0379
     94  N        176.0760   79.6670  210.6740 N.am  216  GLY216     -0.1939
     95  CA       176.1980   80.7530  209.7150 C.3   216  GLY216      0.2014
     96  C        175.5670   80.3620  208.3830 C.2   216  GLY216      0.2640
     97  O        175.5480   79.1800  208.0390 O.2   216  GLY216     -0.2714
     98  N        175.1300   81.3330  207.6170 N.am  217  SER217     -0.1935
     99  CA       174.6310   81.1400  206.2700 C.3   217  SER217      0.2055
    100  C        174.5610   82.4100  205.4080 C.2   217  SER217      0.2643
    101  O        174.5590   83.5030  205.9290 O.2   217  SER217     -0.2714
    102  CB       173.3240   80.3610  206.2210 C.3   217  SER217      0.2130
    103  OG       172.3310   80.8950  207.0090 O.3   217  SER217     -0.2179
    104  N        174.5360   82.2490  204.0930 N.am  218  ASN218     -0.1957
    105  CA       174.3500   83.4210  203.2300 C.3   218  ASN218      0.1819
    106  C        173.3140   83.1850  202.1240 C.2   218  ASN218      0.2621
    107  O        172.6840   82.1260  202.0710 O.2   218  ASN218     -0.2715
    108  CB       175.7020   83.9110  202.6440 C.3   218  ASN218      0.1195
    109  CG       176.3020   82.9790  201.5690 C.2   218  ASN218      0.2630
    110  OD1      175.6110   82.1840  200.9410 O.2   218  ASN218     -0.2716
    111  ND2      177.6140   83.1240  201.3350 N.am  218  ASN218     -0.0877
    112  N        173.1370   84.1830  201.2560 N.am  219  GLY219     -0.1954
    113  CA       172.1660   84.1230  200.1770 C.3   219  GLY219      0.1869
    114  C        172.5980   83.3710  198.9240 C.2   219  GLY219      0.2309
    115  O        171.7830   83.1310  198.0210 O.2   219  GLY219     -0.2863
    116  N        176.5360   77.3990  204.1480 N.3   223  ARG223     -0.1245
    117  CA       175.8970   77.0770  205.4130 C.3   223  ARG223      0.1563
    118  C        176.9610   76.4520  206.3210 C.2   223  ARG223      0.2260
    119  O        177.6030   75.4710  205.9420 O.2   223  ARG223     -0.2867
    120  CB       174.7090   76.1330  205.2020 C.3   223  ARG223      0.0307
    121  CG       173.8390   75.9100  206.4300 C.3   223  ARG223      0.0489
    122  CD       172.3980   76.3550  206.2170 C.3   223  ARG223      0.2205
    123  NE       171.6510   76.3520  207.4730 N.pl3 223  ARG223     -0.0865
    124  CZ       170.4060   75.9140  207.6010 C.cat 223  ARG223      0.5346
    125  NH1      169.7620   75.4450  206.5400 N.pl3 223  ARG223      0.1354
    126  NH2      169.8030   75.9550  208.7830 N.pl3 223  ARG223      0.1354
    127  N        168.4090   75.0000  200.7420 N.3   251  TYR251     -0.1241
    128  CA       168.7810   75.4820  202.0790 C.3   251  TYR251      0.1605
    129  C        168.6080   74.3940  203.1390 C.2   251  TYR251      0.2264
    130  O        169.5190   74.1210  203.9150 O.2   251  TYR251     -0.2867
    131  CB       167.9410   76.7130  202.4660 C.3   251  TYR251      0.0534
    132  CG       168.3700   77.3920  203.7670 C.ar  251  TYR251     -0.0201
    133  CD1      169.5940   78.0490  203.8680 C.ar  251  TYR251     -0.0009
    134  CD2      167.5460   77.3800  204.8890 C.ar  251  TYR251     -0.0009
    135  CE1      169.9940   78.6820  205.0700 C.ar  251  TYR251      0.0417
    136  CE2      167.9250   78.0190  206.0820 C.ar  251  TYR251      0.0417
    137  CZ       169.1550   78.6650  206.1630 C.ar  251  TYR251      0.1957
    138  OH       169.5440   79.2900  207.3420 O.3   251  TYR251     -0.2866
@<TRIPOS>BOND
     1   115   114    2
     2   114   113    1
     3   113   112    1
     4   127   128    1
     5   110   109    2
     6   112   106   am
     7   111   109   am
     8   109   108    1
     9   107   106    2
    10   128   131    1
    11   128   129    1
    12   106   105    1
    13   131   132    1
    14    66    65    2
    15   108   105    1
    16    65    64    1
    17   129   130    2
    18   105   104    1
    19   132   133   ar
    20   132   134   ar
    21   133   135   ar
    22   104   100   am
    23   116   117    1
    24    64    67    1
    25    64    63    1
    26    59    58    2
    27    67    68    1
    28    61    60    1
    29    61    62    1
    30   134   136   ar
    31    58    57    1
    32   135   137   ar
    33   120   117    1
    34   120   121    1
    35   100   101    2
    36   100    99    1
    37   117   118    1
    38    60    57    1
    39    62    56    1
    40   119   118    2
    41    57    56    1
    42   136   137   ar
    43    68    70   am
    44    68    69    2
    45   137   138    1
    46   122   121    1
    47   122   123    1
    48   102    99    1
    49   102   103    1
    50    99    98    1
    51    56    49   am
    52   125   124    1
    53    49    50    2
    54    49    48    1
    55   123   124    2
    56   124   126    1
    57    98    96   am
    58    97    96    2
    59    48    47    1
    60    48    51    1
    61    96    95    1
    62    54    53   ar
    63    46    44   am
    64    16    17    1
    65    51    52    1
    66    95    94    1
    67     1     2    1
    68    20    17    1
    69    20    21    1
    70    53    52    1
    71    53    55   ar
    72    17    18    1
    73    44    45    2
    74    44    43    1
    75     6     5    1
    76    94    89   am
    77    21    22   ar
    78    21    23   ar
    79    22    24   ar
    80    43    40    1
    81     2     5    1
    82     2     3    1
    83    18    19    2
    84    23    25   ar
    85    24    25   ar
    86    89    90    2
    87    89    88    1
    88     3     4    2
    89    40    41    1
    90    40    39    1
    91    15    14    1
    92    91    88    1
    93    91    93    1
    94    91    92    1
    95    88    87    1
    96    41    42    2
    97    38    37    1
    98    14    13    1
    99    36    35    2
   100    74    73    2
   101    37    34    1
   102    87    80   am
   103    81    80    2
   104    13    12    1
   105    35    34    1
   106    73    72    1
   107    75    76    1
   108    75    77    1
   109    75    72    1
   110    86    85    1
   111    12    11    1
   112    80    79    1
   113     7     8    1
   114    34    33    1
   115    29    28    2
   116    72    71    1
   117    85    84    1
   118    11     8    1
   119    83    82    1
   120    83    84    1
   121    28    33   am
   122    28    27    1
   123     8     9    1
   124    79    82    1
   125    79    78    1
   126    27    30    1
   127    27    26    1
   128     9    10    2
   129    30    31    1
   130    30    32    1
