@<TRIPOS>MOLECULE
tmp/5ne2A00.pdb
 81 75 0 0 0
SMALL
GASTEIGER

@<TRIPOS>ATOM
      1  N         85.8490  165.6900  197.6800 N.3    50  SER50      -0.1217
      2  CA        87.1980  166.2060  197.4500 C.3    50  SER50       0.1889
      3  C         87.2880  167.7250  197.3890 C.2    50  SER50       0.2288
      4  O         88.4090  168.2400  197.2570 O.2    50  SER50      -0.2866
      5  CB        87.8230  165.6020  196.1960 C.3    50  SER50       0.2089
      6  OG        88.2800  164.2810  196.4560 O.3    50  SER50      -0.2183
      7  N         92.2520  155.4040  193.9370 N.3    85  HIS85      -0.1241
      8  CA        92.4240  156.6320  193.1650 C.3    85  HIS85       0.1621
      9  C         93.7090  157.3220  193.6200 C.2    85  HIS85       0.2264
     10  O         93.7210  158.0910  194.5840 O.2    85  HIS85      -0.2867
     11  CB        91.2160  157.5530  193.2820 C.3    85  HIS85       0.0745
     12  CG        91.3230  158.7440  192.3890 C.ar   85  HIS85       0.0817
     13  ND1       91.3060  158.6320  191.0140 N.ar   85  HIS85      -0.2268
     14  CD2       91.5220  160.0570  192.6610 C.ar   85  HIS85       0.1154
     15  CE1       91.4600  159.8320  190.4770 C.ar   85  HIS85       0.1986
     16  NE2       91.5900  160.7120  191.4550 N.ar   85  HIS85      -0.2212
     17  N         92.7950  165.1040  192.0910 N.3   110  SER110     -0.1217
     18  CA        92.0540  164.5690  193.2300 C.3   110  SER110      0.1889
     19  C         92.7120  163.3370  193.8550 C.2   110  SER110      0.2288
     20  O         92.0510  162.5990  194.5780 O.2   110  SER110     -0.2866
     21  CB        90.5790  164.3200  192.8930 C.3   110  SER110      0.2089
     22  OG        89.7620  164.7430  193.9640 O.3   110  SER110     -0.2183
     23  N         93.9380  160.6370  196.0400 N.3   112  ASN112     -0.1240
     24  CA        93.5510  160.4100  197.4350 C.3   112  ASN112      0.1653
     25  C         94.7410  160.0760  198.3220 C.2   112  ASN112      0.2266
     26  O         94.7610  160.4500  199.5020 O.2   112  ASN112     -0.2867
     27  CB        92.5390  159.2670  197.5410 C.3   112  ASN112      0.1155
     28  CG        91.1320  159.6860  197.1900 C.2   112  ASN112      0.2627
     29  OD1       90.7810  160.8610  197.2420 O.2   112  ASN112     -0.2716
     30  ND2       90.3000  158.7140  196.8500 N.am  112  ASN112     -0.0877
     31  N         90.7820  160.0500  203.6190 N.3   146  GLU146     -0.1245
     32  CA        90.2560  159.3710  202.4270 C.3   146  GLU146      0.1567
     33  C         90.3520  157.8630  202.6360 C.2   146  GLU146      0.2260
     34  O         91.3530  157.3810  203.1590 O.2   146  GLU146     -0.2867
     35  CB        91.0790  159.7250  201.1900 C.3   146  GLU146      0.0388
     36  CG        90.8830  161.1440  200.6970 C.3   146  GLU146      0.1160
     37  CD        89.5540  161.3710  199.9830 C.2   146  GLU146      0.3649
     38  OE1       88.7230  160.4370  199.8980 O.co2 146  GLU146     -0.2457
     39  OE2       89.3350  162.5130  199.5180 O.co2 146  GLU146     -0.2457
     40  N         84.1000  160.8280  202.5190 N.3   150  ASN150     -0.1240
     41  CA        83.0870  161.0880  201.5030 C.3   150  ASN150      0.1653
     42  C         81.6980  160.6200  201.8980 C.2   150  ASN150      0.2266
     43  O         80.7580  160.8010  201.1130 O.2   150  ASN150     -0.2867
     44  CB        83.4990  160.4490  200.1790 C.3   150  ASN150      0.1155
     45  CG        84.7840  161.0230  199.6550 C.2   150  ASN150      0.2627
     46  OD1       84.8090  162.1440  199.1370 O.2   150  ASN150     -0.2716
     47  ND2       85.8780  160.2900  199.8340 N.am  150  ASN150     -0.0877
     48  N         87.8250  173.0800  191.9190 N.3   214  LYS214     -0.1231
     49  CA        88.0700  171.7800  192.5360 C.3   214  LYS214      0.1693
     50  C         86.7510  171.0270  192.5960 C.2   214  LYS214      0.2593
     51  O         85.7530  171.5500  193.1070 O.2   214  LYS214     -0.2718
     52  CB        88.6350  171.9150  193.9580 C.3   214  LYS214      0.0285
     53  CG        88.9240  170.5710  194.6530 C.3   214  LYS214      0.0035
     54  CD        90.1700  169.8870  194.0680 C.3   214  LYS214      0.0206
     55  CE        90.2300  168.3990  194.4420 C.3   214  LYS214      0.1093
     56  NZ        89.3120  167.5720  193.5950 N.3   214  LYS214     -0.1314
     57  N         86.7490  169.7980  192.0910 N.am  215  THR215     -0.1939
     58  CA        85.5590  168.9570  192.0710 C.3   215  THR215      0.2028
     59  C         85.5240  168.0170  193.2750 C.2   215  THR215      0.2643
     60  O         86.5110  167.8170  193.9920 O.2   215  THR215     -0.2714
     61  CB        85.5310  168.1090  190.7950 C.3   215  THR215      0.1808
     62  OG1       86.7280  167.3260  190.7270 O.3   215  THR215     -0.2208
     63  CG2       85.4210  168.9800  189.5420 C.3   215  THR215      0.0379
     64  N         84.3630  167.3920  193.4620 N.am  216  GLY216     -0.1939
     65  CA        84.2370  166.2820  194.3930 C.3   216  GLY216      0.2014
     66  C         83.0950  165.3790  193.9820 C.2   216  GLY216      0.2640
     67  O         82.2040  165.7800  193.2240 O.2   216  GLY216     -0.2714
     68  N         83.1220  164.1490  194.4910 N.am  217  SER217     -0.1935
     69  CA        82.0570  163.1980  194.2050 C.3   217  SER217      0.2055
     70  C         82.1230  162.0510  195.1990 C.2   217  SER217      0.2643
     71  O         83.1370  161.8400  195.8720 O.2   217  SER217     -0.2714
     72  CB        82.2020  162.6350  192.7890 C.3   217  SER217      0.2130
     73  OG        83.4180  161.9120  192.6690 O.3   217  SER217     -0.2179
     74  N         81.0240  161.3070  195.2850 N.am  218  ASN218     -0.1971
     75  CA        81.0610  159.9840  195.9060 C.3   218  ASN218      0.1688
     76  C         80.2960  159.0000  195.0270 C.2   218  ASN218      0.2292
     77  O         79.7330  159.3710  193.9930 O.2   218  ASN218     -0.2864
     78  CB        80.6540  159.9960  197.3940 C.3   218  ASN218      0.1181
     79  CG        79.1800  160.2680  197.6190 C.2   218  ASN218      0.2629
     80  OD1       78.3420  160.0520  196.7420 O.2   218  ASN218     -0.2716
     81  ND2       78.8510  160.7400  198.8250 N.am  218  ASN218     -0.0877
@<TRIPOS>BOND
     1    63    61    1
     2    15    13   ar
     3    15    16   ar
     4    62    61    1
     5    61    58    1
     6    13    12   ar
     7    16    14   ar
     8    48    49    1
     9    58    57    1
    10    58    59    1
    11    17    18    1
    12    57    50   am
    13    12    14   ar
    14    12    11    1
    15    49    50    1
    16    49    52    1
    17    50    51    2
    18    73    72    1
    19    72    69    1
    20    21    18    1
    21    21    22    1
    22     8    11    1
    23     8     9    1
    24     8     7    1
    25    67    66    2
    26    18    19    1
    27    59    64   am
    28    59    60    2
    29    64    65    1
    30    56    55    1
    31     9    10    2
    32    19    20    2
    33    52    53    1
    34    66    65    1
    35    66    68   am
    36    77    76    2
    37    54    55    1
    38    54    53    1
    39    69    68    1
    40    69    70    1
    41    76    75    1
    42    70    74   am
    43    70    71    2
    44    74    75    1
    45    75    78    1
    46    23    24    1
    47     5     6    1
    48     5     2    1
    49    80    79    2
    50    30    28   am
    51    28    29    2
    52    28    27    1
    53     4     3    2
    54     3     2    1
    55    78    79    1
    56    24    27    1
    57    24    25    1
    58     2     1    1
    59    79    81   am
    60    25    26    2
    61    46    45    2
    62    39    37   ar
    63    45    47   am
    64    45    44    1
    65    38    37   ar
    66    37    36    1
    67    44    41    1
    68    36    35    1
    69    43    42    2
    70    35    32    1
    71    41    42    1
    72    41    40    1
    73    32    33    1
    74    32    31    1
    75    33    34    2
