@<TRIPOS>MOLECULE
tmp/5ne3B00.pdb
 126 118 0 0 0
SMALL
GASTEIGER

@<TRIPOS>ATOM
      1  N        183.4300  166.8170  262.5240 N.3    48  CYS48      -0.1221
      2  CA       182.0540  167.2560  262.6910 C.3    48  CYS48       0.1808
      3  C        181.8100  167.4820  264.1890 C.2    48  CYS48       0.2601
      4  O        182.7080  167.9490  264.8960 O.2    48  CYS48      -0.2717
      5  CB       181.0670  166.2690  262.0710 C.3    48  CYS48       0.0970
      6  SG       181.3800  165.9250  260.3110 S.3    48  CYS48      -0.0800
      7  N        180.6560  167.1530  264.6760 N.am   49  SER49      -0.1952
      8  CA       180.2900  167.4190  266.0580 C.3    49  SER49       0.1924
      9  C        181.1490  166.6990  267.0770 C.2    49  SER49       0.2314
     10  O        181.0810  167.0220  268.2310 O.2    49  SER49      -0.2863
     11  CB       178.8060  167.1020  266.3570 C.3    49  SER49       0.2116
     12  OG       177.8960  167.8710  265.7290 O.3    49  SER49      -0.2180
     13  N        183.1560  168.7120  269.6710 N.3    52  LYS52      -0.1245
     14  CA       182.5540  169.3680  270.8280 C.3    52  LYS52       0.1561
     15  C        183.0610  168.7690  272.1320 C.2    52  LYS52       0.2260
     16  O        183.0700  169.4500  273.1670 O.2    52  LYS52      -0.2867
     17  CB       181.0290  169.2980  270.7320 C.3    52  LYS52       0.0271
     18  CG       180.4670  170.2220  269.6660 C.3    52  LYS52       0.0035
     19  CD       179.0660  169.8560  269.2450 C.3    52  LYS52       0.0206
     20  CE       178.5240  170.8980  268.2900 C.3    52  LYS52       0.1093
     21  NZ       177.4890  170.3690  267.3850 N.3    52  LYS52      -0.1314
     22  N        170.0740  173.7540  264.1650 N.3    84  HIS84      -0.1241
     23  CA       170.1450  172.7700  265.2440 C.3    84  HIS84       0.1621
     24  C        170.5540  173.4770  266.5340 C.2    84  HIS84       0.2264
     25  O        171.7380  173.6630  266.8160 O.2    84  HIS84      -0.2867
     26  CB       171.0950  171.6310  264.9190 C.3    84  HIS84       0.0745
     27  CG       171.0760  170.5560  265.9550 C.ar   84  HIS84       0.0817
     28  ND1      170.0340  169.6630  266.0750 N.ar   84  HIS84      -0.2268
     29  CD2      171.9310  170.2800  266.9690 C.ar   84  HIS84       0.1154
     30  CE1      170.2740  168.8490  267.0880 C.ar   84  HIS84       0.1986
     31  NE2      171.4150  169.2070  267.6490 N.ar   84  HIS84      -0.2212
     32  N        173.1510  167.0790  273.4530 N.3   108  THR108     -0.1203
     33  CA       172.2260  167.2980  272.3510 C.3   108  THR108      0.1994
     34  C        172.9220  167.7550  271.0840 C.2   108  THR108      0.2618
     35  O        172.2620  167.8810  270.0450 O.2   108  THR108     -0.2717
     36  CB       171.1520  168.3380  272.7140 C.3   108  THR108      0.1784
     37  OG1      171.7230  169.6540  272.6540 O.3   108  THR108     -0.2211
     38  CG2      170.5870  168.0890  274.1080 C.3   108  THR108      0.0376
     39  N        174.2210  168.0330  271.1530 N.am  109  SER109     -0.1951
     40  CA       174.9950  168.5080  270.0060 C.3   109  SER109      0.1924
     41  C        174.5450  169.8910  269.5190 C.2   109  SER109      0.2314
     42  O        174.7350  170.2340  268.3510 O.2   109  SER109     -0.2863
     43  CB       175.0020  167.4930  268.8660 C.3   109  SER109      0.2116
     44  OG       176.2420  167.5450  268.1850 O.3   109  SER109     -0.2180
     45  N        174.2940  173.3350  268.2030 N.3   111  ASN111     -0.1240
     46  CA       175.2990  174.0870  267.4450 C.3   111  ASN111      0.1653
     47  C        175.4280  175.5260  267.9370 C.2   111  ASN111      0.2266
     48  O        176.5280  176.0880  267.9250 O.2   111  ASN111     -0.2867
     49  CB       174.9460  174.1060  265.9560 C.3   111  ASN111      0.1155
     50  CG       175.3320  172.8300  265.2410 C.2   111  ASN111      0.2627
     51  OD1      176.1420  172.0530  265.7290 O.2   111  ASN111     -0.2716
     52  ND2      174.7610  172.6220  264.0650 N.am  111  ASN111     -0.0877
     53  N        178.0900  176.5320  261.2080 N.3   146  PRO146     -0.2116
     54  CA       178.1130  175.1060  260.8600 C.3   146  PRO146      0.1372
     55  C        179.2010  174.7320  259.8630 C.2   146  PRO146      0.2244
     56  O        179.2970  173.5550  259.4980 O.2   146  PRO146     -0.2868
     57  CB       176.7490  174.9230  260.1930 C.3   146  PRO146      0.0268
     58  CG       176.5610  176.2290  259.4520 C.3   146  PRO146      0.0207
     59  CD       177.1680  177.2970  260.3460 C.3   146  PRO146      0.0892
     60  N        181.7650  171.5460  259.8300 N.3   149  ASN149     -0.1240
     61  CA       181.3700  170.1830  259.4910 C.3   149  ASN149      0.1653
     62  C        181.6080  169.8420  258.0290 C.2   149  ASN149      0.2266
     63  O        181.4650  168.6680  257.6540 O.2   149  ASN149     -0.2867
     64  CB       179.8940  169.9800  259.8330 C.3   149  ASN149      0.1155
     65  CG       179.6020  170.2630  261.2780 C.2   149  ASN149      0.2627
     66  OD1      179.9350  169.4750  262.1610 O.2   149  ASN149     -0.2716
     67  ND2      178.9930  171.4250  261.5410 N.am  149  ASN149     -0.0877
     68  N        172.3310  161.4760  271.7130 N.3   195  THR195     -0.1218
     69  CA       172.2670  161.4140  270.2580 C.3   195  THR195      0.1862
     70  C        172.8510  160.1380  269.6750 C.2   195  THR195      0.2287
     71  O        172.8440  159.9820  268.4500 O.2   195  THR195     -0.2866
     72  CB       173.0220  162.5960  269.6450 C.3   195  THR195      0.1770
     73  OG1      174.4150  162.4560  269.9300 O.3   195  THR195     -0.2211
     74  CG2      172.5230  163.9340  270.2160 C.3   195  THR195      0.0375
     75  N        178.6810  161.9800  269.1230 N.3   214  THR214     -0.1203
     76  CA       178.4660  161.7090  267.7090 C.3   214  THR214      0.1994
     77  C        178.7770  162.9380  266.8600 C.2   214  THR214      0.2618
     78  O        178.9950  164.0450  267.3630 O.2   214  THR214     -0.2717
     79  CB       177.0040  161.3350  267.4760 C.3   214  THR214      0.1784
     80  OG1      176.1700  162.3840  267.9900 O.3   214  THR214     -0.2211
     81  CG2      176.6590  160.0100  268.1490 C.3   214  THR214      0.0376
     82  N        178.7690  162.7310  265.5460 N.am  215  GLY215     -0.1942
     83  CA       178.8270  163.8440  264.6110 C.3   215  GLY215      0.2014
     84  C        178.3830  163.4030  263.2360 C.2   215  GLY215      0.2640
     85  O        178.3310  162.2080  262.9390 O.2   215  GLY215     -0.2714
     86  N        178.0750  164.3750  262.3840 N.am  216  SER216     -0.1935
     87  CA       177.6550  164.0440  261.0270 C.3   216  SER216      0.2055
     88  C        177.7150  165.3030  260.1770 C.2   216  SER216      0.2643
     89  O        177.8130  166.4180  260.6920 O.2   216  SER216     -0.2714
     90  CB       176.2290  163.4720  261.0140 C.3   216  SER216      0.2130
     91  OG       175.2880  164.4630  261.4110 O.3   216  SER216     -0.2179
     92  N        177.6200  165.1200  258.8660 N.am  217  ASN217     -0.1957
     93  CA       177.3290  166.2390  257.9750 C.3   217  ASN217      0.1819
     94  C        176.2640  165.8350  256.9610 C.2   217  ASN217      0.2621
     95  O        175.7950  164.6960  256.9420 O.2   217  ASN217     -0.2715
     96  CB       178.5930  166.8720  257.3670 C.3   217  ASN217      0.1195
     97  CG       179.3090  165.9670  256.3710 C.2   217  ASN217      0.2630
     98  OD1      178.7110  165.0640  255.7730 O.2   217  ASN217     -0.2716
     99  ND2      180.6000  166.2250  256.1740 N.am  217  ASN217     -0.0877
    100  N        175.8530  166.7880  256.1330 N.am  218  GLY218     -0.1954
    101  CA       174.7650  166.5080  255.2200 C.3   218  GLY218      0.1869
    102  C        175.1450  165.7230  253.9900 C.2   218  GLY218      0.2309
    103  O        174.2550  165.3170  253.2350 O.2   218  GLY218     -0.2863
    104  N        179.4120  160.3030  259.1380 N.3   222  ARG222     -0.1245
    105  CA       178.7720  160.0040  260.4070 C.3   222  ARG222      0.1563
    106  C        179.8050  159.3760  261.3210 C.2   222  ARG222      0.2260
    107  O        180.4640  158.4010  260.9400 O.2   222  ARG222     -0.2867
    108  CB       177.5590  159.0860  260.2500 C.3   222  ARG222      0.0307
    109  CG       176.7450  159.0720  261.5220 C.3   222  ARG222      0.0489
    110  CD       175.2710  159.0800  261.2400 C.3   222  ARG222      0.2205
    111  NE       174.4940  159.2770  262.4590 N.pl3 222  ARG222     -0.0865
    112  CZ       173.2350  158.8790  262.6000 C.cat 222  ARG222      0.5346
    113  NH1      172.6170  158.2510  261.6030 N.pl3 222  ARG222      0.1354
    114  NH2      172.6000  159.0870  263.7440 N.pl3 222  ARG222      0.1354
    115  N        171.3650  157.9800  255.8170 N.3   250  TYR250     -0.1241
    116  CA       171.7690  158.4420  257.1390 C.3   250  TYR250      0.1605
    117  C        171.5390  157.3560  258.1880 C.2   250  TYR250      0.2264
    118  O        172.4180  157.0690  259.0090 O.2   250  TYR250     -0.2867
    119  CB       171.0150  159.7290  257.4650 C.3   250  TYR250      0.0534
    120  CG       171.3680  160.3700  258.7810 C.ar  250  TYR250     -0.0201
    121  CD1      172.6110  160.9690  258.9650 C.ar  250  TYR250     -0.0009
    122  CD2      170.4430  160.4460  259.8140 C.ar  250  TYR250     -0.0009
    123  CE1      172.9370  161.5870  260.1530 C.ar  250  TYR250      0.0417
    124  CE2      170.7620  161.0720  261.0130 C.ar  250  TYR250      0.0417
    125  CZ       172.0110  161.6360  261.1710 C.ar  250  TYR250      0.1957
    126  OH       172.3460  162.2520  262.3550 O.3   250  TYR250     -0.2866
@<TRIPOS>BOND
     1   103   102    2
     2   102   101    1
     3   101   100    1
     4    98    97    2
     5   115   116    1
     6   100    94   am
     7    99    97   am
     8    97    96    1
     9    95    94    2
    10    94    93    1
    11   116   119    1
    12   116   117    1
    13    96    93    1
    14   119   120    1
    15    63    62    2
    16    93    92    1
    17    62    61    1
    18   117   118    2
    19   120   121   ar
    20   120   122   ar
    21    92    88   am
    22   121   123   ar
    23   104   105    1
    24    58    57    1
    25    58    59    1
    26    61    60    1
    27    61    64    1
    28    56    55    2
    29   122   124   ar
    30    64    65    1
    31    55    54    1
    32   123   125   ar
    33    88    89    2
    34    88    87    1
    35    57    54    1
    36   108   105    1
    37   108   109    1
    38     6     5    1
    39    59    53    1
    40   105   106    1
    41    54    53    1
    42   107   106    2
    43   124   125   ar
    44    90    87    1
    45    90    91    1
    46    87    86    1
    47   125   126    1
    48   110   109    1
    49   110   111    1
    50    65    67   am
    51    65    66    2
    52   113   112    1
    53     5     2    1
    54    86    84   am
    55   111   112    2
    56     1     2    1
    57   112   114    1
    58     2     3    1
    59    85    84    2
    60    84    83    1
    61    52    50   am
    62    22    23    1
    63     3     7   am
    64     3     4    2
    65    83    82    1
    66     7     8    1
    67    26    23    1
    68    26    27    1
    69    50    51    2
    70    50    49    1
    71    23    24    1
    72    82    77   am
    73    12    11    1
    74    27    28   ar
    75    27    29   ar
    76    49    46    1
    77     8    11    1
    78     8     9    1
    79    28    30   ar
    80    24    25    2
    81    77    78    2
    82    77    76    1
    83    29    31   ar
    84     9    10    2
    85    30    31   ar
    86    21    20    1
    87    46    47    1
    88    46    45    1
    89    79    76    1
    90    79    80    1
    91    79    81    1
    92    76    75    1
    93    48    47    2
    94    44    43    1
    95    20    19    1
    96    42    41    2
    97    71    70    2
    98    43    40    1
    99    19    18    1
   100    41    40    1
   101    72    73    1
   102    72    74    1
   103    72    69    1
   104    18    17    1
   105    13    14    1
   106    70    69    1
   107    40    39    1
   108    35    34    2
   109    69    68    1
   110    17    14    1
   111    14    15    1
   112    34    39   am
   113    34    33    1
   114    15    16    2
   115    33    36    1
   116    33    32    1
   117    37    36    1
   118    36    38    1
