@<TRIPOS>MOLECULE
tmp/5ne5A01.pdb
 124 117 0 0 0
SMALL
GASTEIGER

@<TRIPOS>ATOM
      1  N         16.5890   14.5580   36.3930 N.3    89  GLN89      -0.1245
      2  CA        18.0470   14.4680   36.4350 C.3    89  GLN89       0.1566
      3  C         18.4020   13.3060   37.3710 C.2    89  GLN89       0.2260
      4  O         18.1150   13.3490   38.5640 O.2    89  GLN89      -0.2867
      5  CB        18.6670   15.7810   36.8700 C.3    89  GLN89       0.0367
      6  CG        20.1710   15.8510   36.5960 C.3    89  GLN89       0.0905
      7  CD        20.8020   17.1530   37.0140 C.2    89  GLN89       0.2608
      8  OE1       20.1130   18.1260   37.3860 O.2    89  GLN89      -0.2717
      9  NE2       22.1210   17.1810   36.9960 N.am   89  GLN89      -0.0878
     10  N         21.1840   12.0240   38.7980 N.3    91  PHE91      -0.1227
     11  CA        22.0170   12.2960   39.9750 C.3    91  PHE91       0.1736
     12  C         21.2030   12.8760   41.1180 C.2    91  PHE91       0.2595
     13  O         21.2530   12.4400   42.3020 O.2    91  PHE91      -0.2718
     14  CB        23.2000   13.2140   39.5540 C.3    91  PHE91       0.0547
     15  CG        23.9460   13.8570   40.6980 C.ar   91  PHE91      -0.0202
     16  CD1       24.9920   13.1960   41.3650 C.ar   91  PHE91      -0.0042
     17  CD2       23.6670   15.1840   41.0240 C.ar   91  PHE91      -0.0042
     18  CE1       25.7020   13.8690   42.3880 C.ar   91  PHE91      -0.0003
     19  CE2       24.3440   15.8300   42.0480 C.ar   91  PHE91      -0.0003
     20  CZ        25.3740   15.1690   42.7290 C.ar   91  PHE91      -0.0000
     21  N         20.4860   13.9950   40.8100 N.am   92  GLU92      -0.1979
     22  CA        19.7180   14.7170   41.8560 C.3    92  GLU92       0.1602
     23  C         18.6030   13.7860   42.4330 C.2    92  GLU92       0.2287
     24  O         18.3180   13.7940   43.6410 O.2    92  GLU92      -0.2864
     25  CB        19.0850   15.9770   41.2640 C.3    92  GLU92       0.0415
     26  CG        20.0810   17.0370   40.7050 C.3    92  GLU92       0.1163
     27  CD        20.9540   17.7330   41.7000 C.2    92  GLU92       0.3649
     28  OE1       20.8000   17.5700   42.9580 O.co2  92  GLU92      -0.2457
     29  OE2       21.8570   18.5150   41.2160 O.co2  92  GLU92      -0.2457
     30  N         18.7170   12.7830   46.4820 N.3    96  ARG96      -0.1245
     31  CA        17.6630   13.4800   47.2470 C.3    96  ARG96       0.1563
     32  C         16.4480   12.5700   47.5670 C.2    96  ARG96       0.2260
     33  O         16.0060   12.5050   48.7340 O.2    96  ARG96      -0.2867
     34  CB        17.1870   14.7350   46.4910 C.3    96  ARG96       0.0307
     35  CG        18.2900   15.7610   46.2560 C.3    96  ARG96       0.0489
     36  CD        17.8500   16.9020   45.3740 C.3    96  ARG96       0.2205
     37  NE        18.9200   17.8690   45.0370 N.pl3  96  ARG96      -0.0865
     38  CZ        18.9870   19.1100   45.5160 C.cat  96  ARG96       0.5346
     39  NH1       18.2240   19.5000   46.5470 N.pl3  96  ARG96       0.1354
     40  NH2       19.8580   19.9690   44.9590 N.pl3  96  ARG96       0.1354
     41  N         22.4720   11.6000   31.7460 N.3   138  ARG138     -0.1245
     42  CA        22.1510   12.5550   32.8480 C.3   138  ARG138      0.1563
     43  C         20.6660   12.6710   33.1790 C.2   138  ARG138      0.2260
     44  O         20.3280   12.9740   34.3410 O.2   138  ARG138     -0.2867
     45  CB        22.6760   13.9850   32.5120 C.3   138  ARG138      0.0307
     46  CG        24.1890   14.0750   32.3910 C.3   138  ARG138      0.0489
     47  CD        24.6480   15.4900   32.1010 C.3   138  ARG138      0.2205
     48  NE        24.4510   16.3490   33.2310 N.pl3 138  ARG138     -0.0865
     49  CZ        24.3200   17.6720   33.1870 C.cat 138  ARG138      0.5346
     50  NH1       24.2290   18.3100   32.0280 N.pl3 138  ARG138      0.1354
     51  NH2       24.3770   18.3420   34.3310 N.pl3 138  ARG138      0.1354
     52  N         29.7650   13.5090   33.9750 N.3   153  ASN153     -0.1240
     53  CA        30.9080   13.8610   34.8120 C.3   153  ASN153      0.1653
     54  C         31.0160   12.8780   35.9860 C.2   153  ASN153      0.2266
     55  O         30.0770   12.0670   36.2150 O.2   153  ASN153     -0.2867
     56  CB        30.8030   15.3540   35.3030 C.3   153  ASN153      0.1155
     57  CG        29.4840   15.5740   36.0430 C.2   153  ASN153      0.2627
     58  OD1       29.2850   15.0930   37.1780 O.2   153  ASN153     -0.2716
     59  ND2       28.5630   16.3350   35.4300 N.am  153  ASN153     -0.0877
     60  N         30.8590   13.1160   39.2570 N.3   155  ALA155     -0.1231
     61  CA        29.7920   13.1670   40.3070 C.3   155  ALA155      0.1694
     62  C         28.5070   12.4910   39.7800 C.2   155  ALA155      0.2591
     63  O         27.8760   11.6920   40.4960 O.2   155  ALA155     -0.2718
     64  CB        29.5360   14.6270   40.7260 C.3   155  ALA155      0.0304
     65  N         28.1290   12.7820   38.5240 N.am  156  GLU156     -0.1979
     66  CA        26.8630   12.3000   37.9900 C.3   156  GLU156      0.1602
     67  C         26.8970   10.8510   37.4530 C.2   156  GLU156      0.2287
     68  O         25.8260   10.2790   37.1400 O.2   156  GLU156     -0.2864
     69  CB        26.2870   13.2680   36.9450 C.3   156  GLU156      0.0415
     70  CG        25.9370   14.6570   37.5190 C.3   156  GLU156      0.1163
     71  CD        25.2220   15.5650   36.5410 C.2   156  GLU156      0.3649
     72  OE1       24.1630   15.1470   35.9830 O.co2 156  GLU156     -0.2457
     73  OE2       25.7150   16.7060   36.3050 O.co2 156  GLU156     -0.2457
     74  N         34.0790   20.8730   41.5540 N.3   217  VAL217     -0.1231
     75  CA        33.0900   20.9150   40.4500 C.3   217  VAL217      0.1692
     76  C         33.3160   19.6980   39.5510 C.2   217  VAL217      0.2592
     77  O         34.4590   19.2740   39.2750 O.2   217  VAL217     -0.2718
     78  CB        33.1420   22.2920   39.6800 C.3   217  VAL217      0.0266
     79  CG1       32.1350   22.3650   38.5160 C.3   217  VAL217      0.0020
     80  CG2       32.9720   23.4510   40.6770 C.3   217  VAL217      0.0020
     81  N         32.1990   19.0910   39.1490 N.am  218  TYR218     -0.1962
     82  CA        32.1420   17.9110   38.2690 C.3   218  TYR218      0.1771
     83  C         32.5520   16.5700   38.9630 C.2   218  TYR218      0.2619
     84  O         32.4610   15.5450   38.2840 O.2   218  TYR218     -0.2715
     85  CB        32.9250   18.0970   36.9530 C.3   218  TYR218      0.0574
     86  CG        32.4620   19.2260   36.0700 C.ar  218  TYR218     -0.0198
     87  CD1       31.1250   19.3210   35.6150 C.ar  218  TYR218     -0.0009
     88  CD2       33.3560   20.2600   35.7060 C.ar  218  TYR218     -0.0009
     89  CE1       30.7660   20.3110   34.7320 C.ar  218  TYR218      0.0417
     90  CE2       32.9610   21.2990   34.8360 C.ar  218  TYR218      0.0417
     91  CZ        31.6630   21.3340   34.4050 C.ar  218  TYR218      0.1957
     92  OH        31.2330   22.3620   33.5430 O.3   218  TYR218     -0.2866
     93  N         32.9660   16.5560   40.2530 N.am  219  ALA219     -0.1963
     94  CA        33.6150   15.3520   40.7710 C.3   219  ALA219      0.1728
     95  C         33.4200   15.0170   42.2720 C.2   219  ALA219      0.2616
     96  O         33.4980   13.8610   42.6030 O.2   219  ALA219     -0.2715
     97  CB        35.1230   15.3770   40.4640 C.3   219  ALA219      0.0334
     98  N         33.2140   16.0210   43.1380 N.am  220  ASP220     -0.1971
     99  CA        33.2290   15.9160   44.5910 C.3   220  ASP220      0.1709
    100  C         32.8660   14.5260   45.1300 C.2   220  ASP220      0.2293
    101  O         33.7210   13.8420   45.7570 O.2   220  ASP220     -0.2864
    102  CB        32.3940   17.0640   45.2420 C.3   220  ASP220      0.1436
    103  CG        30.9220   17.2490   44.7830 C.2   220  ASP220      0.3671
    104  OD1       30.3920   16.4930   43.9290 O.co2 220  ASP220     -0.2456
    105  OD2       30.2790   18.2020   45.3050 O.co2 220  ASP220     -0.2456
    106  N         32.1390   24.1950   47.7610 N.3   281  LEU281     -0.1245
    107  CA        31.8090   22.7200   47.7640 C.3   281  LEU281      0.1561
    108  C         32.9640   21.8920   48.1910 C.2   281  LEU281      0.2260
    109  O         32.7950   20.7540   48.6710 O.2   281  LEU281     -0.2867
    110  CB        31.4120   22.1410   46.3320 C.3   281  LEU281      0.0270
    111  CG        30.1280   22.6540   45.7130 C.3   281  LEU281      0.0019
    112  CD1       29.9550   22.1080   44.2820 C.3   281  LEU281      0.0001
    113  CD2       28.9190   22.3120   46.5890 C.3   281  LEU281      0.0001
    114  N         25.0090   27.0860   51.7660 N.3   334  ARG334     -0.1245
    115  CA        25.7390   25.8290   51.5740 C.3   334  ARG334      0.1563
    116  C         26.1100   25.1070   52.8600 C.2   334  ARG334      0.2260
    117  O         26.5350   25.7560   53.8620 O.2   334  ARG334     -0.2867
    118  CB        27.0210   26.0520   50.7270 C.3   334  ARG334      0.0307
    119  CG        26.7400   26.4970   49.2680 C.3   334  ARG334      0.0489
    120  CD        26.2280   25.3700   48.3860 C.3   334  ARG334      0.2205
    121  NE        25.9030   25.8620   47.0330 N.pl3 334  ARG334     -0.0865
    122  CZ        25.4230   25.0950   46.0340 C.cat 334  ARG334      0.5346
    123  NH1       25.1810   23.8280   46.2280 N.pl3 334  ARG334      0.1354
    124  NH2       25.1300   25.6760   44.8510 N.pl3 334  ARG334      0.1354
@<TRIPOS>BOND
     1    41    42    1
     2    50    49    1
     3    47    46    1
     4    47    48    1
     5    46    45    1
     6    45    42    1
     7    42    43    1
     8    43    44    2
     9    49    48    2
    10    49    51    1
    11    92    91    1
    12    52    53    1
    13    91    89   ar
    14    91    90   ar
    15    89    87   ar
    16    53    56    1
    17    53    54    1
    18    90    88   ar
    19    56    57    1
    20    59    57   am
    21    87    86   ar
    22    88    86   ar
    23    72    71   ar
    24    54    55    2
    25    57    58    2
    26    86    85    1
    27    73    71   ar
    28     1     2    1
    29     2     5    1
    30     2     3    1
    31    71    70    1
    32     6     5    1
    33     6     7    1
    34    69    70    1
    35    69    66    1
    36    85    82    1
    37     9     7   am
    38     7     8    2
    39    68    67    2
    40     3     4    2
    41    67    66    1
    42    66    65    1
    43    82    83    1
    44    82    81    1
    45    84    83    2
    46    79    78    1
    47    65    62   am
    48    10    11    1
    49    83    93   am
    50    81    76   am
    51    60    61    1
    52    77    76    2
    53    76    75    1
    54    14    11    1
    55    14    15    1
    56    78    75    1
    57    78    80    1
    58    62    61    1
    59    62    63    2
    60    11    12    1
    61    93    94    1
    62    61    64    1
    63    75    74    1
    64    97    94    1
    65    15    17   ar
    66    15    16   ar
    67    26    25    1
    68    26    27    1
    69    94    95    1
    70    21    12   am
    71    21    22    1
    72    17    19   ar
    73    12    13    2
    74    29    27   ar
    75    25    22    1
    76    16    18   ar
    77    27    28   ar
    78    22    23    1
    79    19    20   ar
    80    95    96    2
    81    95    98   am
    82    18    20   ar
    83    23    24    2
    84    98    99    1
    85   104   103   ar
    86   112   111    1
    87    99   100    1
    88    99   102    1
    89   103   102    1
    90   103   105   ar
    91   124   122    1
    92    40    38    1
    93    37    36    1
    94    37    38    2
    95   100   101    2
    96    36    35    1
    97    38    39    1
    98   111   110    1
    99   111   113    1
   100   122   123    1
   101   122   121    2
   102    35    34    1
   103   110   107    1
   104    30    31    1
   105    34    31    1
   106   121   120    1
   107    31    32    1
   108    32    33    2
   109   106   107    1
   110   107   108    1
   111   108   109    2
   112   120   119    1
   113   119   118    1
   114   118   115    1
   115   115   114    1
   116   115   116    1
   117   116   117    2
