@<TRIPOS>MOLECULE
tmp/5ne5A00.pdb
 125 120 0 0 0
SMALL
GASTEIGER

@<TRIPOS>ATOM
      1  N         21.1840   12.0240   38.7980 N.3    91  PHE91      -0.1227
      2  CA        22.0170   12.2960   39.9750 C.3    91  PHE91       0.1736
      3  C         21.2030   12.8760   41.1180 C.2    91  PHE91       0.2595
      4  O         21.2530   12.4400   42.3020 O.2    91  PHE91      -0.2718
      5  CB        23.2000   13.2140   39.5540 C.3    91  PHE91       0.0547
      6  CG        23.9460   13.8570   40.6980 C.ar   91  PHE91      -0.0202
      7  CD1       24.9920   13.1960   41.3650 C.ar   91  PHE91      -0.0042
      8  CD2       23.6670   15.1840   41.0240 C.ar   91  PHE91      -0.0042
      9  CE1       25.7020   13.8690   42.3880 C.ar   91  PHE91      -0.0003
     10  CE2       24.3440   15.8300   42.0480 C.ar   91  PHE91      -0.0003
     11  CZ        25.3740   15.1690   42.7290 C.ar   91  PHE91      -0.0000
     12  N         20.4860   13.9950   40.8100 N.am   92  GLU92      -0.1979
     13  CA        19.7180   14.7170   41.8560 C.3    92  GLU92       0.1602
     14  C         18.6030   13.7860   42.4330 C.2    92  GLU92       0.2287
     15  O         18.3180   13.7940   43.6410 O.2    92  GLU92      -0.2864
     16  CB        19.0850   15.9770   41.2640 C.3    92  GLU92       0.0415
     17  CG        20.0810   17.0370   40.7050 C.3    92  GLU92       0.1163
     18  CD        20.9540   17.7330   41.7000 C.2    92  GLU92       0.3649
     19  OE1       20.8000   17.5700   42.9580 O.co2  92  GLU92      -0.2457
     20  OE2       21.8570   18.5150   41.2160 O.co2  92  GLU92      -0.2457
     21  N         20.2540   11.1080   44.8810 N.3    95  ILE95      -0.1231
     22  CA        20.7990   11.5230   46.1930 C.3    95  ILE95       0.1692
     23  C         19.7240   12.1250   47.0920 C.2    95  ILE95       0.2591
     24  O         19.7960   12.0380   48.3190 O.2    95  ILE95      -0.2718
     25  CB        22.0710   12.4110   46.0660 C.3    95  ILE95       0.0266
     26  CG1       21.7800   13.8280   45.5180 C.3    95  ILE95       0.0019
     27  CG2       23.1490   11.6850   45.2790 C.3    95  ILE95       0.0020
     28  CD1       22.9810   14.7420   45.5310 C.3    95  ILE95       0.0001
     29  N         18.7170   12.7830   46.4820 N.am   96  ARG96      -0.1980
     30  CA        17.6630   13.4800   47.2470 C.3    96  ARG96       0.1597
     31  C         16.4480   12.5700   47.5670 C.2    96  ARG96       0.2287
     32  O         16.0060   12.5050   48.7340 O.2    96  ARG96      -0.2864
     33  CB        17.1870   14.7350   46.4910 C.3    96  ARG96       0.0334
     34  CG        18.2900   15.7610   46.2560 C.3    96  ARG96       0.0492
     35  CD        17.8500   16.9020   45.3740 C.3    96  ARG96       0.2205
     36  NE        18.9200   17.8690   45.0370 N.pl3  96  ARG96      -0.0865
     37  CZ        18.9870   19.1100   45.5160 C.cat  96  ARG96       0.5346
     38  NH1       18.2240   19.5000   46.5470 N.pl3  96  ARG96       0.1354
     39  NH2       19.8580   19.9690   44.9590 N.pl3  96  ARG96       0.1354
     40  N         33.2140   16.0210   43.1380 N.3   220  ASP220     -0.1225
     41  CA        33.2290   15.9160   44.5910 C.3   220  ASP220      0.1805
     42  C         32.8660   14.5260   45.1300 C.2   220  ASP220      0.2598
     43  O         33.7210   13.8420   45.7570 O.2   220  ASP220     -0.2718
     44  CB        32.3940   17.0640   45.2420 C.3   220  ASP220      0.1424
     45  CG        30.9220   17.2490   44.7830 C.2   220  ASP220      0.3668
     46  OD1       30.3920   16.4930   43.9290 O.co2 220  ASP220     -0.2456
     47  OD2       30.2790   18.2020   45.3050 O.co2 220  ASP220     -0.2456
     48  N         31.5860   14.1170   45.0100 N.am  221  SER221     -0.1952
     49  CA        31.1100   12.9510   45.7440 C.3   221  SER221      0.1924
     50  C         31.5800   11.5930   45.1910 C.2   221  SER221      0.2314
     51  O         31.3860   10.5610   45.8530 O.2   221  SER221     -0.2863
     52  CB        29.5820   13.0010   45.8840 C.3   221  SER221      0.2116
     53  OG        28.9630   13.3020   44.6400 O.3   221  SER221     -0.2180
     54  N         32.1390   24.1950   47.7610 N.3   281  LEU281     -0.1245
     55  CA        31.8090   22.7200   47.7640 C.3   281  LEU281      0.1561
     56  C         32.9640   21.8920   48.1910 C.2   281  LEU281      0.2260
     57  O         32.7950   20.7540   48.6710 O.2   281  LEU281     -0.2867
     58  CB        31.4120   22.1410   46.3320 C.3   281  LEU281      0.0270
     59  CG        30.1280   22.6540   45.7130 C.3   281  LEU281      0.0019
     60  CD1       29.9550   22.1080   44.2820 C.3   281  LEU281      0.0001
     61  CD2       28.9190   22.3120   46.5890 C.3   281  LEU281      0.0001
     62  N         25.0090   27.0860   51.7660 N.3   334  ARG334     -0.1231
     63  CA        25.7390   25.8290   51.5740 C.3   334  ARG334      0.1679
     64  C         26.1100   25.1070   52.8600 C.2   334  ARG334      0.2434
     65  O         26.5350   25.7560   53.8620 O.2   334  ARG334     -0.2733
     66  CB        27.0210   26.0520   50.7270 C.3   334  ARG334      0.0321
     67  CG        26.7400   26.4970   49.2680 C.3   334  ARG334      0.0489
     68  CD        26.2280   25.3700   48.3860 C.3   334  ARG334      0.2205
     69  NE        25.9030   25.8620   47.0330 N.pl3 334  ARG334     -0.0865
     70  CZ        25.4230   25.0950   46.0340 C.cat 334  ARG334      0.5346
     71  NH1       25.1810   23.8280   46.2280 N.pl3 334  ARG334      0.1354
     72  NH2       25.1300   25.6760   44.8510 N.pl3 334  ARG334      0.1354
     73  N         26.1070   23.7450   52.8700 N.am  335  PRO335     -0.2718
     74  CA        26.3030   22.9660   54.1060 C.3   335  PRO335      0.1535
     75  C         27.7040   22.3520   54.2910 C.2   335  PRO335      0.2598
     76  O         27.9090   21.6240   55.3020 O.2   335  PRO335     -0.2715
     77  CB        25.2950   21.8090   53.9350 C.3   335  PRO335      0.0310
     78  CG        25.3580   21.5440   52.4500 C.3   335  PRO335      0.0237
     79  CD        25.4190   22.9130   51.8020 C.3   335  PRO335      0.0939
     80  N         28.6680   22.5580   53.3580 N.am  336  GLU336     -0.1978
     81  CA        29.8980   21.7240   53.3860 C.3   336  GLU336      0.1602
     82  C         30.8250   21.9900   54.5950 C.2   336  GLU336      0.2287
     83  O         31.5720   21.0500   54.9840 O.2   336  GLU336     -0.2864
     84  CB        30.6650   21.7950   52.0660 C.3   336  GLU336      0.0415
     85  CG        29.9600   21.0610   50.9130 C.3   336  GLU336      0.1163
     86  CD        28.7500   21.7950   50.2890 C.2   336  GLU336      0.3649
     87  OE1       28.5880   23.0500   50.5040 O.co2 336  GLU336     -0.2457
     88  OE2       27.9960   21.1040   49.5480 O.co2 336  GLU336     -0.2457
     89  N         18.4030   20.7320   49.9340 N.3   394  TYR394     -0.1241
     90  CA        19.4380   20.1030   50.7620 C.3   394  TYR394      0.1605
     91  C         19.5380   20.7330   52.1780 C.2   394  TYR394      0.2264
     92  O         20.0050   20.0530   53.1080 O.2   394  TYR394     -0.2867
     93  CB        20.8280   20.0900   50.0690 C.3   394  TYR394      0.0534
     94  CG        21.2910   21.4330   49.4670 C.ar  394  TYR394     -0.0201
     95  CD1       21.7210   22.5190   50.2540 C.ar  394  TYR394     -0.0009
     96  CD2       21.3560   21.5860   48.0730 C.ar  394  TYR394     -0.0009
     97  CE1       22.1920   23.7150   49.6720 C.ar  394  TYR394      0.0417
     98  CE2       21.7860   22.7760   47.4900 C.ar  394  TYR394      0.0417
     99  CZ        22.2050   23.8350   48.2720 C.ar  394  TYR394      0.1957
    100  OH        22.5730   25.0250   47.6740 O.3   394  TYR394     -0.2866
    101  N         20.7010   18.5030   55.4160 N.3   398  GLU398     -0.1245
    102  CA        22.1290   18.6700   55.7500 C.3   398  GLU398      0.1567
    103  C         22.4330   19.5260   56.9780 C.2   398  GLU398      0.2260
    104  O         22.6770   18.9770   58.0740 O.2   398  GLU398     -0.2867
    105  CB        22.9430   19.1180   54.5000 C.3   398  GLU398      0.0388
    106  CG        22.8350   18.1340   53.3270 C.3   398  GLU398      0.1160
    107  CD        24.0560   18.1450   52.4130 C.2   398  GLU398      0.3649
    108  OE1       25.2170   18.1690   52.9660 O.co2 398  GLU398     -0.2457
    109  OE2       23.8480   18.1270   51.1860 O.co2 398  GLU398     -0.2457
    110  N         26.0180   11.5520   50.7490 N.3   422  THR422     -0.1203
    111  CA        26.5170   12.9040   50.4140 C.3   422  THR422      0.1994
    112  C         25.4700   14.0180   50.6210 C.2   422  THR422      0.2617
    113  O         25.8180   15.2150   50.6010 O.2   422  THR422     -0.2717
    114  CB        27.0980   12.9510   48.9490 C.3   422  THR422      0.1784
    115  OG1       27.9670   14.0970   48.8550 O.3   422  THR422     -0.2211
    116  CG2       26.0220   13.0460   47.8920 C.3   422  THR422      0.0376
    117  N         24.1750   13.5990   50.7340 N.am  423  GLU423     -0.1979
    118  CA        23.0400   14.4790   51.0020 C.3   423  GLU423      0.1602
    119  C         22.6550   14.4410   52.5140 C.2   423  GLU423      0.2287
    120  O         21.5950   14.9220   52.9200 O.2   423  GLU423     -0.2864
    121  CB        21.8270   14.0120   50.1270 C.3   423  GLU423      0.0415
    122  CG        20.6640   14.9930   50.0210 C.3   423  GLU423      0.1163
    123  CD        20.9130   16.1790   49.1070 C.2   423  GLU423      0.3649
    124  OE1       21.9520   16.2830   48.4360 O.co2 423  GLU423     -0.2457
    125  OE2       19.9840   17.1010   49.0540 O.co2 423  GLU423     -0.2457
@<TRIPOS>BOND
     1     1     2    1
     2     5     2    1
     3     5     6    1
     4     2     3    1
     5     6     8   ar
     6     6     7   ar
     7    17    16    1
     8    17    18    1
     9    12     3   am
    10    12    13    1
    11     8    10   ar
    12     3     4    2
    13    20    18   ar
    14    16    13    1
    15     7     9   ar
    16    18    19   ar
    17    13    14    1
    18    10    11   ar
    19     9    11   ar
    20    14    15    2
    21    40    41    1
    22    46    45   ar
    23    60    59    1
    24    41    42    1
    25    41    44    1
    26    53    52    1
    27    45    44    1
    28    45    47   ar
    29    72    70    1
    30    21    22    1
    31    39    37    1
    32    48    42   am
    33    48    49    1
    34    36    35    1
    35    36    37    2
    36    42    43    2
    37    50    49    1
    38    50    51    2
    39    27    25    1
    40    35    34    1
    41    37    38    1
    42    26    28    1
    43    26    25    1
    44    59    58    1
    45    59    61    1
    46    49    52    1
    47    70    71    1
    48    70    69    2
    49    25    22    1
    50    22    23    1
    51    34    33    1
    52    58    55    1
    53    29    23   am
    54    29    30    1
    55    33    30    1
    56    69    68    1
    57    23    24    2
    58    30    31    1
    59    98    96   ar
    60    98    99   ar
    61    31    32    2
    62   100    99    1
    63    54    55    1
    64    55    56    1
    65   116   114    1
    66    96    94   ar
    67    56    57    2
    68    99    97   ar
    69    68    67    1
    70   124   123   ar
    71   115   114    1
    72   114   111    1
    73   125   123   ar
    74   123   122    1
    75    67    66    1
    76    94    93    1
    77    94    95   ar
    78    88    86   ar
    79    97    95   ar
    80    89    90    1
    81   122   121    1
    82    93    90    1
    83   121   118    1
    84    86    87   ar
    85    86    85    1
    86   111   112    1
    87   111   110    1
    88   113   112    2
    89   112   117   am
    90    66    63    1
    91   117   118    1
    92    90    91    1
    93    85    84    1
    94   118   119    1
    95   109   107   ar
    96    63    62    1
    97    63    64    1
    98    79    78    1
    99    79    73    1
   100    84    81    1
   101    91    92    2
   102   107   108   ar
   103   107   106    1
   104    78    77    1
   105   119   120    2
   106    64    73   am
   107    64    65    2
   108    73    74    1
   109   106   105    1
   110    80    81    1
   111    80    75   am
   112    81    82    1
   113    77    74    1
   114    74    75    1
   115    75    76    2
   116   105   102    1
   117    82    83    2
   118   101   102    1
   119   102   103    1
   120   103   104    2
