@<TRIPOS>MOLECULE
tmp/5neaA00.pdb
 136 132 0 0 0
SMALL
GASTEIGER

@<TRIPOS>ATOM
      1  N        -12.7120    6.1530   11.1140 N.3    89  GLN89      -0.1245
      2  CA       -12.4280    4.9920   10.2730 C.3    89  GLN89       0.1566
      3  C        -12.6820    3.7330   11.0600 C.2    89  GLN89       0.2260
      4  O        -12.6920    3.7730   12.2880 O.2    89  GLN89      -0.2867
      5  CB       -10.9630    5.0160    9.7760 C.3    89  GLN89       0.0367
      6  CG        -9.9210    5.1930   10.8900 C.3    89  GLN89       0.0905
      7  CD        -9.1110    3.9480   11.1710 C.2    89  GLN89       0.2608
      8  OE1       -9.6130    2.8210   11.0930 O.2    89  GLN89      -0.2717
      9  NE2       -7.8540    4.1450   11.5140 N.am   89  GLN89      -0.0878
     10  N        -11.2170   -0.5330   10.8390 N.3    91  HIS91      -0.1241
     11  CA       -10.3450   -1.5200   10.2350 C.3    91  HIS91       0.1621
     12  C        -10.4210   -2.7840   11.0790 C.2    91  HIS91       0.2264
     13  O        -11.0550   -2.8020   12.1310 O.2    91  HIS91      -0.2867
     14  CB        -8.9040   -1.0030   10.1930 C.3    91  HIS91       0.0745
     15  CG        -8.3640   -0.7070   11.5500 C.ar   91  HIS91       0.0817
     16  ND1       -8.5240    0.5100   12.1820 N.ar   91  HIS91      -0.2268
     17  CD2       -7.7400   -1.5150   12.4360 C.ar   91  HIS91       0.1154
     18  CE1       -7.9980    0.4430   13.3940 C.ar   91  HIS91       0.1986
     19  NE2       -7.5010   -0.7740   13.5630 N.ar   91  HIS91      -0.2212
     20  N         -8.0570   -6.4830   12.4060 N.3    93  HIS93      -0.1241
     21  CA        -6.8440   -7.2730   12.5470 C.3    93  HIS93       0.1621
     22  C         -7.2910   -8.7200   12.4540 C.2    93  HIS93       0.2264
     23  O         -8.3550   -9.0720   12.9690 O.2    93  HIS93      -0.2867
     24  CB        -6.1800   -7.0230   13.9040 C.3    93  HIS93       0.0745
     25  CG        -5.9090   -5.5770   14.1700 C.ar   93  HIS93       0.0817
     26  ND1       -4.6700   -5.0140   13.9610 N.ar   93  HIS93      -0.2268
     27  CD2       -6.7240   -4.5690   14.5620 C.ar   93  HIS93       0.1154
     28  CE1       -4.7250   -3.7200   14.2470 C.ar   93  HIS93       0.1986
     29  NE2       -5.9650   -3.4230   14.6010 N.ar   93  HIS93      -0.2212
     30  N        -12.0350   -2.7080   14.7840 N.3   116  HIS116     -0.1241
     31  CA       -11.8110   -1.4780   15.5270 C.3   116  HIS116      0.1621
     32  C        -12.4890   -0.3150   14.8270 C.2   116  HIS116      0.2264
     33  O        -12.1090    0.0570   13.7110 O.2   116  HIS116     -0.2867
     34  CB       -10.3170   -1.1920   15.6340 C.3   116  HIS116      0.0745
     35  CG        -9.6070   -2.1540   16.5260 C.ar  116  HIS116      0.0817
     36  ND1       -8.2440   -2.3770   16.4710 N.ar  116  HIS116     -0.2268
     37  CD2      -10.0900   -2.9830   17.4810 C.ar  116  HIS116      0.1154
     38  CE1       -7.9200   -3.2810   17.3770 C.ar  116  HIS116      0.1986
     39  NE2       -9.0200   -3.6730   17.9980 N.ar  116  HIS116     -0.2212
     40  N        -12.8170    3.4730   15.1420 N.3   118  VAL118     -0.1245
     41  CA       -11.9530    4.4850   15.7560 C.3   118  VAL118      0.1561
     42  C        -12.6550    5.8320   15.7760 C.2   118  VAL118      0.2260
     43  O        -13.1260    6.2960   14.7340 O.2   118  VAL118     -0.2867
     44  CB       -10.6350    4.5960   14.9650 C.3   118  VAL118      0.0252
     45  CG1       -9.6960    5.6200   15.6070 C.3   118  VAL118      0.0019
     46  CG2       -9.9630    3.2300   14.7980 C.3   118  VAL118      0.0019
     47  N         -8.1660   14.7930   14.6450 N.3   127  PHE127     -0.1241
     48  CA        -7.6160   13.5100   15.0450 C.3   127  PHE127      0.1605
     49  C         -6.1580   13.6320   15.4890 C.2   127  PHE127      0.2264
     50  O         -5.7500   13.0330   16.4930 O.2   127  PHE127     -0.2867
     51  CB        -7.7620   12.5150   13.8910 C.3   127  PHE127      0.0534
     52  CG        -7.1980   11.1640   14.1950 C.ar  127  PHE127     -0.0203
     53  CD1       -7.9540   10.2190   14.8800 C.ar  127  PHE127     -0.0042
     54  CD2       -5.8930   10.8310   13.8210 C.ar  127  PHE127     -0.0042
     55  CE1       -7.4290    8.9720   15.1760 C.ar  127  PHE127     -0.0003
     56  CE2       -5.3700    9.5830   14.1170 C.ar  127  PHE127     -0.0003
     57  CZ        -6.1380    8.6540   14.8050 C.ar  127  PHE127     -0.0000
     58  N         -4.8700   12.4810   19.3220 N.3   131  VAL131     -0.1245
     59  CA        -3.9650   11.3740   19.6950 C.3   131  VAL131      0.1561
     60  C         -2.8820   11.7970   20.6880 C.2   131  VAL131      0.2260
     61  O         -2.1810   10.9440   21.2290 O.2   131  VAL131     -0.2867
     62  CB        -3.3150   10.6430   18.4920 C.3   131  VAL131      0.0252
     63  CG1       -4.3750   10.0530   17.5810 C.3   131  VAL131      0.0019
     64  CG2       -2.3830   11.5570   17.7080 C.3   131  VAL131      0.0019
     65  N         -9.0350    9.4560   22.0940 N.3   137  LEU137     -0.1245
     66  CA        -9.7200    8.4970   21.2360 C.3   137  LEU137      0.1561
     67  C        -10.5840    7.5430   22.0340 C.2   137  LEU137      0.2260
     68  O        -10.3090    7.2670   23.2030 O.2   137  LEU137     -0.2867
     69  CB        -8.7080    7.6600   20.4620 C.3   137  LEU137      0.0270
     70  CG        -7.7730    8.3010   19.4410 C.3   137  LEU137      0.0019
     71  CD1       -7.1410    7.2180   18.5740 C.3   137  LEU137      0.0001
     72  CD2       -8.3050    9.4620   18.6150 C.3   137  LEU137      0.0001
     73  N        -11.9140    3.7070   21.0050 N.3   139  VAL139     -0.1245
     74  CA       -11.9670    2.6520   19.9910 C.3   139  VAL139      0.1561
     75  C        -12.9260    1.5830   20.4820 C.2   139  VAL139      0.2260
     76  O        -12.7880    1.0580   21.6020 O.2   139  VAL139     -0.2867
     77  CB       -10.5910    2.0560   19.6270 C.3   139  VAL139      0.0252
     78  CG1      -10.7460    1.0570   18.4860 C.3   139  VAL139      0.0019
     79  CG2       -9.6420    3.1490   19.1900 C.3   139  VAL139      0.0019
     80  N         -3.0260    3.1180   21.1540 N.3   194  LEU194     -0.1231
     81  CA        -3.0250    2.5670   19.8020 C.3   194  LEU194      0.1693
     82  C         -2.2840    1.2370   19.8370 C.2   194  LEU194      0.2593
     83  O         -1.2780    1.0790   20.5460 O.2   194  LEU194     -0.2718
     84  CB        -2.2960    3.5080   18.8390 C.3   194  LEU194      0.0284
     85  CG        -2.8210    4.9420   18.7690 C.3   194  LEU194      0.0019
     86  CD1       -1.9420    5.7520   17.8220 C.3   194  LEU194      0.0001
     87  CD2       -4.2920    5.0200   18.3360 C.3   194  LEU194      0.0001
     88  N         -2.7510    0.2630   19.0630 N.am  195  THR195     -0.1939
     89  CA        -2.0860   -1.0480   19.0440 C.3   195  THR195      0.2028
     90  C         -1.0530   -1.1760   17.9300 C.2   195  THR195      0.2643
     91  O         -0.4580   -2.2420   17.7740 O.2   195  THR195     -0.2714
     92  CB        -3.0900   -2.1910   18.8930 C.3   195  THR195      0.1808
     93  OG1       -3.6940   -2.1050   17.5950 O.3   195  THR195     -0.2208
     94  CG2       -4.1660   -2.1640   20.0170 C.3   195  THR195      0.0379
     95  N         -0.8560   -0.1080   17.1520 N.am  196  THR196     -0.1937
     96  CA         0.2520   -0.0540   16.1860 C.3   196  THR196      0.2013
     97  C          1.0660    1.1910   16.4890 C.2   196  THR196      0.2484
     98  O          0.5580    2.1330   17.1070 O.2   196  THR196     -0.2729
     99  CB        -0.2130    0.0430   14.7080 C.3   196  THR196      0.1807
    100  OG1       -0.7170    1.3600   14.4440 O.3   196  THR196     -0.2208
    101  CG2       -1.2580   -0.9940   14.3550 C.3   196  THR196      0.0379
    102  N          2.3390    1.2190   16.0450 N.am  197  PRO197     -0.2715
    103  CA         3.0760    2.4820   16.1050 C.3   197  PRO197      0.1521
    104  C          2.1930    3.6050   15.5340 C.2   197  PRO197      0.2440
    105  O          1.5070    3.3770   14.5220 O.2   197  PRO197     -0.2731
    106  CB         4.2990    2.1910   15.2320 C.3   197  PRO197      0.0310
    107  CG         4.5500    0.7390   15.4750 C.3   197  PRO197      0.0237
    108  CD         3.1690    0.1290   15.4940 C.3   197  PRO197      0.0939
    109  N          2.1650    4.7910   16.1450 N.am  198  PRO198     -0.2727
    110  CA         3.0850    5.2120   17.2110 C.3   198  PRO198      0.1402
    111  C          2.7550    4.7940   18.6670 C.2   198  PRO198      0.2269
    112  O          3.4130    5.2740   19.5890 O.2   198  PRO198     -0.2865
    113  CB         3.0710    6.7400   17.0710 C.3   198  PRO198      0.0296
    114  CG         1.6940    7.0560   16.5650 C.3   198  PRO198      0.0237
    115  CD         1.3750    5.9240   15.6100 C.3   198  PRO198      0.0939
    116  N         -6.1090    6.2050   24.1790 N.3   203  VAL203     -0.1245
    117  CA        -7.3500    5.4770   23.8660 C.3   203  VAL203      0.1561
    118  C         -8.1380    5.0200   25.0940 C.2   203  VAL203      0.2260
    119  O         -7.5870    4.3680   25.9750 O.2   203  VAL203     -0.2867
    120  CB        -7.0670    4.2220   22.9920 C.3   203  VAL203      0.0252
    121  CG1       -8.3700    3.5140   22.6050 C.3   203  VAL203      0.0019
    122  CG2       -6.2980    4.6060   21.7340 C.3   203  VAL203      0.0019
    123  N        -10.5120    2.2600   25.5800 N.3   205  TRP205     -0.1241
    124  CA       -10.9400    1.0400   24.9000 C.3   205  TRP205      0.1605
    125  C        -12.3020    0.6050   25.4040 C.2   205  TRP205      0.2264
    126  O        -12.5460    0.5750   26.6100 O.2   205  TRP205     -0.2867
    127  CB        -9.9200   -0.1080   25.0950 C.3   205  TRP205      0.0550
    128  CG        -8.8340    0.0020   24.1090 C.ar  205  TRP205      0.0003
    129  CD1       -7.6160    0.6050   24.2850 C.ar  205  TRP205      0.0946
    130  CD2       -8.8950   -0.3900   22.7340 C.ar  205  TRP205      0.0152
    131  NE1       -6.8970    0.5700   23.1130 N.ar  205  TRP205     -0.2442
    132  CE2       -7.6640   -0.0300   22.1430 C.ar  205  TRP205      0.0810
    133  CE3       -9.8590   -1.0390   21.9510 C.ar  205  TRP205      0.0012
    134  CZ2       -7.3800   -0.2880   20.7950 C.ar  205  TRP205      0.0191
    135  CZ3       -9.5690   -1.3130   20.6260 C.ar  205  TRP205      0.0001
    136  CH2       -8.3410   -0.9310   20.0560 C.ar  205  TRP205      0.0015
@<TRIPOS>BOND
     1     5     2    1
     2     5     6    1
     3    14    11    1
     4    14    15    1
     5    11    10    1
     6    11    12    1
     7     2     3    1
     8     2     1    1
     9     6     7    1
    10     3     4    2
    11    12    13    2
    12     8     7    2
    13     7     9   am
    14    15    16   ar
    15    15    17   ar
    16    16    18   ar
    17    20    21    1
    18    17    19   ar
    19    22    21    1
    20    22    23    2
    21    21    24    1
    22    18    19   ar
    23    33    32    2
    24    54    56   ar
    25    54    52   ar
    26    51    52    1
    27    51    48    1
    28    24    25    1
    29    26    25   ar
    30    26    28   ar
    31    56    57   ar
    32    25    27   ar
    33    52    53   ar
    34    28    29   ar
    35   101    99    1
    36   100    99    1
    37   105   104    2
    38    27    29   ar
    39    47    48    1
    40    99    96    1
    41    43    42    2
    42    30    31    1
    43    46    44    1
    44    57    55   ar
    45    32    31    1
    46    53    55   ar
    47    44    45    1
    48    44    41    1
    49    48    49    1
    50    40    41    1
    51   106   107    1
    52   106   103    1
    53   107   108    1
    54    49    50    2
    55   108   102    1
    56    31    34    1
    57   104   103    1
    58   104   109   am
    59   115   109    1
    60   115   114    1
    61    34    35    1
    62    41    42    1
    63   102   103    1
    64   102    97   am
    65   109   110    1
    66    96    97    1
    67    96    95    1
    68    36    35   ar
    69    36    38   ar
    70    97    98    2
    71    35    37   ar
    72   114   113    1
    73   113   110    1
    74    95    90   am
    75   110   111    1
    76    38    39   ar
    77    37    39   ar
    78    63    62    1
    79    93    92    1
    80    64    62    1
    81    91    90    2
    82    86    85    1
    83    90    89    1
    84    87    85    1
    85    78    77    1
    86    62    59    1
    87    71    70    1
    88    72    70    1
    89   111   112    2
    90    85    84    1
    91    84    81    1
    92    92    89    1
    93    92    94    1
    94    89    88    1
    95    88    82   am
    96    79    77    1
    97    58    59    1
    98    70    69    1
    99    77    74    1
   100    59    60    1
   101    81    82    1
   102    81    80    1
   103    82    83    2
   104    74    75    1
   105    74    73    1
   106   136   135   ar
   107   136   134   ar
   108    69    66    1
   109    75    76    2
   110   135   133   ar
   111    60    61    2
   112   134   132   ar
   113    66    67    1
   114    66    65    1
   115   122   120    1
   116   133   130   ar
   117    67    68    2
   118   132   130   ar
   119   132   131   ar
   120   121   120    1
   121   130   128   ar
   122   120   117    1
   123   131   129   ar
   124   117   116    1
   125   117   118    1
   126   128   129   ar
   127   128   127    1
   128   124   127    1
   129   124   125    1
   130   124   123    1
   131   118   119    2
   132   125   126    2
