@<TRIPOS>MOLECULE
tmp/5nebB00.pdb
 147 140 0 0 0
SMALL
GASTEIGER

@<TRIPOS>ATOM
      1  N          0.2510  -25.1040  -38.0360 N.3    13  GLU13      -0.1245
      2  CA        -0.7690  -24.1840  -37.5390 C.3    13  GLU13       0.1567
      3  C         -0.2150  -22.7710  -37.6200 C.2    13  GLU13       0.2260
      4  O          0.7620  -22.4540  -36.9350 O.2    13  GLU13      -0.2867
      5  CB        -1.1540  -24.5310  -36.0990 C.3    13  GLU13       0.0388
      6  CG        -2.3380  -23.7390  -35.5530 C.3    13  GLU13       0.1160
      7  CD        -3.6770  -24.3170  -35.9700 C.2    13  GLU13       0.3649
      8  OE1       -3.8260  -25.5570  -35.9490 O.co2  13  GLU13      -0.2457
      9  OE2       -4.5810  -23.5310  -36.3200 O.co2  13  GLU13      -0.2457
     10  N          2.1320  -20.4040  -35.8530 N.3    16  TYR16      -0.1241
     11  CA         2.9910  -21.1230  -34.9170 C.3    16  TYR16       0.1605
     12  C          3.9820  -22.0150  -35.6510 C.2    16  TYR16       0.2264
     13  O          5.1820  -22.0040  -35.3520 O.2    16  TYR16      -0.2867
     14  CB         2.1390  -21.9470  -33.9540 C.3    16  TYR16       0.0534
     15  CG         1.1370  -21.1240  -33.1840 C.ar   16  TYR16      -0.0201
     16  CD1        1.5050  -20.4580  -32.0240 C.ar   16  TYR16      -0.0009
     17  CD2       -0.1770  -21.0100  -33.6180 C.ar   16  TYR16      -0.0009
     18  CE1        0.5930  -19.7040  -31.3130 C.ar   16  TYR16       0.0417
     19  CE2       -1.0970  -20.2580  -32.9140 C.ar   16  TYR16       0.0417
     20  CZ        -0.7060  -19.6070  -31.7630 C.ar   16  TYR16       0.1957
     21  OH        -1.6180  -18.8550  -31.0620 O.3    16  TYR16      -0.2866
     22  N         -4.6380  -32.2360  -31.9320 N.3    61  TYR61      -0.1241
     23  CA        -3.9810  -31.8050  -30.7030 C.3    61  TYR61       0.1605
     24  C         -4.2490  -32.7750  -29.5590 C.2    61  TYR61       0.2264
     25  O         -3.3520  -33.0440  -28.7540 O.2    61  TYR61      -0.2867
     26  CB        -4.4260  -30.3890  -30.3400 C.3    61  TYR61       0.0534
     27  CG        -3.7900  -29.3510  -31.2300 C.ar   61  TYR61      -0.0201
     28  CD1       -4.3380  -29.0370  -32.4680 C.ar   61  TYR61      -0.0009
     29  CD2       -2.6220  -28.7090  -30.8490 C.ar   61  TYR61      -0.0009
     30  CE1       -3.7450  -28.1010  -33.2950 C.ar   61  TYR61       0.0417
     31  CE2       -2.0240  -27.7690  -31.6660 C.ar   61  TYR61       0.0417
     32  CZ        -2.5900  -27.4690  -32.8860 C.ar   61  TYR61       0.1957
     33  OH        -1.9940  -26.5340  -33.6970 O.3    61  TYR61      -0.2866
     34  N          0.8320  -24.5080  -29.6860 N.3    88  PRO88      -0.2102
     35  CA        -0.2380  -23.8690  -28.9140 C.3    88  PRO88       0.1504
     36  C         -1.1390  -24.8990  -28.2520 C.2    88  PRO88       0.2576
     37  O         -2.3300  -24.9860  -28.5610 O.2    88  PRO88      -0.2718
     38  CB        -0.9830  -23.0380  -29.9650 C.3    88  PRO88       0.0282
     39  CG        -0.7230  -23.7460  -31.2470 C.3    88  PRO88       0.0208
     40  CD         0.6720  -24.2800  -31.1350 C.3    88  PRO88       0.0893
     41  N         -0.5770  -25.6900  -27.3420 N.am   89  LEU89      -0.1966
     42  CA        -1.3100  -26.7660  -26.6860 C.3    89  LEU89       0.1728
     43  C         -2.0480  -26.1830  -25.4860 C.2    89  LEU89       0.2616
     44  O         -1.4230  -25.7720  -24.5020 O.2    89  LEU89      -0.2715
     45  CB        -0.3590  -27.8850  -26.2720 C.3    89  LEU89       0.0311
     46  CG        -0.9960  -29.1640  -25.7270 C.3    89  LEU89       0.0022
     47  CD1       -1.8570  -29.8500  -26.7800 C.3    89  LEU89       0.0001
     48  CD2        0.0840  -30.1090  -25.2260 C.3    89  LEU89       0.0001
     49  N         -3.3760  -26.1450  -25.5700 N.am   90  THR90      -0.1951
     50  CA        -4.1780  -25.4990  -24.5410 C.3    90  THR90       0.1897
     51  C         -4.0860  -26.2720  -23.2300 C.2    90  THR90       0.2313
     52  O         -4.2110  -27.5000  -23.2070 O.2    90  THR90      -0.2863
     53  CB        -5.6330  -25.3930  -24.9970 C.3    90  THR90       0.1794
     54  OG1       -5.6870  -24.7270  -26.2670 O.3    90  THR90      -0.2208
     55  CG2       -6.4590  -24.6090  -23.9870 C.3    90  THR90       0.0378
     56  N         -6.5460  -32.5640  -19.6700 N.3    95  ARG95      -0.1245
     57  CA        -5.2190  -32.8890  -20.1840 C.3    95  ARG95       0.1563
     58  C         -4.1960  -32.9700  -19.0580 C.2    95  ARG95       0.2260
     59  O         -3.2700  -33.7880  -19.1120 O.2    95  ARG95      -0.2867
     60  CB        -4.7900  -31.8550  -21.2210 C.3    95  ARG95       0.0307
     61  CG        -5.5100  -32.0000  -22.5480 C.3    95  ARG95       0.0489
     62  CD        -5.1730  -30.8680  -23.4930 C.3    95  ARG95       0.2205
     63  NE        -5.6830  -31.1220  -24.8360 N.pl3  95  ARG95      -0.0865
     64  CZ        -5.6450  -30.2440  -25.8330 C.cat  95  ARG95       0.5346
     65  NH1       -5.1220  -29.0400  -25.6460 N.pl3  95  ARG95       0.1354
     66  NH2       -6.1330  -30.5720  -27.0220 N.pl3  95  ARG95       0.1354
     67  N        -12.7740  -27.2680  -34.5210 N.3   137  VAL137     -0.1245
     68  CA       -11.7920  -28.2640  -34.9260 C.3   137  VAL137      0.1561
     69  C        -12.0360  -29.5500  -34.1500 C.2   137  VAL137      0.2260
     70  O        -12.2700  -29.5330  -32.9350 O.2   137  VAL137     -0.2867
     71  CB       -10.3670  -27.7300  -34.7000 C.3   137  VAL137      0.0252
     72  CG1       -9.3250  -28.8080  -34.9770 C.3   137  VAL137      0.0019
     73  CG2      -10.1100  -26.5210  -35.5770 C.3   137  VAL137      0.0019
     74  N         -9.9540  -31.1920  -30.5250 N.3   140  GLY140     -0.1210
     75  CA        -9.2010  -30.1540  -29.8650 C.3   140  GLY140      0.1956
     76  C         -9.8440  -29.7800  -28.5370 C.2   140  GLY140      0.2613
     77  O        -10.8480  -30.3480  -28.1120 O.2   140  GLY140     -0.2717
     78  N         -9.2330  -28.7920  -27.8810 N.am  141  SER141     -0.1938
     79  CA        -9.7340  -28.3530  -26.5830 C.3   141  SER141      0.2055
     80  C        -11.0640  -27.6170  -26.7060 C.2   141  SER141      0.2644
     81  O        -11.8930  -27.6900  -25.7930 O.2   141  SER141     -0.2714
     82  CB        -8.7000  -27.4630  -25.8960 C.3   141  SER141      0.2130
     83  OG        -8.3990  -26.3350  -26.6910 O.3   141  SER141     -0.2179
     84  N        -11.2850  -26.9020  -27.8130 N.am  142  THR142     -0.1936
     85  CA       -12.5620  -26.2190  -28.0070 C.3   142  THR142      0.2028
     86  C        -13.7010  -27.2200  -28.1580 C.2   142  THR142      0.2642
     87  O        -14.7760  -27.0350  -27.5760 O.2   142  THR142     -0.2714
     88  CB       -12.4920  -25.2950  -29.2250 C.3   142  THR142      0.1808
     89  OG1      -11.5120  -24.2740  -29.0010 O.3   142  THR142     -0.2208
     90  CG2      -13.8460  -24.6400  -29.4940 C.3   142  THR142      0.0379
     91  N        -13.4920  -28.2800  -28.9420 N.am  143  MET143     -0.1976
     92  CA       -14.5010  -29.3290  -29.0310 C.3   143  MET143      0.1605
     93  C        -14.7810  -29.9250  -27.6600 C.2   143  MET143      0.2287
     94  O        -15.9400  -30.1420  -27.2910 O.2   143  MET143     -0.2864
     95  CB       -14.0520  -30.4260  -29.9950 C.3   143  MET143      0.0413
     96  CG       -15.1240  -31.4780  -30.2640 C.3   143  MET143      0.0598
     97  SD       -14.4640  -33.0690  -30.7930 S.3   143  MET143     -0.1393
     98  CE       -13.7220  -33.6520  -29.2660 C.3   143  MET143      0.0692
     99  N         -7.7580  -25.8640  -38.4430 N.3   173  SER173     -0.1217
    100  CA        -8.1200  -24.4540  -38.5470 C.3   173  SER173      0.1889
    101  C         -8.2090  -24.0130  -40.0020 C.2   173  SER173      0.2288
    102  O         -9.1530  -23.3180  -40.3950 O.2   173  SER173     -0.2866
    103  CB        -7.1040  -23.5950  -37.7930 C.3   173  SER173      0.2089
    104  OG        -7.1050  -23.8980  -36.4090 O.3   173  SER173     -0.2183
    105  N        -16.0450  -21.8370  -34.1990 N.3   188  LEU188     -0.1231
    106  CA       -15.6360  -21.6410  -32.8160 C.3   188  LEU188      0.1693
    107  C        -14.1320  -21.8590  -32.7210 C.2   188  LEU188      0.2592
    108  O        -13.6390  -22.9620  -32.9830 O.2   188  LEU188     -0.2718
    109  CB       -16.4000  -22.5900  -31.9000 C.3   188  LEU188      0.0284
    110  CG       -17.8680  -22.1910  -31.7590 C.3   188  LEU188      0.0019
    111  CD1      -18.7120  -23.3800  -31.3710 C.3   188  LEU188      0.0001
    112  CD2      -18.0000  -21.0790  -30.7260 C.3   188  LEU188      0.0001
    113  N        -13.4100  -20.8020  -32.3600 N.am  189  MET189     -0.1965
    114  CA       -11.9680  -20.7360  -32.5310 C.3   189  MET189      0.1736
    115  C        -11.3610  -19.9890  -31.3520 C.2   189  MET189      0.2616
    116  O        -12.0290  -19.2040  -30.6760 O.2   189  MET189     -0.2715
    117  CB       -11.6270  -20.0440  -33.8630 C.3   189  MET189      0.0427
    118  CG       -10.1540  -19.8020  -34.1320 C.3   189  MET189      0.0599
    119  SD        -9.8990  -19.0180  -35.7430 S.3   189  MET189     -0.1393
    120  CE        -9.3490  -20.4150  -36.7160 C.3   189  MET189      0.0692
    121  N        -10.0810  -20.2430  -31.1050 N.am  190  GLU190     -0.1977
    122  CA        -9.3810  -19.5660  -30.0250 C.3   190  GLU190      0.1602
    123  C         -8.9530  -18.1730  -30.4690 C.2   190  GLU190      0.2287
    124  O         -8.5490  -17.9640  -31.6180 O.2   190  GLU190     -0.2864
    125  CB        -8.1850  -20.3980  -29.5700 C.3   190  GLU190      0.0415
    126  CG        -8.6200  -21.6500  -28.8190 C.3   190  GLU190      0.1163
    127  CD        -7.4710  -22.5660  -28.4890 C.2   190  GLU190      0.3649
    128  OE1       -6.4010  -22.4000  -29.1030 O.co2 190  GLU190     -0.2457
    129  OE2       -7.6370  -23.4480  -27.6190 O.co2 190  GLU190     -0.2457
    130  N         -5.8510  -17.1800  -32.6260 N.3   193  SER193     -0.1217
    131  CA        -5.9310  -17.4990  -34.0470 C.3   193  SER193      0.1889
    132  C         -6.8670  -16.5400  -34.7750 C.2   193  SER193      0.2288
    133  O         -6.5930  -16.1460  -35.9140 O.2   193  SER193     -0.2866
    134  CB        -6.3930  -18.9440  -34.2370 C.3   193  SER193      0.2089
    135  OG        -5.4590  -19.8550  -33.6850 O.3   193  SER193     -0.2183
    136  N         -1.7140  -21.3270  -23.3090 N.3   216  TYR216     -0.1241
    137  CA        -0.8800  -22.3000  -24.0010 C.3   216  TYR216      0.1605
    138  C          0.3540  -22.6070  -23.1660 C.2   216  TYR216      0.2264
    139  O          0.9880  -21.7000  -22.6230 O.2   216  TYR216     -0.2867
    140  CB        -0.4300  -21.7760  -25.3650 C.3   216  TYR216      0.0534
    141  CG        -1.5300  -21.5360  -26.3660 C.ar  216  TYR216     -0.0201
    142  CD1       -2.6440  -22.3620  -26.4300 C.ar  216  TYR216     -0.0009
    143  CD2       -1.4470  -20.4760  -27.2580 C.ar  216  TYR216     -0.0009
    144  CE1       -3.6450  -22.1330  -27.3570 C.ar  216  TYR216      0.0417
    145  CE2       -2.4360  -20.2390  -28.1790 C.ar  216  TYR216      0.0417
    146  CZ        -3.5310  -21.0670  -28.2290 C.ar  216  TYR216      0.1957
    147  OH        -4.5130  -20.8160  -29.1580 O.3   216  TYR216     -0.2866
@<TRIPOS>BOND
     1   102   101    2
     2   101   100    1
     3   100    99    1
     4   100   103    1
     5     1     2    1
     6   103   104    1
     7     3     2    1
     8     3     4    2
     9     2     5    1
    10   120   119    1
    11     9     7   ar
    12     5     6    1
    13     7     8   ar
    14     7     6    1
    15   133   132    2
    16    10    11    1
    17   119   118    1
    18    12    13    2
    19    12    11    1
    20    73    71    1
    21    72    71    1
    22    68    71    1
    23    68    67    1
    24    68    69    1
    25    11    14    1
    26   132   131    1
    27   134   131    1
    28   134   135    1
    29   105   106    1
    30    69    70    2
    31   118   117    1
    32   131   130    1
    33    14    15    1
    34   117   114    1
    35    33    32    1
    36    17    15   ar
    37    17    19   ar
    38    30    32   ar
    39    30    28   ar
    40    15    16   ar
    41   108   107    2
    42    19    20   ar
    43    32    31   ar
    44   106   107    1
    45   106   109    1
    46   107   113   am
    47   114   113    1
    48   114   115    1
    49    28    27   ar
    50    16    18   ar
    51    22    23    1
    52   109   110    1
    53    20    18   ar
    54    20    21    1
    55   110   111    1
    56   110   112    1
    57    31    29   ar
    58   124   123    2
    59   115   121   am
    60   115   116    2
    61    39    40    1
    62    39    38    1
    63    27    29   ar
    64    27    26    1
    65    40    34    1
    66   121   122    1
    67    97    96    1
    68    97    98    1
    69    23    26    1
    70    23    24    1
    71    74    75    1
    72   123   122    1
    73    96    95    1
    74   122   125    1
    75    95    92    1
    76    38    35    1
    77    75    76    1
    78    34    35    1
    79   125   126    1
    80    24    25    2
    81    90    88    1
    82    88    89    1
    83    88    85    1
    84   147   146    1
    85   128   127   ar
    86    92    91    1
    87    92    93    1
    88    91    86   am
    89    35    36    1
    90   126   127    1
    91    37    36    2
    92    76    77    2
    93    76    78   am
    94   127   129   ar
    95    36    41   am
    96   146   145   ar
    97   146   144   ar
    98   145   143   ar
    99    86    85    1
   100    86    87    2
   101    85    84    1
   102    78    79    1
   103    84    80   am
   104    93    94    2
   105   144   142   ar
   106    41    42    1
   107   143   141   ar
   108    66    64    1
   109    47    46    1
   110    80    79    1
   111    80    81    2
   112    83    82    1
   113    42    45    1
   114    42    43    1
   115    79    82    1
   116   142   141   ar
   117   141   140    1
   118    45    46    1
   119    54    53    1
   120    64    65    1
   121    64    63    2
   122    46    48    1
   123    49    43   am
   124    49    50    1
   125    43    44    2
   126   140   137    1
   127    53    50    1
   128    53    55    1
   129    63    62    1
   130    50    51    1
   131   137   136    1
   132   137   138    1
   133    62    61    1
   134    51    52    2
   135   138   139    2
   136    61    60    1
   137    60    57    1
   138    57    56    1
   139    57    58    1
   140    59    58    2
