@<TRIPOS>MOLECULE
tmp/5necA00.pdb
 91 88 0 0 0
SMALL
GASTEIGER

@<TRIPOS>ATOM
      1  N         26.4840   26.3180   -3.1110 N.3   244  SER244     -0.1217
      2  CA        26.6090   27.5550   -2.3640 C.3   244  SER244      0.1889
      3  C         27.9990   28.0680   -2.6190 C.2   244  SER244      0.2288
      4  O         28.9430   27.2990   -2.5250 O.2   244  SER244     -0.2866
      5  CB        26.4400   27.3000   -0.8750 C.3   244  SER244      0.2089
      6  OG        25.0920   27.0210   -0.5690 O.3   244  SER244     -0.2183
      7  N         30.6640   31.4720   -1.7450 N.3   246  ILE246     -0.1245
      8  CA        30.9370   32.6880   -0.9610 C.3   246  ILE246      0.1561
      9  C         32.2780   33.2400   -1.3810 C.2   246  ILE246      0.2260
     10  O         33.2960   32.5670   -1.2350 O.2   246  ILE246     -0.2867
     11  CB        30.9490   32.3810    0.5570 C.3   246  ILE246      0.0252
     12  CG1       29.5250   32.0240    0.9970 C.3   246  ILE246      0.0019
     13  CG2       31.4180   33.5670    1.3700 C.3   246  ILE246      0.0019
     14  CD1       29.4370   31.2510    2.2670 C.3   246  ILE246      0.0001
     15  N         34.8400   30.2020   -1.3680 N.3   262  SER262     -0.1202
     16  CA        34.4460   28.9520   -0.7550 C.3   262  SER262      0.2020
     17  C         33.2430   28.4370   -1.4970 C.2   262  SER262      0.2619
     18  O         32.2870   29.1790   -1.6970 O.2   262  SER262     -0.2717
     19  CB        34.0970   29.1680    0.7110 C.3   262  SER262      0.2103
     20  OG        35.2150   29.7220    1.3630 O.3   262  SER262     -0.2182
     21  N         33.3000   27.1760   -1.9190 N.am  263  ARG263     -0.1965
     22  CA        32.1640   26.5260   -2.5370 C.3   263  ARG263      0.1729
     23  C         31.8480   25.2160   -1.7950 C.2   263  ARG263      0.2616
     24  O         32.7390   24.3950   -1.5560 O.2   263  ARG263     -0.2715
     25  CB        32.4270   26.2950   -4.0320 C.3   263  ARG263      0.0348
     26  CG        31.2760   25.5840   -4.7320 C.3   263  ARG263      0.0492
     27  CD        31.4140   25.6540   -6.2370 C.3   263  ARG263      0.2205
     28  NE        31.1190   26.9900   -6.7240 N.pl3 263  ARG263     -0.0865
     29  CZ        31.4720   27.4630   -7.9200 C.cat 263  ARG263      0.5346
     30  NH1       32.1360   26.7130   -8.7980 N.pl3 263  ARG263      0.1354
     31  NH2       31.1430   28.7080   -8.2590 N.pl3 263  ARG263      0.1354
     32  N         30.5870   25.0550   -1.3990 N.am  264  TYR264     -0.1974
     33  CA        30.0460   23.7720   -0.9970 C.3   264  TYR264      0.1639
     34  C         29.0050   23.3400   -2.0480 C.2   264  TYR264      0.2290
     35  O         28.1000   24.1020   -2.3920 O.2   264  TYR264     -0.2864
     36  CB        29.4130   23.8250    0.3920 C.3   264  TYR264      0.0560
     37  CG        28.9390   22.4500    0.8310 C.ar  264  TYR264     -0.0198
     38  CD1       29.7980   21.5840    1.5310 C.ar  264  TYR264     -0.0009
     39  CD2       27.6690   21.9790    0.4920 C.ar  264  TYR264     -0.0009
     40  CE1       29.3960   20.3040    1.8960 C.ar  264  TYR264      0.0417
     41  CE2       27.2640   20.7040    0.8520 C.ar  264  TYR264      0.0417
     42  CZ        28.1190   19.8720    1.5560 C.ar  264  TYR264      0.1957
     43  OH        27.6970   18.6140    1.8990 O.3   264  TYR264     -0.2866
     44  N         33.6380   20.2590   -1.4410 N.3   302  ALA302     -0.1231
     45  CA        33.9640   21.4280   -0.6440 C.3   302  ALA302      0.1694
     46  C         35.2840   21.9950   -1.1770 C.2   302  ALA302      0.2592
     47  O         36.2770   21.2600   -1.2360 O.2   302  ALA302     -0.2718
     48  CB        34.0800   21.0370    0.8140 C.3   302  ALA302      0.0304
     49  N         35.2960   23.2690   -1.5900 N.am  303  VAL303     -0.1966
     50  CA        36.5100   23.8930   -2.1540 C.3   303  VAL303      0.1727
     51  C         36.8090   25.2360   -1.4830 C.2   303  VAL303      0.2616
     52  O         35.8970   26.0210   -1.2170 O.2   303  VAL303     -0.2715
     53  CB        36.3880   24.1120   -3.6900 C.3   303  VAL303      0.0290
     54  CG1       37.7210   24.5340   -4.3030 C.3   303  VAL303      0.0023
     55  CG2       35.9030   22.8420   -4.3530 C.3   303  VAL303      0.0023
     56  N         38.0800   25.4930   -1.1960 N.am  304  ASN304     -0.1972
     57  CA        38.5170   26.8320   -0.8340 C.3   304  ASN304      0.1688
     58  C         39.6740   27.2600   -1.7260 C.2   304  ASN304      0.2292
     59  O         40.6570   26.5410   -1.8510 O.2   304  ASN304     -0.2864
     60  CB        38.9260   26.9540    0.6320 C.3   304  ASN304      0.1181
     61  CG        39.0360   28.4120    1.0660 C.2   304  ASN304      0.2629
     62  OD1       38.0350   29.0600    1.3370 O.2   304  ASN304     -0.2716
     63  ND2       40.2430   28.9460    1.0740 N.am  304  ASN304     -0.0877
     64  N         42.3580   24.1960   -1.9520 N.3   327  PHE327     -0.1227
     65  CA        42.1470   22.9860   -1.1550 C.3   327  PHE327      0.1736
     66  C         40.7500   22.4840   -1.4390 C.2   327  PHE327      0.2596
     67  O         39.8120   23.2740   -1.4370 O.2   327  PHE327     -0.2718
     68  CB        42.2520   23.2820    0.3520 C.3   327  PHE327      0.0547
     69  CG        43.5440   23.9330    0.7680 C.ar  327  PHE327     -0.0202
     70  CD1       44.6320   23.1620    1.1560 C.ar  327  PHE327     -0.0042
     71  CD2       43.6720   25.3220    0.7800 C.ar  327  PHE327     -0.0042
     72  CE1       45.8320   23.7550    1.5540 C.ar  327  PHE327     -0.0003
     73  CE2       44.8700   25.9280    1.1680 C.ar  327  PHE327     -0.0003
     74  CZ        45.9480   25.1410    1.5620 C.ar  327  PHE327     -0.0000
     75  N         40.5860   21.1860   -1.6730 N.am  328  SER328     -0.1938
     76  CA        39.2330   20.6310   -1.8410 C.3   328  SER328      0.2055
     77  C         39.0590   19.2140   -1.3380 C.2   328  SER328      0.2642
     78  O         40.0210   18.5050   -1.1080 O.2   328  SER328     -0.2714
     79  CB        38.7980   20.7030   -3.2940 C.3   328  SER328      0.2130
     80  OG        39.5680   19.8110   -4.0650 O.3   328  SER328     -0.2179
     81  N         37.8050   18.8240   -1.1690 N.am  329  ARG329     -0.1977
     82  CA        37.4330   17.5050   -0.6780 C.3   329  ARG329      0.1597
     83  C         36.2020   17.0480   -1.4440 C.2   329  ARG329      0.2287
     84  O         35.1980   17.7450   -1.4140 O.2   329  ARG329     -0.2864
     85  CB        37.1290   17.5830    0.8070 C.3   329  ARG329      0.0334
     86  CG        36.8430   16.2470    1.4590 C.3   329  ARG329      0.0492
     87  CD        36.8030   16.3930    2.9710 C.3   329  ARG329      0.2205
     88  NE        36.6390   15.1100    3.6520 N.pl3 329  ARG329     -0.0865
     89  CZ        35.4900   14.4330    3.7520 C.cat 329  ARG329      0.5346
     90  NH1       34.3550   14.8960    3.2060 N.pl3 329  ARG329      0.1354
     91  NH2       35.4680   13.2680    4.3990 N.pl3 329  ARG329      0.1354
@<TRIPOS>BOND
     1    30    29    1
     2    31    29    1
     3    29    28    2
     4    28    27    1
     5    27    26    1
     6    26    25    1
     7    55    53    1
     8    54    53    1
     9    80    79    1
    10    25    22    1
    11    53    50    1
    12    79    76    1
    13     1     2    1
    14     3     4    2
    15     3     2    1
    16    22    21    1
    17    22    23    1
    18    35    34    2
    19     2     5    1
    20    50    49    1
    21    50    51    1
    22    34    33    1
    23    64    65    1
    24    21    17   am
    25    59    58    2
    26    76    75    1
    27    76    77    1
    28    23    24    2
    29    23    32   am
    30     7     8    1
    31    58    57    1
    32    18    17    2
    33    75    66   am
    34    49    46   am
    35    17    16    1
    36    51    52    2
    37    51    56   am
    38    83    84    2
    39    83    82    1
    40    44    45    1
    41    66    67    2
    42    66    65    1
    43    32    33    1
    44     9    10    2
    45     9     8    1
    46    15    16    1
    47    77    81   am
    48    77    78    2
    49    47    46    2
    50    56    57    1
    51    46    45    1
    52    81    82    1
    53    65    68    1
    54    33    36    1
    55     8    11    1
    56     5     6    1
    57    57    60    1
    58    16    19    1
    59    82    85    1
    60    45    48    1
    61    68    69    1
    62    36    37    1
    63    39    37   ar
    64    39    41   ar
    65    11    12    1
    66    11    13    1
    67    60    61    1
    68    19    20    1
    69    69    71   ar
    70    69    70   ar
    71    71    73   ar
    72    85    86    1
    73    37    38   ar
    74    41    42   ar
    75    12    14    1
    76    61    63   am
    77    61    62    2
    78    70    72   ar
    79    73    74   ar
    80    86    87    1
    81    38    40   ar
    82    72    74   ar
    83    42    40   ar
    84    42    43    1
    85    87    88    1
    86    90    89    1
    87    88    89    2
    88    89    91    1
