@<TRIPOS>MOLECULE
tmp/5neeA00.pdb
 148 144 0 0 0
SMALL
GASTEIGER

@<TRIPOS>ATOM
      1  N         -8.4900    0.4250    5.8150 N.3    64  ASN64      -0.1240
      2  CA        -9.3720    1.3420    6.5200 C.3    64  ASN64       0.1653
      3  C        -10.5480    1.7410    5.6590 C.2    64  ASN64       0.2266
      4  O        -10.3690    2.1790    4.5200 O.2    64  ASN64      -0.2867
      5  CB        -8.6320    2.6280    6.9280 C.3    64  ASN64       0.1155
      6  CG        -7.5860    2.3820    8.0000 C.2    64  ASN64       0.2627
      7  OD1       -7.5080    1.2990    8.5400 O.2    64  ASN64      -0.2716
      8  ND2       -6.7790    3.3890    8.2980 N.am   64  ASN64      -0.0877
      9  N        -14.0030    8.1960   12.7040 N.3    88  ILE88      -0.1231
     10  CA       -13.1050    8.5440   11.5980 C.3    88  ILE88       0.1692
     11  C        -12.8680    7.3820   10.6100 C.2    88  ILE88       0.2591
     12  O        -12.7980    7.5770    9.3870 O.2    88  ILE88      -0.2718
     13  CB       -11.7500    9.1270   12.1050 C.3    88  ILE88       0.0266
     14  CG1      -10.8090    9.3990   10.9150 C.3    88  ILE88       0.0019
     15  CG2      -11.0620    8.2270   13.1460 C.3    88  ILE88       0.0020
     16  CD1       -9.6120   10.2880   11.2530 C.3    88  ILE88       0.0001
     17  N        -12.7030    6.1760   11.1340 N.am   89  GLN89      -0.1979
     18  CA       -12.4410    5.0100   10.2820 C.3    89  GLN89       0.1601
     19  C        -12.7030    3.7380   11.0740 C.2    89  GLN89       0.2287
     20  O        -12.7530    3.7800   12.2970 O.2    89  GLN89      -0.2864
     21  CB       -10.9890    5.0200    9.7670 C.3    89  GLN89       0.0394
     22  CG        -9.9190    5.1990   10.8780 C.3    89  GLN89       0.0908
     23  CD        -9.1160    3.9370   11.1680 C.2    89  GLN89       0.2608
     24  OE1       -9.6310    2.8300   11.1010 O.2    89  GLN89      -0.2717
     25  NE2       -7.8370    4.1080   11.4630 N.am   89  GLN89      -0.0878
     26  N        -11.2580   -0.5890   10.8540 N.3    91  HIS91      -0.1241
     27  CA       -10.3910   -1.5610   10.2130 C.3    91  HIS91       0.1621
     28  C        -10.4470   -2.8360   11.0270 C.2    91  HIS91       0.2264
     29  O        -11.1150   -2.8930   12.0600 O.2    91  HIS91      -0.2867
     30  CB        -8.9500   -1.0450   10.1610 C.3    91  HIS91       0.0745
     31  CG        -8.3850   -0.7600   11.5120 C.ar   91  HIS91       0.0817
     32  ND1       -8.5470    0.4550   12.1480 N.ar   91  HIS91      -0.2268
     33  CD2       -7.7040   -1.5520   12.3690 C.ar   91  HIS91       0.1154
     34  CE1       -7.9840    0.3960   13.3450 C.ar   91  HIS91       0.1986
     35  NE2       -7.4650   -0.8150   13.5010 N.ar   91  HIS91      -0.2212
     36  N         -8.0410   -6.5140   12.3330 N.3    93  HIS93      -0.1241
     37  CA        -6.8010   -7.2910   12.4700 C.3    93  HIS93       0.1621
     38  C         -7.2270   -8.7480   12.4090 C.2    93  HIS93       0.2264
     39  O         -8.2700   -9.1030   12.9580 O.2    93  HIS93      -0.2867
     40  CB        -6.1150   -7.0080   13.8170 C.3    93  HIS93       0.0745
     41  CG        -5.9030   -5.5540   14.0740 C.ar   93  HIS93       0.0817
     42  ND1       -4.6930   -4.9300   13.8450 N.ar   93  HIS93      -0.2268
     43  CD2       -6.7630   -4.5870   14.4780 C.ar   93  HIS93       0.1154
     44  CE1       -4.8050   -3.6480   14.1490 C.ar   93  HIS93       0.1986
     45  NE2       -6.0530   -3.4110   14.5280 N.ar   93  HIS93      -0.2212
     46  N        -12.0090   -2.7110   14.7540 N.3   116  HIS116     -0.1241
     47  CA       -11.7570   -1.4900   15.4870 C.3   116  HIS116      0.1621
     48  C        -12.4700   -0.3340   14.8170 C.2   116  HIS116      0.2264
     49  O        -12.1150    0.0530   13.6870 O.2   116  HIS116     -0.2867
     50  CB       -10.2340   -1.2350   15.5810 C.3   116  HIS116      0.0745
     51  CG        -9.5180   -2.2110   16.4740 C.ar  116  HIS116      0.0817
     52  ND1       -8.1470   -2.3910   16.4490 N.ar  116  HIS116     -0.2268
     53  CD2       -9.9850   -3.0330   17.4430 C.ar  116  HIS116      0.1154
     54  CE1       -7.8050   -3.2920   17.3510 C.ar  116  HIS116      0.1986
     55  NE2       -8.8990   -3.6930   17.9700 N.ar  116  HIS116     -0.2212
     56  N        -12.7500    3.4110   15.1100 N.3   118  VAL118     -0.1245
     57  CA       -11.8830    4.4210   15.7490 C.3   118  VAL118      0.1561
     58  C        -12.6250    5.7640   15.7910 C.2   118  VAL118      0.2260
     59  O        -13.0940    6.2390   14.7510 O.2   118  VAL118     -0.2867
     60  CB       -10.5540    4.5710   14.9850 C.3   118  VAL118      0.0252
     61  CG1       -9.6430    5.6060   15.6510 C.3   118  VAL118      0.0019
     62  CG2       -9.8530    3.2130   14.8640 C.3   118  VAL118      0.0019
     63  N         -8.4010   14.7190   14.6550 N.3   127  PHE127     -0.1227
     64  CA        -7.7780   13.4540   15.0320 C.3   127  PHE127      0.1736
     65  C         -6.3220   13.6360   15.4370 C.2   127  PHE127      0.2596
     66  O         -5.8830   13.0670   16.4460 O.2   127  PHE127     -0.2718
     67  CB        -7.8980   12.4440   13.8970 C.3   127  PHE127      0.0547
     68  CG        -7.2370   11.1280   14.1800 C.ar  127  PHE127     -0.0202
     69  CD1       -5.9140   10.9080   13.8250 C.ar  127  PHE127     -0.0042
     70  CD2       -7.9460   10.0990   14.7800 C.ar  127  PHE127     -0.0042
     71  CE1       -5.3050    9.6900   14.0610 C.ar  127  PHE127     -0.0003
     72  CE2       -7.3450    8.8690   15.0200 C.ar  127  PHE127     -0.0003
     73  CZ        -6.0170    8.6670   14.6750 C.ar  127  PHE127     -0.0000
     74  N         -5.5930   14.4400   14.6510 N.am  128  GLY128     -0.1957
     75  CA        -4.1850   14.6820   14.9040 C.3   128  GLY128      0.1869
     76  C         -3.9180   15.2440   16.2900 C.2   128  GLY128      0.2309
     77  O         -2.9820   14.8310   16.9410 O.2   128  GLY128     -0.2863
     78  N         -4.8980   12.5010   19.2750 N.3   131  VAL131     -0.1245
     79  CA        -3.9570   11.3930   19.6160 C.3   131  VAL131      0.1561
     80  C         -2.8470   11.8140   20.5880 C.2   131  VAL131      0.2260
     81  O         -2.1420   10.9690   21.1220 O.2   131  VAL131     -0.2867
     82  CB        -3.3190   10.6870   18.3900 C.3   131  VAL131      0.0252
     83  CG1       -4.3970   10.0480   17.5200 C.3   131  VAL131      0.0019
     84  CG2       -2.4510   11.6380   17.5870 C.3   131  VAL131      0.0019
     85  N        -11.8380    3.7130   20.9270 N.3   139  VAL139     -0.1245
     86  CA       -11.9120    2.6590   19.9100 C.3   139  VAL139      0.1561
     87  C        -12.8720    1.5940   20.4060 C.2   139  VAL139      0.2260
     88  O        -12.7080    1.0550   21.5170 O.2   139  VAL139     -0.2867
     89  CB       -10.5300    2.0610   19.5560 C.3   139  VAL139      0.0252
     90  CG1      -10.6330    1.0730   18.3900 C.3   139  VAL139      0.0019
     91  CG2       -9.5640    3.1700   19.1730 C.3   139  VAL139      0.0019
     92  N         -3.0080    3.1360   20.9970 N.3   194  LEU194     -0.1231
     93  CA        -3.0140    2.5890   19.6390 C.3   194  LEU194      0.1693
     94  C         -2.2740    1.2520   19.7180 C.2   194  LEU194      0.2593
     95  O         -1.2870    1.1220   20.4620 O.2   194  LEU194     -0.2718
     96  CB        -2.2770    3.5380   18.6880 C.3   194  LEU194      0.0284
     97  CG        -2.8240    4.9690   18.5690 C.3   194  LEU194      0.0019
     98  CD1       -1.9430    5.7530   17.6190 C.3   194  LEU194      0.0001
     99  CD2       -4.2830    4.9460   18.0850 C.3   194  LEU194      0.0001
    100  N         -2.7310    0.2460   18.9770 N.am  195  THR195     -0.1939
    101  CA        -2.0540   -1.0590   18.9860 C.3   195  THR195      0.2028
    102  C         -1.0160   -1.2140   17.8770 C.2   195  THR195      0.2643
    103  O         -0.4550   -2.3080   17.7110 O.2   195  THR195     -0.2714
    104  CB        -3.0530   -2.2160   18.8310 C.3   195  THR195      0.1808
    105  OG1       -3.6380   -2.1550   17.5140 O.3   195  THR195     -0.2208
    106  CG2       -4.1260   -2.1460   19.9130 C.3   195  THR195      0.0379
    107  N         -0.8070   -0.1470   17.0930 N.am  196  THR196     -0.1937
    108  CA         0.3160   -0.0890   16.1400 C.3   196  THR196      0.2013
    109  C          1.1110    1.1790   16.4300 C.2   196  THR196      0.2484
    110  O          0.5820    2.1200   17.0570 O.2   196  THR196     -0.2729
    111  CB        -0.1440   -0.0170   14.6580 C.3   196  THR196      0.1807
    112  OG1       -0.5790    1.3190   14.3500 O.3   196  THR196     -0.2208
    113  CG2       -1.2700   -1.0220   14.3630 C.3   196  THR196      0.0379
    114  N          2.3820    1.2340   15.9560 N.am  197  PRO197     -0.2715
    115  CA         3.1050    2.5020   16.0310 C.3   197  PRO197      0.1521
    116  C          2.2110    3.6100   15.4720 C.2   197  PRO197      0.2440
    117  O          1.4670    3.3630   14.4980 O.2   197  PRO197     -0.2731
    118  CB         4.3270    2.2370   15.1480 C.3   197  PRO197      0.0310
    119  CG         4.6150    0.7880   15.4020 C.3   197  PRO197      0.0237
    120  CD         3.2280    0.1550   15.4140 C.3   197  PRO197      0.0939
    121  N          2.2420    4.8150   16.0340 N.am  198  PRO198     -0.2727
    122  CA         3.1530    5.2410   17.1040 C.3   198  PRO198      0.1402
    123  C          2.7840    4.8070   18.5430 C.2   198  PRO198      0.2269
    124  O          3.4050    5.2970   19.5020 O.2   198  PRO198     -0.2865
    125  CB         3.0800    6.7740   17.0040 C.3   198  PRO198      0.0296
    126  CG         1.7160    7.0480   16.4710 C.3   198  PRO198      0.0237
    127  CD         1.5010    5.9620   15.4570 C.3   198  PRO198      0.0939
    128  N         -6.0570    6.1760   24.0530 N.3   203  VAL203     -0.1245
    129  CA        -7.3000    5.4540   23.7680 C.3   203  VAL203      0.1561
    130  C         -8.0560    5.0050   25.0230 C.2   203  VAL203      0.2260
    131  O         -7.4840    4.4090   25.9450 O.2   203  VAL203     -0.2867
    132  CB        -7.0400    4.2390   22.8480 C.3   203  VAL203      0.0252
    133  CG1       -8.3640    3.5790   22.4440 C.3   203  VAL203      0.0019
    134  CG2       -6.2490    4.6920   21.6060 C.3   203  VAL203      0.0019
    135  N        -10.4390    2.2040   25.5360 N.3   205  TRP205     -0.1241
    136  CA       -10.8770    1.0140   24.8200 C.3   205  TRP205      0.1605
    137  C        -12.2430    0.5770   25.3140 C.2   205  TRP205      0.2264
    138  O        -12.4850    0.5200   26.5170 O.2   205  TRP205     -0.2867
    139  CB        -9.8730   -0.1390   24.9830 C.3   205  TRP205      0.0550
    140  CG        -8.8000   -0.0160   23.9940 C.ar  205  TRP205      0.0003
    141  CD1       -7.5710    0.5610   24.1690 C.ar  205  TRP205      0.0946
    142  CD2       -8.8750   -0.4200   22.6150 C.ar  205  TRP205      0.0152
    143  NE1       -6.8700    0.5340   22.9760 N.ar  205  TRP205     -0.2442
    144  CE2       -7.6400   -0.0840   22.0160 C.ar  205  TRP205      0.0810
    145  CE3       -9.8690   -1.0510   21.8400 C.ar  205  TRP205      0.0012
    146  CZ2       -7.3670   -0.3360   20.6600 C.ar  205  TRP205      0.0191
    147  CZ3       -9.5900   -1.3270   20.4900 C.ar  205  TRP205      0.0001
    148  CH2       -8.3450   -0.9690   19.9190 C.ar  205  TRP205      0.0015
@<TRIPOS>BOND
     1     4     3    2
     2     3     2    1
     3     1     2    1
     4     2     5    1
     5     5     6    1
     6     6     8   am
     7     6     7    2
     8    12    11    2
     9    21    18    1
    10    21    22    1
    11    30    27    1
    12    30    31    1
    13    27    26    1
    14    27    28    1
    15    18    19    1
    16    18    17    1
    17    11    17   am
    18    11    10    1
    19    22    23    1
    20    14    16    1
    21    14    13    1
    22    28    29    2
    23    19    20    2
    24    24    23    2
    25    23    25   am
    26    31    32   ar
    27    31    33   ar
    28    10    13    1
    29    10     9    1
    30    13    15    1
    31    32    34   ar
    32    36    37    1
    33    33    35   ar
    34    38    37    1
    35    38    39    2
    36    37    40    1
    37    34    35   ar
    38    49    48    2
    39    40    41    1
    40    69    71   ar
    41    69    68   ar
    42    42    41   ar
    43    42    44   ar
    44    67    68    1
    45    67    64    1
    46    71    73   ar
    47    41    43   ar
    48    44    45   ar
    49    68    70   ar
    50   112   111    1
    51   113   111    1
    52    43    45   ar
    53   117   116    2
    54    74    75    1
    55    74    65   am
    56    63    64    1
    57   111   108    1
    58    73    72   ar
    59    59    58    2
    60    46    47    1
    61    70    72   ar
    62    48    47    1
    63    62    60    1
    64    75    76    1
    65    60    61    1
    66    60    57    1
    67    64    65    1
    68    56    57    1
    69   118   119    1
    70   118   115    1
    71   119   120    1
    72   120   114    1
    73    65    66    2
    74   127   121    1
    75   127   126    1
    76   116   115    1
    77   116   121   am
    78    47    50    1
    79    50    51    1
    80    57    58    1
    81   114   115    1
    82   114   109   am
    83   121   122    1
    84   108   109    1
    85   108   107    1
    86    76    77    2
    87   109   110    2
    88    52    51   ar
    89    52    54   ar
    90   126   125    1
    91    51    53   ar
    92   125   122    1
    93   107   102   am
    94   122   123    1
    95    54    55   ar
    96    53    55   ar
    97   105   104    1
    98    83    82    1
    99    84    82    1
   100    98    97    1
   101   103   102    2
   102   102   101    1
   103    99    97    1
   104    82    79    1
   105    90    89    1
   106   123   124    2
   107    97    96    1
   108    96    93    1
   109   104   101    1
   110   104   106    1
   111   100   101    1
   112   100    94   am
   113    91    89    1
   114    78    79    1
   115    89    86    1
   116    79    80    1
   117    93    94    1
   118    93    92    1
   119    94    95    2
   120    86    87    1
   121    86    85    1
   122   148   147   ar
   123   148   146   ar
   124    87    88    2
   125   147   145   ar
   126    80    81    2
   127   146   144   ar
   128   134   132    1
   129   145   142   ar
   130   144   142   ar
   131   144   143   ar
   132   133   132    1
   133   142   140   ar
   134   132   129    1
   135   143   141   ar
   136   129   128    1
   137   129   130    1
   138   140   141   ar
   139   140   139    1
   140   136   139    1
   141   136   137    1
   142   136   135    1
   143   130   131    2
   144   137   138    2
