@<TRIPOS>MOLECULE
tmp/5neiA00.pdb
 101 100 0 0 0
SMALL
GASTEIGER

@<TRIPOS>ATOM
      1  N          6.8860   10.8340   10.9880 N.3    45  VAL45      -0.1245
      2  CA         7.5140   12.1350   11.1050 C.3    45  VAL45       0.1561
      3  C          6.8940   12.8700   12.2740 C.2    45  VAL45       0.2260
      4  O          5.6860   13.0940   12.3000 O.2    45  VAL45      -0.2867
      5  CB         7.2830   12.9850    9.8600 C.3    45  VAL45       0.0252
      6  CG1        8.1970   14.1700    9.8820 C.3    45  VAL45       0.0019
      7  CG2        7.5230   12.1740    8.6060 C.3    45  VAL45       0.0019
      8  N          6.1790   16.1420   14.2520 N.3    47  TYR47      -0.1241
      9  CA         6.1140   17.5740   14.0400 C.3    47  TYR47       0.1605
     10  C          5.0490   18.1050   14.9920 C.2    47  TYR47       0.2264
     11  O          4.2580   18.9860   14.6480 O.2    47  TYR47      -0.2867
     12  CB         5.7620   17.8630   12.5840 C.3    47  TYR47       0.0534
     13  CG         6.3320   19.1570   12.0500 C.ar   47  TYR47      -0.0201
     14  CD1        6.1150   19.5390   10.7330 C.ar   47  TYR47      -0.0009
     15  CD2        7.0950   19.9910   12.8560 C.ar   47  TYR47      -0.0009
     16  CE1        6.6270   20.7210   10.2340 C.ar   47  TYR47       0.0417
     17  CE2        7.6140   21.1810   12.3710 C.ar   47  TYR47       0.0417
     18  CZ         7.3750   21.5400   11.0560 C.ar   47  TYR47       0.1957
     19  OH         7.8880   22.7200   10.5620 O.3    47  TYR47      -0.2866
     20  N          2.2580   20.7840   14.0580 N.3    51  TYR51      -0.1241
     21  CA         1.1120   20.1770   13.4070 C.3    51  TYR51       0.1605
     22  C          0.6490   18.8770   14.0520 C.2    51  TYR51       0.2264
     23  O         -0.5260   18.7280   14.3920 O.2    51  TYR51      -0.2867
     24  CB         1.4060   19.9780   11.9260 C.3    51  TYR51       0.0534
     25  CG         1.6840   21.2780   11.2160 C.ar   51  TYR51      -0.0201
     26  CD1        0.6780   22.2190   11.0450 C.ar   51  TYR51      -0.0009
     27  CD2        2.9520   21.5720   10.7310 C.ar   51  TYR51      -0.0009
     28  CE1        0.9180   23.4120   10.3960 C.ar   51  TYR51       0.0417
     29  CE2        3.2050   22.7630   10.0760 C.ar   51  TYR51       0.0417
     30  CZ         2.1820   23.6800    9.9110 C.ar   51  TYR51       0.1957
     31  OH         2.4230   24.8710    9.2650 O.3    51  TYR51      -0.2866
     32  N         -1.3960   19.9150    4.5400 N.3   108  LEU108     -0.1245
     33  CA        -0.3970   19.5070    5.5210 C.3   108  LEU108      0.1561
     34  C         -0.0360   18.0390    5.3430 C.2   108  LEU108      0.2260
     35  O          1.1290   17.6570    5.4410 O.2   108  LEU108     -0.2867
     36  CB        -0.9180   19.7300    6.9390 C.3   108  LEU108      0.0270
     37  CG        -1.2490   21.1670    7.3230 C.3   108  LEU108      0.0019
     38  CD1       -1.8080   21.2060    8.7350 C.3   108  LEU108      0.0001
     39  CD2       -0.0100   22.0480    7.2030 C.3   108  LEU108      0.0001
     40  N          2.2550   17.3310    2.5670 N.3   111  TYR111     -0.1227
     41  CA         3.5930   17.7300    2.9300 C.3   111  TYR111      0.1736
     42  C          4.3430   16.6030    3.6230 C.2   111  TYR111      0.2595
     43  O          5.4950   16.3190    3.2940 O.2   111  TYR111     -0.2718
     44  CB         3.5030   18.9470    3.8280 C.3   111  TYR111      0.0548
     45  CG         3.2820   20.2250    3.0610 C.ar  111  TYR111     -0.0200
     46  CD1        3.7620   20.3700    1.7590 C.ar  111  TYR111     -0.0009
     47  CD2        2.6210   21.2980    3.6440 C.ar  111  TYR111     -0.0009
     48  CE1        3.6080   21.5560    1.0680 C.ar  111  TYR111      0.0417
     49  CE2        2.4450   22.4850    2.9550 C.ar  111  TYR111      0.0417
     50  CZ         2.9380   22.6100    1.6690 C.ar  111  TYR111      0.1957
     51  OH         2.7610   23.7920    0.9830 O.3   111  TYR111     -0.2866
     52  N          3.6790   15.9660    4.5840 N.am  112  PHE112     -0.1976
     53  CA         4.2170   14.7770    5.2270 C.3   112  PHE112      0.1639
     54  C          4.4800   13.6920    4.1920 C.2   112  PHE112      0.2290
     55  O          5.5160   13.0200    4.2160 O.2   112  PHE112     -0.2864
     56  CB         3.2300   14.2280    6.2530 C.3   112  PHE112      0.0560
     57  CG         3.1790   15.0120    7.5230 C.ar  112  PHE112     -0.0200
     58  CD1        4.1860   14.8870    8.4690 C.ar  112  PHE112     -0.0042
     59  CD2        2.1170   15.8610    7.7780 C.ar  112  PHE112     -0.0042
     60  CE1        4.1430   15.6010    9.6480 C.ar  112  PHE112     -0.0003
     61  CE2        2.0640   16.5840    8.9540 C.ar  112  PHE112     -0.0003
     62  CZ         3.0820   16.4510    9.8940 C.ar  112  PHE112     -0.0000
     63  N          5.2040   13.8710    1.0290 N.3   114  ASN114     -0.1225
     64  CA         6.3990   14.1230    0.2300 C.3   114  ASN114      0.1785
     65  C          7.6870   13.8910    1.0050 C.2   114  ASN114      0.2597
     66  O          8.5930   13.2140    0.5260 O.2   114  ASN114     -0.2718
     67  CB         6.3720   15.5370   -0.3540 C.3   114  ASN114      0.1169
     68  CG         5.1340   15.7920   -1.1870 C.2   114  ASN114      0.2627
     69  OD1        4.6590   14.9080   -1.9040 O.2   114  ASN114     -0.2716
     70  ND2        4.5880   17.0040   -1.0810 N.am  114  ASN114     -0.0877
     71  N          7.7550   14.4560    2.2060 N.am  115  TYR115     -0.1976
     72  CA         8.9160   14.2820    3.0660 C.3   115  TYR115      0.1639
     73  C          9.2350   12.8030    3.2260 C.2   115  TYR115      0.2290
     74  O         10.3810   12.3860    3.0700 O.2   115  TYR115     -0.2864
     75  CB         8.6750   14.9070    4.4410 C.3   115  TYR115      0.0560
     76  CG         9.7960   14.6450    5.4150 C.ar  115  TYR115     -0.0198
     77  CD1       10.9290   15.4490    5.4280 C.ar  115  TYR115     -0.0009
     78  CD2        9.7280   13.5890    6.3150 C.ar  115  TYR115     -0.0009
     79  CE1       11.9680   15.2140    6.3120 C.ar  115  TYR115      0.0417
     80  CE2       10.7620   13.3390    7.2060 C.ar  115  TYR115      0.0417
     81  CZ        11.8810   14.1550    7.2010 C.ar  115  TYR115      0.1957
     82  OH        12.9090   13.9070    8.0880 O.3   115  TYR115     -0.2866
     83  N         10.6620   11.1840    0.0860 N.3   118  GLU118     -0.1231
     84  CA        11.9780   11.7040   -0.2750 C.3   118  GLU118      0.1699
     85  C         13.0870   11.3840    0.7360 C.2   118  GLU118      0.2592
     86  O         14.2100   11.0780    0.3430 O.2   118  GLU118     -0.2718
     87  CB        11.9220   13.2210   -0.5120 C.3   118  GLU118      0.0402
     88  CG        13.2840   13.8330   -0.8410 C.3   118  GLU118      0.1161
     89  CD        13.2360   15.3340   -1.1110 C.2   118  GLU118      0.3649
     90  OE1       12.2460   15.9870   -0.7110 O.co2 118  GLU118     -0.2457
     91  OE2       14.1960   15.8540   -1.7290 O.co2 118  GLU118     -0.2457
     92  N         12.7770   11.4530    2.0310 N.am  119  HIS119     -0.1976
     93  CA        13.8170   11.3780    3.0640 C.3   119  HIS119      0.1656
     94  C         13.8010   10.1440    3.9730 C.2   119  HIS119      0.2291
     95  O         14.7130    9.9470    4.7740 O.2   119  HIS119     -0.2864
     96  CB        13.7960   12.6360    3.9410 C.3   119  HIS119      0.0771
     97  CG        14.2470   13.8720    3.2370 C.ar  119  HIS119      0.0820
     98  ND1       14.8790   13.8420    2.0100 N.ar  119  HIS119     -0.2267
     99  CD2       14.1560   15.1790    3.5840 C.ar  119  HIS119      0.1154
    100  CE1       15.1600   15.0770    1.6340 C.ar  119  HIS119      0.1986
    101  NE2       14.7310   15.9080    2.5690 N.ar  119  HIS119     -0.2212
@<TRIPOS>BOND
     1    69    68    2
     2    91    89   ar
     3    68    70   am
     4    68    67    1
     5    89    88    1
     6    89    90   ar
     7    88    87    1
     8    87    84    1
     9    67    64    1
    10    84    83    1
    11    84    85    1
    12    64    65    1
    13    64    63    1
    14    86    85    2
    15    66    65    2
    16    85    92   am
    17    51    50    1
    18    65    71   am
    19    48    50   ar
    20    48    46   ar
    21   100    98   ar
    22   100   101   ar
    23    50    49   ar
    24    46    45   ar
    25    98    97   ar
    26    92    93    1
    27    71    72    1
    28    40    41    1
    29   101    99   ar
    30    41    42    1
    31    41    44    1
    32    49    47   ar
    33    45    47   ar
    34    45    44    1
    35    93    96    1
    36    93    94    1
    37    72    73    1
    38    72    75    1
    39    74    73    2
    40    97    99   ar
    41    97    96    1
    42    43    42    2
    43    42    52   am
    44    94    95    2
    45    54    55    2
    46    54    53    1
    47    75    76    1
    48    32    33    1
    49    52    53    1
    50    53    56    1
    51    34    35    2
    52    34    33    1
    53    76    77   ar
    54    76    78   ar
    55    77    79   ar
    56    33    36    1
    57    56    57    1
    58    79    81   ar
    59    78    80   ar
    60    36    37    1
    61    81    80   ar
    62    81    82    1
    63    39    37    1
    64    37    38    1
    65    57    59   ar
    66    57    58   ar
    67    59    61   ar
    68    58    60   ar
    69     7     5    1
    70    61    62   ar
    71    31    30    1
    72    60    62   ar
    73     5     6    1
    74     5     2    1
    75    30    29   ar
    76    30    28   ar
    77    29    27   ar
    78    16    14   ar
    79    16    18   ar
    80    28    26   ar
    81    19    18    1
    82    27    25   ar
    83    14    13   ar
    84     1     2    1
    85    26    25   ar
    86    18    17   ar
    87     2     3    1
    88    25    24    1
    89    24    21    1
    90    13    12    1
    91    13    15   ar
    92     3     4    2
    93    17    15   ar
    94    12     9    1
    95    21    22    1
    96    21    20    1
    97     9     8    1
    98     9    10    1
    99    22    23    2
   100    11    10    2
