@<TRIPOS>MOLECULE
tmp/5nekD00.pdb
 139 139 0 0 0
SMALL
GASTEIGER

@<TRIPOS>ATOM
      1  N         17.7500   30.2050  103.6330 N.3     9  ASP9       -0.1225
      2  CA        16.3350   30.0570  103.9120 C.3     9  ASP9        0.1805
      3  C         15.8940   30.8310  105.1490 C.2     9  ASP9        0.2597
      4  O         16.6680   31.1040  106.0690 O.2     9  ASP9       -0.2718
      5  CB        15.9710   28.5790  104.0840 C.3     9  ASP9        0.1424
      6  CG        15.9050   27.8230  102.7710 C.2     9  ASP9        0.3668
      7  OD1       16.6010   28.2190  101.8000 O.co2   9  ASP9       -0.2456
      8  OD2       15.1490   26.8280  102.7300 O.co2   9  ASP9       -0.2456
      9  N         14.6040   31.1530  105.1490 N.am   10  ASP10      -0.1974
     10  CA        13.8730   31.7460  106.2590 C.3    10  ASP10       0.1709
     11  C         14.2990   33.1790  106.5630 C.2    10  ASP10       0.2293
     12  O         14.0180   33.6840  107.6540 O.2    10  ASP10      -0.2864
     13  CB        13.9690   30.8620  107.5050 C.3    10  ASP10       0.1436
     14  CG        13.5290   29.4700  107.2100 C.2    10  ASP10       0.3671
     15  OD1       13.6650   29.0900  106.0370 O.co2  10  ASP10      -0.2456
     16  OD2       12.9610   28.7840  108.0730 O.co2  10  ASP10      -0.2456
     17  N          9.4470   31.2560  100.2310 N.3    59  HIS59      -0.1241
     18  CA         9.5430   30.2470  101.2810 C.3    59  HIS59       0.1621
     19  C          8.2930   30.2550  102.1610 C.2    59  HIS59       0.2264
     20  O          8.3650   29.9210  103.3480 O.2    59  HIS59      -0.2867
     21  CB        10.7860   30.4770  102.1380 C.3    59  HIS59       0.0745
     22  CG        11.1770   29.3090  103.0110 C.ar   59  HIS59       0.0817
     23  ND1       11.5260   28.0680  102.5210 N.ar   59  HIS59      -0.2268
     24  CD2       11.2610   29.2090  104.3610 C.ar   59  HIS59       0.1154
     25  CE1       11.8410   27.2720  103.5260 C.ar   59  HIS59       0.1986
     26  NE2       11.6870   27.9400  104.6540 N.ar   59  HIS59      -0.2212
     27  N          5.4340   29.3930  107.2740 N.3    63  HIS63      -0.1241
     28  CA         6.4090   28.3430  107.6050 C.3    63  HIS63       0.1621
     29  C          5.8210   27.3820  108.6290 C.2    63  HIS63       0.2264
     30  O          6.4740   26.9820  109.5970 O.2    63  HIS63      -0.2867
     31  CB         7.7400   28.9500  108.0880 C.3    63  HIS63       0.0745
     32  CG         8.9320   28.0490  107.9470 C.ar   63  HIS63       0.0817
     33  ND1        9.1430   26.9730  108.7800 N.ar   63  HIS63      -0.2268
     34  CD2        9.9600   28.0430  107.0620 C.ar   63  HIS63       0.1154
     35  CE1       10.2630   26.3590  108.4350 C.ar   63  HIS63       0.1986
     36  NE2       10.7680   26.9720  107.3810 N.ar   63  HIS63      -0.2212
     37  N         10.2570   24.5780   99.9440 N.3    98  PRO98      -0.2103
     38  CA         9.2100   24.2580  100.9160 C.3    98  PRO98       0.1489
     39  C          9.7820   24.2540  102.3160 C.2    98  PRO98       0.2418
     40  O         10.9030   23.7720  102.5300 O.2    98  PRO98      -0.2734
     41  CB         8.7410   22.8630  100.5050 C.3    98  PRO98       0.0282
     42  CG         9.4170   22.5740   99.2000 C.3    98  PRO98       0.0208
     43  CD        10.5750   23.4540   99.0440 C.3    98  PRO98       0.0893
     44  N          9.0860   24.8510  103.2780 N.am   99  PRO99      -0.2718
     45  CA         9.4850   24.6860  104.6810 C.3    99  PRO99       0.1535
     46  C          9.5330   23.2120  105.0620 C.2    99  PRO99       0.2599
     47  O          8.5880   22.4500  104.8150 O.2    99  PRO99      -0.2715
     48  CB         8.3970   25.4480  105.4430 C.3    99  PRO99       0.0310
     49  CG         7.9690   26.4960  104.4720 C.3    99  PRO99       0.0237
     50  CD         7.9980   25.8320  103.1290 C.3    99  PRO99       0.0939
     51  N         10.6650   22.8100  105.6370 N.am  100  TYR100     -0.1960
     52  CA        10.9170   21.4450  106.0690 C.3   100  TYR100      0.1771
     53  C         11.1090   20.4800  104.9100 C.2   100  TYR100      0.2620
     54  O         11.2290   19.2660  105.1470 O.2   100  TYR100     -0.2715
     55  CB         9.7990   20.9330  106.9790 C.3   100  TYR100      0.0574
     56  CG         9.3710   21.9330  108.0160 C.ar  100  TYR100     -0.0198
     57  CD1       10.3210   22.5370  108.8440 C.ar  100  TYR100     -0.0009
     58  CD2        8.0270   22.2580  108.2010 C.ar  100  TYR100     -0.0009
     59  CE1        9.9420   23.4580  109.8400 C.ar  100  TYR100      0.0417
     60  CE2        7.6300   23.1810  109.1940 C.ar  100  TYR100      0.0417
     61  CZ         8.5920   23.7760  110.0080 C.ar  100  TYR100      0.1957
     62  OH         8.2060   24.6770  110.9810 O.3   100  TYR100     -0.2866
     63  N         11.1440   20.9770  103.6720 N.am  101  GLY101     -0.1954
     64  CA        11.3500   20.1700  102.4910 C.3   101  GLY101      0.1869
     65  C         10.0900   19.5360  101.9350 C.2   101  GLY101      0.2309
     66  O          9.1690   19.1780  102.6830 O.2   101  GLY101     -0.2863
     67  N         17.2350   20.3730   98.2230 N.3   124  TRP124     -0.1241
     68  CA        18.6770   20.5880   98.2150 C.3   124  TRP124      0.1605
     69  C         19.3860   19.2530   98.1830 C.2   124  TRP124      0.2264
     70  O         18.7930   18.2180   98.4800 O.2   124  TRP124     -0.2867
     71  CB        19.1270   21.3630   99.4430 C.3   124  TRP124      0.0550
     72  CG        18.6640   20.7180  100.6550 C.ar  124  TRP124      0.0003
     73  CD1       19.3490   19.8190  101.4010 C.ar  124  TRP124      0.0946
     74  CD2       17.3780   20.8720  101.2680 C.ar  124  TRP124      0.0152
     75  NE1       18.5730   19.4110  102.4640 N.ar  124  TRP124     -0.2442
     76  CE2       17.3580   20.0420  102.4020 C.ar  124  TRP124      0.0810
     77  CE3       16.2550   21.6420  100.9800 C.ar  124  TRP124      0.0012
     78  CZ2       16.2530   19.9540  103.2510 C.ar  124  TRP124      0.0191
     79  CZ3       15.1510   21.5560  101.8230 C.ar  124  TRP124      0.0001
     80  CH2       15.1590   20.7150  102.9480 C.ar  124  TRP124      0.0015
     81  N         22.6920   19.5830  103.1940 N.3   127  ASP127     -0.1239
     82  CA        22.0680   20.2200  104.3460 C.3   127  ASP127      0.1674
     83  C         23.1920   20.6070  105.3020 C.2   127  ASP127      0.2266
     84  O         23.6680   19.7690  106.0660 O.2   127  ASP127     -0.2867
     85  CB        21.0490   19.2760  104.9830 C.3   127  ASP127      0.1410
     86  CG        20.4480   19.8220  106.2550 C.2   127  ASP127      0.3668
     87  OD1       20.8600   20.9110  106.6870 O.co2 127  ASP127     -0.2456
     88  OD2       19.5620   19.1700  106.8460 O.co2 127  ASP127     -0.2456
     89  N         23.0140   21.9950  107.9720 N.3   129  LEU129     -0.1245
     90  CA        22.5420   21.8530  109.3470 C.3   129  LEU129      0.1561
     91  C         22.9460   23.0230  110.2220 C.2   129  LEU129      0.2260
     92  O         22.9240   22.9050  111.4590 O.2   129  LEU129     -0.2867
     93  CB        23.0400   20.5620  109.9950 C.3   129  LEU129      0.0270
     94  CG        22.5950   19.2040  109.4810 C.3   129  LEU129      0.0019
     95  CD1       23.5290   18.1980  110.1010 C.3   129  LEU129      0.0001
     96  CD2       21.1320   18.9670  109.8790 C.3   129  LEU129      0.0001
     97  N         21.6540   25.4290  111.4180 N.3   131  TRP131     -0.1227
     98  CA        20.7700   25.9050  112.4420 C.3   131  TRP131      0.1737
     99  C         20.7640   25.0380  113.6690 C.2   131  TRP131      0.2595
    100  O         20.0510   25.3560  114.6210 O.2   131  TRP131     -0.2718
    101  CB        19.3830   25.9880  111.8530 C.3   131  TRP131      0.0564
    102  CG        18.8660   24.6510  111.5320 C.ar  131  TRP131      0.0003
    103  CD1       19.0670   23.9350  110.3820 C.ar  131  TRP131      0.0946
    104  CD2       18.0220   23.8630  112.3540 C.ar  131  TRP131      0.0152
    105  NE1       18.3990   22.7370  110.4570 N.ar  131  TRP131     -0.2442
    106  CE2       17.7490   22.6770  111.6600 C.ar  131  TRP131      0.0810
    107  CE3       17.4670   24.0480  113.6160 C.ar  131  TRP131      0.0012
    108  CZ2       16.9540   21.6870  112.1880 C.ar  131  TRP131      0.0191
    109  CZ3       16.6870   23.0690  114.1310 C.ar  131  TRP131      0.0001
    110  CH2       16.4370   21.8990  113.4280 C.ar  131  TRP131      0.0015
    111  N         21.4940   23.9340  113.6730 N.am  132  ARG132     -0.1980
    112  CA        21.5300   23.1020  114.8630 C.3   132  ARG132      0.1597
    113  C         22.7190   23.4410  115.7490 C.2   132  ARG132      0.2287
    114  O         22.7740   22.9940  116.9000 O.2   132  ARG132     -0.2864
    115  CB        21.5360   21.6140  114.4750 C.3   132  ARG132      0.0334
    116  CG        20.3470   21.2310  113.6080 C.3   132  ARG132      0.0492
    117  CD        20.1790   19.7040  113.4710 C.3   132  ARG132      0.2205
    118  NE        18.8930   19.3390  112.8490 N.pl3 132  ARG132     -0.0865
    119  CZ        18.1430   18.2830  113.1870 C.cat 132  ARG132      0.5346
    120  NH1       18.5100   17.4890  114.1980 N.pl3 132  ARG132      0.1354
    121  NH2       16.9970   18.0460  112.5360 N.pl3 132  ARG132      0.1354
    122  N         22.1010   24.1170  101.5090 N.3   161  LEU161     -0.1245
    123  CA        21.0240   24.6570  102.3100 C.3   161  LEU161      0.1561
    124  C         21.6460   25.3940  103.4770 C.2   161  LEU161      0.2260
    125  O         22.4370   24.8110  104.2230 O.2   161  LEU161     -0.2867
    126  CB        20.1000   23.5520  102.8150 C.3   161  LEU161      0.0270
    127  CG        19.0510   24.1240  103.7650 C.3   161  LEU161      0.0019
    128  CD1       18.2170   25.1870  103.0580 C.3   161  LEU161      0.0001
    129  CD2       18.1710   23.0690  104.4380 C.3   161  LEU161      0.0001
    130  N         20.7580   28.9830  106.3350 N.3   163  HIS163     -0.1241
    131  CA        19.7800   29.9050  106.8920 C.3   163  HIS163      0.1621
    132  C         20.4950   31.1960  107.2480 C.2   163  HIS163      0.2264
    133  O         21.4050   31.1850  108.0800 O.2   163  HIS163     -0.2867
    134  CB        19.0790   29.2940  108.1140 C.3   163  HIS163      0.0745
    135  CG        18.3020   28.0500  107.8060 C.ar  163  HIS163      0.0817
    136  ND1       18.8950   26.8260  107.5640 N.ar  163  HIS163     -0.2268
    137  CD2       16.9660   27.8620  107.6700 C.ar  163  HIS163      0.1154
    138  CE1       17.9500   25.9370  107.3080 C.ar  163  HIS163      0.1986
    139  NE2       16.7690   26.5410  107.3500 N.ar  163  HIS163     -0.2212
@<TRIPOS>BOND
     1    69    68    1
     2    69    70    2
     3    68    67    1
     4    68    71    1
     5    43    42    1
     6    43    37    1
     7    42    41    1
     8    71    72    1
     9    37    38    1
    10    17    18    1
    11    41    38    1
    12    72    74   ar
    13    72    73   ar
    14    38    39    1
    15    77    74   ar
    16    77    79   ar
    17    74    76   ar
    18    18    21    1
    19    18    19    1
    20    73    75   ar
    21   122   123    1
    22     7     6   ar
    23    79    80   ar
    24    65    64    1
    25    65    66    2
    26    21    22    1
    27    19    20    2
    28   123   126    1
    29   123   124    1
    30    39    40    2
    31    39    44   am
    32    76    75   ar
    33    76    78   ar
    34    64    63    1
    35    23    22   ar
    36    23    25   ar
    37     8     6   ar
    38     6     5    1
    39   126   127    1
    40    80    78   ar
    41    22    24   ar
    42   128   127    1
    43    50    44    1
    44    50    49    1
    45    81    82    1
    46    44    45    1
    47   124   125    2
    48    25    26   ar
    49     1     2    1
    50    63    53   am
    51   127   129    1
    52     2     5    1
    53     2     3    1
    54    82    85    1
    55    82    83    1
    56    24    26   ar
    57    49    48    1
    58    45    46    1
    59    45    48    1
    60    47    46    2
    61    53    54    2
    62    53    52    1
    63    85    86    1
    64    46    51   am
    65     9     3   am
    66     9    10    1
    67     3     4    2
    68    83    84    2
    69    51    52    1
    70    15    14   ar
    71    52    55    1
    72    86    87   ar
    73    86    88   ar
    74    10    11    1
    75    10    13    1
    76   130   131    1
    77    11    12    2
    78   131   132    1
    79   131   134    1
    80    55    56    1
    81    34    36   ar
    82    34    32   ar
    83    14    13    1
    84    14    16   ar
    85   132   133    2
    86    27    28    1
    87   138   139   ar
    88   138   136   ar
    89   139   137   ar
    90    36    35   ar
    91   136   135   ar
    92    28    31    1
    93    28    29    1
    94   137   135   ar
    95   135   134    1
    96    32    31    1
    97    32    33   ar
    98    89    90    1
    99    56    58   ar
   100    56    57   ar
   101    58    60   ar
   102    35    33   ar
   103    29    30    2
   104    57    59   ar
   105    60    61   ar
   106    90    93    1
   107    90    91    1
   108    94    96    1
   109    94    93    1
   110    94    95    1
   111    59    61   ar
   112    61    62    1
   113    91    92    2
   114   103   105   ar
   115   103   102   ar
   116   105   106   ar
   117    97    98    1
   118   102   101    1
   119   102   104   ar
   120   106   108   ar
   121   106   104   ar
   122   101    98    1
   123   108   110   ar
   124   104   107   ar
   125    98    99    1
   126   121   119    1
   127   118   119    2
   128   118   117    1
   129   119   120    1
   130   110   109   ar
   131   117   116    1
   132   116   115    1
   133   107   109   ar
   134    99   111   am
   135    99   100    2
   136   111   112    1
   137   115   112    1
   138   112   113    1
   139   113   114    2
