@<TRIPOS>MOLECULE
tmp/5nelD01.pdb
 132 130 0 0 0
SMALL
GASTEIGER

@<TRIPOS>ATOM
      1  N         17.6980   31.1700  103.5750 N.3     9  ASP9       -0.1225
      2  CA        16.2820   31.0660  103.8850 C.3     9  ASP9        0.1805
      3  C         15.8660   31.9130  105.0960 C.2     9  ASP9        0.2597
      4  O         16.6780   32.1870  105.9940 O.2     9  ASP9       -0.2718
      5  CB        15.9100   29.5940  104.1340 C.3     9  ASP9        0.1424
      6  CG        15.6570   28.8070  102.8430 C.2     9  ASP9        0.3668
      7  OD1       16.1990   29.1830  101.7670 O.co2   9  ASP9       -0.2456
      8  OD2       14.9060   27.8020  102.9290 O.co2   9  ASP9       -0.2456
      9  N         14.5990   32.3300  105.0740 N.am   10  ASP10      -0.1974
     10  CA        13.8820   32.9340  106.2040 C.3    10  ASP10       0.1709
     11  C         14.1350   34.4590  106.3910 C.2    10  ASP10       0.2293
     12  O         13.6120   35.0730  107.3290 O.2    10  ASP10      -0.2864
     13  CB        14.2140   32.1820  107.5030 C.3    10  ASP10       0.1436
     14  CG        13.7770   30.7210  107.4810 C.2    10  ASP10       0.3671
     15  OD1       13.3860   30.1800  106.4250 O.co2  10  ASP10      -0.2456
     16  OD2       13.8360   30.0830  108.5470 O.co2  10  ASP10      -0.2456
     17  N          9.5320   32.1040  100.3000 N.3    59  HIS59      -0.1241
     18  CA         9.6600   31.0660  101.3160 C.3    59  HIS59       0.1621
     19  C          8.3980   31.1670  102.1950 C.2    59  HIS59       0.2264
     20  O          8.4200   30.8310  103.3860 O.2    59  HIS59      -0.2867
     21  CB        10.9610   31.2410  102.1210 C.3    59  HIS59       0.0745
     22  CG        11.3280   30.0750  103.0080 C.ar   59  HIS59       0.0817
     23  ND1       11.5150   28.7960  102.5350 N.ar   59  HIS59      -0.2268
     24  CD2       11.5950   30.0200  104.3380 C.ar   59  HIS59       0.1154
     25  CE1       11.8580   28.0020  103.5370 C.ar   59  HIS59       0.1986
     26  NE2       11.9100   28.7190  104.6430 N.ar   59  HIS59      -0.2212
     27  N          5.3940   30.4090  107.1840 N.3    63  HIS63      -0.1241
     28  CA         6.3860   29.3520  107.4790 C.3    63  HIS63       0.1621
     29  C          5.8400   28.3130  108.4750 C.2    63  HIS63       0.2264
     30  O          6.5930   27.7420  109.2690 O.2    63  HIS63      -0.2867
     31  CB         7.6820   29.9650  108.0200 C.3    63  HIS63       0.0745
     32  CG         8.8880   29.0820  107.8970 C.ar   63  HIS63       0.0817
     33  ND1        9.0620   27.9450  108.6580 N.ar   63  HIS63      -0.2268
     34  CD2       10.0070   29.2030  107.1360 C.ar   63  HIS63       0.1154
     35  CE1       10.2290   27.3980  108.3570 C.ar   63  HIS63       0.1986
     36  NE2       10.8220   28.1420  107.4360 N.ar   63  HIS63      -0.2212
     37  N         10.1820   25.5790   99.7790 N.3    98  PRO98      -0.2116
     38  CA         9.1970   25.1700  100.7950 C.3    98  PRO98       0.1372
     39  C          9.7980   25.1740  102.1880 C.2    98  PRO98       0.2244
     40  O         10.9230   24.7250  102.3480 O.2    98  PRO98      -0.2868
     41  CB         8.8100   23.7460  100.3780 C.3    98  PRO98       0.0268
     42  CG         9.4740   23.5150   99.0210 C.3    98  PRO98       0.0207
     43  CD        10.6520   24.4390   98.9740 C.3    98  PRO98       0.0892
     44  N         10.6770   23.7120  105.6000 N.3   100  TYR100     -0.1227
     45  CA        10.8910   22.3290  106.0350 C.3   100  TYR100      0.1736
     46  C         11.0430   21.3930  104.8330 C.2   100  TYR100      0.2596
     47  O         10.9330   20.1710  104.9740 O.2   100  TYR100     -0.2718
     48  CB         9.7500   21.8710  106.9600 C.3   100  TYR100      0.0548
     49  CG         9.3760   22.8960  108.0160 C.ar  100  TYR100     -0.0200
     50  CD1       10.3250   23.3860  108.9250 C.ar  100  TYR100     -0.0009
     51  CD2        8.0820   23.3820  108.1090 C.ar  100  TYR100     -0.0009
     52  CE1        9.9880   24.3320  109.8970 C.ar  100  TYR100      0.0417
     53  CE2        7.7330   24.3260  109.0770 C.ar  100  TYR100      0.0417
     54  CZ         8.6850   24.7970  109.9680 C.ar  100  TYR100      0.1957
     55  OH         8.3130   25.7340  110.9220 O.3   100  TYR100     -0.2866
     56  N         11.3100   21.9840  103.6620 N.am  101  GLY101     -0.1957
     57  CA        11.4310   21.2740  102.3900 C.3   101  GLY101      0.1869
     58  C         10.1340   20.7020  101.8190 C.2   101  GLY101      0.2309
     59  O          9.1170   20.6400  102.5240 O.2   101  GLY101     -0.2863
     60  N          9.4850   17.5970  101.0700 N.3   103  MET103     -0.1245
     61  CA         9.2350   16.2340  101.5240 C.3   103  MET103      0.1570
     62  C          9.0230   16.1680  103.0260 C.2   103  MET103      0.2261
     63  O          9.9370   16.4880  103.7840 O.2   103  MET103     -0.2867
     64  CB        10.4100   15.3440  101.1370 C.3   103  MET103      0.0387
     65  CG        10.2730   13.8960  101.5520 C.3   103  MET103      0.0595
     66  SD         9.2330   12.9350  100.4230 S.3   103  MET103     -0.1393
     67  CE        10.1280   13.1060   98.8960 C.3   103  MET103      0.0692
     68  N         17.1550   21.2410   98.1110 N.3   124  TRP124     -0.1241
     69  CA        18.6050   21.4330   98.1400 C.3   124  TRP124      0.1605
     70  C         19.3620   20.1260   98.1520 C.2   124  TRP124      0.2264
     71  O         18.7880   19.0730   98.3960 O.2   124  TRP124     -0.2867
     72  CB        19.0210   22.2730   99.3600 C.3   124  TRP124      0.0550
     73  CG        18.5950   21.6610  100.6110 C.ar  124  TRP124      0.0003
     74  CD1       19.3410   20.8570  101.4220 C.ar  124  TRP124      0.0946
     75  CD2       17.3000   21.7580  101.2110 C.ar  124  TRP124      0.0152
     76  NE1       18.5870   20.4510  102.5030 N.ar  124  TRP124     -0.2442
     77  CE2       17.3300   20.9890  102.3970 C.ar  124  TRP124      0.0810
     78  CE3       16.1270   22.4330  100.8730 C.ar  124  TRP124      0.0012
     79  CZ2       16.2320   20.8730  103.2400 C.ar  124  TRP124      0.0191
     80  CZ3       15.0290   22.3090  101.7000 C.ar  124  TRP124      0.0001
     81  CH2       15.0890   21.5300  102.8750 C.ar  124  TRP124      0.0015
     82  N         22.6800   20.4370  103.1460 N.3   127  ASP127     -0.1239
     83  CA        22.0500   21.0640  104.2890 C.3   127  ASP127      0.1674
     84  C         23.1670   21.4690  105.2400 C.2   127  ASP127      0.2266
     85  O         23.6350   20.6540  106.0220 O.2   127  ASP127     -0.2867
     86  CB        21.0540   20.0940  104.9320 C.3   127  ASP127      0.1410
     87  CG        20.3800   20.6590  106.1580 C.2   127  ASP127      0.3668
     88  OD1       20.8660   21.6820  106.7040 O.co2 127  ASP127     -0.2456
     89  OD2       19.3440   20.0740  106.5620 O.co2 127  ASP127     -0.2456
     90  N         21.5090   26.4470  111.3980 N.3   131  TRP131     -0.1227
     91  CA        20.6310   26.8520  112.4890 C.3   131  TRP131      0.1737
     92  C         20.6710   25.9730  113.7350 C.2   131  TRP131      0.2595
     93  O         19.9650   26.2460  114.7050 O.2   131  TRP131     -0.2718
     94  CB        19.1840   26.9380  112.0140 C.3   131  TRP131      0.0564
     95  CG        18.6110   25.6480  111.6180 C.ar  131  TRP131      0.0003
     96  CD1       18.5970   25.1160  110.3670 C.ar  131  TRP131      0.0946
     97  CD2       17.9690   24.7020  112.4670 C.ar  131  TRP131      0.0152
     98  NE1       17.9820   23.8960  110.3810 N.ar  131  TRP131     -0.2442
     99  CE2       17.5890   23.6140  111.6610 C.ar  131  TRP131      0.0810
    100  CE3       17.6770   24.6660  113.8260 C.ar  131  TRP131      0.0012
    101  CZ2       16.9270   22.4980  112.1700 C.ar  131  TRP131      0.0191
    102  CZ3       17.0310   23.5500  114.3340 C.ar  131  TRP131      0.0001
    103  CH2       16.6590   22.4810  113.5050 C.ar  131  TRP131      0.0015
    104  N         21.4750   24.9220  113.7330 N.am  132  ARG132     -0.1980
    105  CA        21.5040   24.0410  114.9000 C.3   132  ARG132      0.1597
    106  C         22.7000   24.3970  115.7530 C.2   132  ARG132      0.2287
    107  O         22.9230   23.7960  116.7990 O.2   132  ARG132     -0.2864
    108  CB        21.5480   22.5620  114.4930 C.3   132  ARG132      0.0334
    109  CG        20.2970   22.1090  113.8090 C.3   132  ARG132      0.0492
    110  CD        20.4260   20.6860  113.2960 C.3   132  ARG132      0.2205
    111  NE        19.1450   20.2150  112.7720 N.pl3 132  ARG132     -0.0865
    112  CZ        18.4270   19.2240  113.2880 C.cat 132  ARG132      0.5346
    113  NH1       18.8650   18.5440  114.3450 N.pl3 132  ARG132      0.1354
    114  NH2       17.2650   18.9160  112.7310 N.pl3 132  ARG132      0.1354
    115  N         22.0110   24.9910  101.4610 N.3   161  LEU161     -0.1245
    116  CA        20.9770   25.5620  102.2920 C.3   161  LEU161      0.1561
    117  C         21.6280   26.3470  103.3930 C.2   161  LEU161      0.2260
    118  O         22.4560   25.8140  104.1140 O.2   161  LEU161     -0.2867
    119  CB        20.0790   24.4810  102.8730 C.3   161  LEU161      0.0270
    120  CG        18.9790   25.0040  103.7890 C.3   161  LEU161      0.0019
    121  CD1       18.2020   26.0730  103.0950 C.3   161  LEU161      0.0001
    122  CD2       18.0380   23.8930  104.2570 C.3   161  LEU161      0.0001
    123  N         20.6100   29.8550  106.2810 N.3   163  HIS163     -0.1241
    124  CA        19.6740   30.8320  106.8270 C.3   163  HIS163      0.1621
    125  C         20.4530   32.0760  107.1810 C.2   163  HIS163      0.2264
    126  O         21.2750   32.0420  108.0870 O.2   163  HIS163     -0.2867
    127  CB        18.9680   30.2920  108.0700 C.3   163  HIS163      0.0745
    128  CG        18.2350   29.0080  107.8410 C.ar  163  HIS163      0.0817
    129  ND1       18.8850   27.8110  107.6210 N.ar  163  HIS163     -0.2268
    130  CD2       16.9110   28.7370  107.7960 C.ar  163  HIS163      0.1154
    131  CE1       17.9880   26.8550  107.4470 C.ar  163  HIS163      0.1986
    132  NE2       16.7830   27.3890  107.5470 N.ar  163  HIS163     -0.2212
@<TRIPOS>BOND
     1    68    69    1
     2    69    70    1
     3    69    72    1
     4    70    71    2
     5    67    66    1
     6    43    42    1
     7    43    37    1
     8    42    41    1
     9    72    73    1
    10    37    38    1
    11    17    18    1
    12    41    38    1
    13    66    65    1
    14    73    75   ar
    15    73    74   ar
    16    38    39    1
    17    78    75   ar
    18    78    80   ar
    19    60    61    1
    20    64    61    1
    21    64    65    1
    22    75    77   ar
    23    18    21    1
    24    18    19    1
    25    74    76   ar
    26   115   116    1
    27    61    62    1
    28    80    81   ar
    29     7     6   ar
    30    58    57    1
    31    58    59    2
    32    21    22    1
    33    39    40    2
    34    19    20    2
    35   116   119    1
    36   116   117    1
    37    57    56    1
    38    77    76   ar
    39    77    79   ar
    40    23    22   ar
    41    23    25   ar
    42     6     8   ar
    43     6     5    1
    44   119   120    1
    45    81    79   ar
    46    22    24   ar
    47    62    63    2
    48   121   120    1
    49    82    83    1
    50   117   118    2
    51    25    26   ar
    52     1     2    1
    53    56    46   am
    54   120   122    1
    55     2     5    1
    56     2     3    1
    57    83    86    1
    58    83    84    1
    59    24    26   ar
    60    46    47    2
    61    46    45    1
    62    86    87    1
    63     9     3   am
    64     9    10    1
    65     3     4    2
    66    84    85    2
    67    44    45    1
    68    45    48    1
    69    87    89   ar
    70    87    88   ar
    71    10    11    1
    72    10    13    1
    73   123   124    1
    74    11    12    2
    75    15    14   ar
    76   124   125    1
    77   124   127    1
    78    48    49    1
    79    34    36   ar
    80    34    32   ar
    81   125   126    2
    82    27    28    1
    83    36    35   ar
    84   131   132   ar
    85   131   129   ar
    86    28    31    1
    87    28    29    1
    88    14    13    1
    89    14    16   ar
    90   132   130   ar
    91   129   128   ar
    92   130   128   ar
    93   128   127    1
    94    32    31    1
    95    32    33   ar
    96    49    51   ar
    97    49    50   ar
    98    51    53   ar
    99    35    33   ar
   100    29    30    2
   101    50    52   ar
   102    53    54   ar
   103    52    54   ar
   104    54    55    1
   105    96    98   ar
   106    96    95   ar
   107    98    99   ar
   108    90    91    1
   109    95    94    1
   110    95    97   ar
   111    99   101   ar
   112    99    97   ar
   113    94    91    1
   114   101   103   ar
   115    97   100   ar
   116    91    92    1
   117   114   112    1
   118   111   112    2
   119   111   110    1
   120   112   113    1
   121   110   109    1
   122   103   102   ar
   123   104    92   am
   124   104   105    1
   125    92    93    2
   126   109   108    1
   127   100   102   ar
   128   108   105    1
   129   105   106    1
   130   106   107    2
