@<TRIPOS>MOLECULE
tmp/5nevC00.pdb
 166 159 0 0 0
SMALL
GASTEIGER

@<TRIPOS>ATOM
      1  N        -28.2730   18.5080   36.0260 N.3    11  ILE11      -0.1231
      2  CA       -29.5850   18.8540   35.4510 C.3    11  ILE11       0.1692
      3  C        -30.7310   18.7310   36.4410 C.2    11  ILE11       0.2593
      4  O        -31.8370   19.1810   36.1730 O.2    11  ILE11      -0.2718
      5  CB       -29.8790   17.9780   34.1830 C.3    11  ILE11       0.0266
      6  CG1      -29.6030   18.7680   32.9010 C.3    11  ILE11       0.0019
      7  CG2      -31.3130   17.4420   34.0790 C.3    11  ILE11       0.0020
      8  CD1      -29.5180   17.8990   31.6600 C.3    11  ILE11       0.0001
      9  N        -30.4910   18.0980   37.5770 N.am   12  GLY12      -0.1942
     10  CA       -31.5830   17.6180   38.4230 C.3    12  GLY12       0.2014
     11  C        -31.3260   16.2940   39.1290 C.2    12  GLY12       0.2639
     12  O        -30.2790   15.7000   38.9850 O.2    12  GLY12      -0.2714
     13  N        -32.2840   15.8840   39.9480 N.am   13  GLU13      -0.1963
     14  CA       -32.2720   14.6020   40.6630 C.3    13  GLU13       0.1733
     15  C        -33.6370   14.0320   40.3440 C.2    13  GLU13       0.2616
     16  O        -34.6400   14.7670   40.3910 O.2    13  GLU13      -0.2715
     17  CB       -32.0480   14.7610   42.1960 C.3    13  GLU13       0.0429
     18  CG       -30.7530   15.5160   42.5500 C.3    13  GLU13       0.1163
     19  CD       -30.1550   15.2260   43.9300 C.2    13  GLU13       0.3649
     20  OE1      -30.9110   15.1150   44.9170 O.co2  13  GLU13      -0.2457
     21  OE2      -28.9060   15.1510   44.0430 O.co2  13  GLU13      -0.2457
     22  N        -33.6870   12.7570   39.9570 N.am   14  GLY14      -0.1955
     23  CA       -34.9500   12.1070   39.5520 C.3    14  GLY14       0.1869
     24  C        -35.4960   11.1730   40.6210 C.2    14  GLY14       0.2309
     25  O        -35.3170   11.4130   41.8210 O.2    14  GLY14      -0.2863
     26  N        -28.9480   13.2160   37.5150 N.3    19  VAL19      -0.1245
     27  CA       -28.8910   13.3600   36.0600 C.3    19  VAL19       0.1561
     28  C        -27.9990   14.5390   35.6430 C.2    19  VAL19       0.2260
     29  O        -28.1640   15.6050   36.1640 O.2    19  VAL19      -0.2867
     30  CB       -30.3050   13.6110   35.4940 C.3    19  VAL19       0.0252
     31  CG1      -30.3240   13.4410   33.9800 C.3    19  VAL19       0.0019
     32  CG2      -31.3250   12.6740   36.1220 C.3    19  VAL19       0.0019
     33  N        -28.0480   13.0620   28.1950 N.3    32  ALA32      -0.1245
     34  CA       -28.3610   13.1640   29.6010 C.3    32  ALA32       0.1562
     35  C        -27.9610   11.8710   30.2450 C.2    32  ALA32       0.2260
     36  O        -28.4140   10.8100   29.8450 O.2    32  ALA32      -0.2867
     37  CB       -29.8350   13.3700   29.7810 C.3    32  ALA32       0.0290
     38  N        -27.8160    9.7330   33.4980 N.3    34  LYS34      -0.1245
     39  CA       -28.3630    9.5000   34.8370 C.3    34  LYS34       0.1561
     40  C        -27.5110    8.5010   35.6260 C.2    34  LYS34       0.2260
     41  O        -27.4040    7.3740   35.2160 O.2    34  LYS34      -0.2867
     42  CB       -29.7740    8.9570   34.7120 C.3    34  LYS34       0.0271
     43  CG       -30.4740    8.8320   36.0610 C.3    34  LYS34       0.0035
     44  CD       -31.8650    8.2260   35.9880 C.3    34  LYS34       0.0206
     45  CE       -32.9330    8.9210   35.0780 C.3    34  LYS34       0.1093
     46  NZ       -34.3080    9.1280   35.6960 N.3    34  LYS34      -0.1314
     47  N        -38.8950    8.9870   25.7970 N.3    65  VAL65      -0.1245
     48  CA       -37.4930    9.3110   25.7900 C.3    65  VAL65       0.1561
     49  C        -36.6910    8.0930   25.5380 C.2    65  VAL65       0.2260
     50  O        -36.7850    7.1300   26.2680 O.2    65  VAL65      -0.2867
     51  CB       -37.0180    9.9550   27.1030 C.3    65  VAL65       0.0252
     52  CG1      -35.5250   10.0840   27.1120 C.3    65  VAL65       0.0019
     53  CG2      -37.4960   11.4000   27.1680 C.3    65  VAL65       0.0019
     54  N        -29.1770    8.7200   28.0140 N.3    81  PHE81      -0.1227
     55  CA       -30.4770    9.0080   27.4170 C.3    81  PHE81       0.1736
     56  C        -30.2810   10.0890   26.3700 C.2    81  PHE81       0.2595
     57  O        -29.3240   10.8650   26.4380 O.2    81  PHE81      -0.2718
     58  CB       -31.4230    9.6120   28.4680 C.3    81  PHE81       0.0547
     59  CG       -31.9920    8.6390   29.4510 C.ar   81  PHE81      -0.0202
     60  CD1      -33.1730    8.0150   29.2210 C.ar   81  PHE81      -0.0042
     61  CD2      -31.3550    8.3930   30.6080 C.ar   81  PHE81      -0.0042
     62  CE1      -33.7290    7.1550   30.1340 C.ar   81  PHE81      -0.0003
     63  CE2      -31.8720    7.5180   31.5310 C.ar   81  PHE81      -0.0003
     64  CZ       -33.0730    6.8890   31.2940 C.ar   81  PHE81      -0.0000
     65  N        -31.2380   10.2070   25.4540 N.am   82  GLU82      -0.1965
     66  CA       -31.2860   11.3750   24.5820 C.3    82  GLU82       0.1733
     67  C        -31.5010   12.6170   25.4070 C.2    82  GLU82       0.2616
     68  O        -32.1520   12.5870   26.4440 O.2    82  GLU82      -0.2715
     69  CB       -32.3830   11.2770   23.4950 C.3    82  GLU82       0.0429
     70  CG       -33.8570   11.2150   23.9390 C.3    82  GLU82       0.1163
     71  CD       -34.8620   11.5330   22.7930 C.2    82  GLU82       0.3649
     72  OE1      -34.6580   12.5510   22.0720 O.co2  82  GLU82      -0.2457
     73  OE2      -35.8750   10.7710   22.6140 O.co2  82  GLU82      -0.2457
     74  N        -30.9610   13.7300   24.9620 N.am   83  PHE83      -0.1960
     75  CA       -31.0620   14.9110   25.7920 C.3    83  PHE83       0.1771
     76  C        -32.2110   15.8060   25.3590 C.2    83  PHE83       0.2619
     77  O        -32.2760   16.1390   24.2220 O.2    83  PHE83      -0.2715
     78  CB       -29.7540   15.6790   25.7340 C.3    83  PHE83       0.0574
     79  CG       -29.8280   16.9910   26.4100 C.ar   83  PHE83      -0.0200
     80  CD1      -29.7650   17.0610   27.7740 C.ar   83  PHE83      -0.0042
     81  CD2      -29.9580   18.1470   25.6670 C.ar   83  PHE83      -0.0042
     82  CE1      -29.8270   18.2650   28.3910 C.ar   83  PHE83      -0.0003
     83  CE2      -30.0380   19.3700   26.2790 C.ar   83  PHE83      -0.0003
     84  CZ       -29.9620   19.4270   27.6500 C.ar   83  PHE83      -0.0000
     85  N        -33.0960   16.2060   26.2530 N.am   84  LEU84      -0.1963
     86  CA       -34.0570   17.2050   25.8900 C.3    84  LEU84       0.1728
     87  C        -33.7940   18.4730   26.6810 C.2    84  LEU84       0.2616
     88  O        -33.1760   18.4440   27.7430 O.2    84  LEU84      -0.2715
     89  CB       -35.4560   16.6550   26.0620 C.3    84  LEU84       0.0311
     90  CG       -35.7080   15.6160   24.9650 C.3    84  LEU84       0.0022
     91  CD1      -35.4580   14.2310   25.5000 C.3    84  LEU84       0.0001
     92  CD2      -37.1350   15.6270   24.4250 C.3    84  LEU84       0.0001
     93  N        -34.2580   19.5890   26.1230 N.am   85  HIS85      -0.1959
     94  CA       -33.8370   20.9140   26.5520 C.3    85  HIS85       0.1787
     95  C        -34.4320   21.3130   27.8650 C.2    85  HIS85       0.2620
     96  O        -33.7560   21.9600   28.6680 O.2    85  HIS85      -0.2715
     97  CB       -34.2210   21.9940   25.5280 C.3    85  HIS85       0.0785
     98  CG       -33.2830   23.1490   25.5470 C.ar   85  HIS85       0.0821
     99  ND1      -33.6760   24.4310   25.8870 N.ar   85  HIS85      -0.2267
    100  CD2      -31.9370   23.2070   25.3250 C.ar   85  HIS85       0.1154
    101  CE1      -32.6170   25.2380   25.8520 C.ar   85  HIS85       0.1986
    102  NE2      -31.5490   24.5200   25.5160 N.ar   85  HIS85      -0.2212
    103  N        -35.6790   20.8950   28.0980 N.am   86  GLN86      -0.1963
    104  CA       -36.5340   21.4460   29.1520 C.3    86  GLN86       0.1733
    105  C        -37.6530   20.4970   29.5180 C.2    86  GLN86       0.2616
    106  O        -37.9450   19.6000   28.7720 O.2    86  GLN86      -0.2715
    107  CB       -37.1540   22.7170   28.6180 C.3    86  GLN86       0.0408
    108  CG       -37.6120   23.6880   29.6650 C.3    86  GLN86       0.0908
    109  CD       -37.8670   25.0380   29.0410 C.2    86  GLN86       0.2608
    110  OE1      -38.8310   25.2330   28.2970 O.2    86  GLN86      -0.2717
    111  NE2      -36.9860   25.9610   29.3090 N.am   86  GLN86      -0.0878
    112  N        -38.3080   20.7030   30.6490 N.am   87  ASP87      -0.1971
    113  CA       -39.5050   19.9320   30.9390 C.3    87  ASP87       0.1709
    114  C        -40.7300   20.8140   30.9430 C.2    87  ASP87       0.2293
    115  O        -40.6250   22.0190   30.8790 O.2    87  ASP87      -0.2864
    116  CB       -39.3650   19.1520   32.2400 C.3    87  ASP87       0.1436
    117  CG       -39.2990   20.0440   33.4640 C.2    87  ASP87       0.3671
    118  OD1      -40.0820   21.0130   33.5330 O.co2  87  ASP87      -0.2456
    119  OD2      -38.4540   19.7740   34.3620 O.co2  87  ASP87      -0.2456
    120  N        -41.1770   23.4070   34.0360 N.3    90  LYS90      -0.1245
    121  CA       -40.4060   24.6020   33.7510 C.3    90  LYS90       0.1561
    122  C        -40.9410   25.4610   32.6160 C.2    90  LYS90       0.2260
    123  O        -40.9260   26.6660   32.6990 O.2    90  LYS90      -0.2867
    124  CB       -38.9860   24.1910   33.4240 C.3    90  LYS90       0.0271
    125  CG       -38.0360   25.3650   33.3130 C.3    90  LYS90       0.0035
    126  CD       -36.6250   24.9790   33.8300 C.3    90  LYS90       0.0206
    127  CE       -35.9290   26.1110   34.6000 C.3    90  LYS90       0.1093
    128  NZ       -34.8040   25.5570   35.3750 N.3    90  LYS90      -0.1314
    129  N        -43.1580   17.4510   35.5760 N.3   132  GLN132     -0.1231
    130  CA       -41.7250   17.3090   35.7830 C.3   132  GLN132      0.1698
    131  C        -41.1020   16.2250   34.8640 C.2   132  GLN132      0.2592
    132  O        -39.9410   16.3540   34.4700 O.2   132  GLN132     -0.2718
    133  CB       -41.4450   16.9480   37.2360 C.3   132  GLN132      0.0381
    134  CG       -40.0390   17.2590   37.7060 C.3   132  GLN132      0.0905
    135  CD       -39.8720   18.7100   38.1230 C.2   132  GLN132      0.2608
    136  OE1      -38.8260   19.3280   37.8910 O.2   132  GLN132     -0.2717
    137  NE2      -40.9040   19.2700   38.7790 N.am  132  GLN132     -0.0878
    138  N        -41.8650   15.1460   34.5720 N.am  133  ASN133     -0.1974
    139  CA       -41.3940   14.0350   33.7160 C.3   133  ASN133      0.1688
    140  C        -41.8320   14.0500   32.2190 C.2   133  ASN133      0.2292
    141  O        -41.7680   13.0170   31.5340 O.2   133  ASN133     -0.2864
    142  CB       -41.8060   12.6620   34.2380 C.3   133  ASN133      0.1181
    143  CG       -41.6790   12.4890   35.7360 C.2   133  ASN133      0.2629
    144  OD1      -42.5770   11.9180   36.3450 O.2   133  ASN133     -0.2716
    145  ND2      -40.5300   12.8350   36.3120 N.am  133  ASN133     -0.0877
    146  N        -40.6630   15.8030   28.8650 N.3   135  LEU135     -0.1245
    147  CA       -39.6140   16.6950   28.3690 C.3   135  LEU135      0.1561
    148  C        -39.9780   17.2590   27.0160 C.2   135  LEU135      0.2260
    149  O        -40.6200   16.5960   26.2290 O.2   135  LEU135     -0.2867
    150  CB       -38.2880   15.9790   28.2810 C.3   135  LEU135      0.0270
    151  CG       -38.0100   15.1410   29.5060 C.3   135  LEU135      0.0019
    152  CD1      -36.6370   14.5310   29.3650 C.3   135  LEU135      0.0001
    153  CD2      -38.2020   15.8370   30.8520 C.3   135  LEU135      0.0001
    154  N        -41.0100   10.5000   30.2560 N.3   145  ALA145     -0.1231
    155  CA       -39.6080   10.4700   30.6470 C.3   145  ALA145      0.1694
    156  C        -39.1290    9.8760   31.9310 C.2   145  ALA145      0.2592
    157  O        -37.8890    9.7070   32.1040 O.2   145  ALA145     -0.2718
    158  CB       -39.0470   11.8700   30.5660 C.3   145  ALA145      0.0304
    159  N        -39.9630    9.5580   32.8840 N.am  146  ASP146     -0.1974
    160  CA       -39.3280    8.8890   33.9700 C.3   146  ASP146      0.1709
    161  C        -40.0480    7.6110   34.2260 C.2   146  ASP146      0.2293
    162  O        -40.9900    7.4950   35.0530 O.2   146  ASP146     -0.2864
    163  CB       -39.1440    9.7810   35.1750 C.3   146  ASP146      0.1436
    164  CG       -38.0550    9.2850   36.1340 C.2   146  ASP146      0.3671
    165  OD1      -37.8640    8.0310   36.2170 O.co2 146  ASP146     -0.2456
    166  OD2      -37.4200   10.1510   36.8400 O.co2 146  ASP146     -0.2456
@<TRIPOS>BOND
     1    72    71   ar
     2    73    71   ar
     3    71    70    1
     4    69    70    1
     5    69    66    1
     6    77    76    2
     7    92    90    1
     8    66    67    1
     9    66    65    1
    10    74    67   am
    11    74    75    1
    12    90    91    1
    13    90    89    1
    14   100   102   ar
    15   100    98   ar
    16    76    75    1
    17    76    85   am
    18    67    68    2
    19    65    56   am
    20   102   101   ar
    21    97    98    1
    22    97    94    1
    23    49    48    1
    24    49    50    2
    25    98    99   ar
    26    81    83   ar
    27    81    79   ar
    28    78    75    1
    29    78    79    1
    30    48    47    1
    31    48    51    1
    32   101    99   ar
    33    86    89    1
    34    86    85    1
    35    86    87    1
    36    93    94    1
    37    93    87   am
    38   149   148    2
    39    83    84   ar
    40    56    57    2
    41    56    55    1
    42    79    80   ar
    43    94    95    1
    44    87    88    2
    45   148   147    1
    46    51    52    1
    47    51    53    1
    48    55    54    1
    49    55    58    1
    50    84    82   ar
    51    80    82   ar
    52    95   103   am
    53    95    96    2
    54   103   104    1
    55    33    34    1
    56   150   147    1
    57   150   151    1
    58   110   109    2
    59   147   146    1
    60    58    59    1
    61   107   104    1
    62   107   108    1
    63   106   105    2
    64   109   111   am
    65   109   108    1
    66   104   105    1
    67    60    59   ar
    68    60    62   ar
    69   152   151    1
    70    59    61   ar
    71   151   153    1
    72   105   112   am
    73    34    37    1
    74    34    35    1
    75    36    35    2
    76    62    64   ar
    77   154   155    1
    78   158   155    1
    79    61    63   ar
    80   155   156    1
    81   112   113    1
    82   115   114    2
    83   113   114    1
    84   113   116    1
    85    64    63   ar
    86   141   140    2
    87     8     6    1
    88   156   157    2
    89   156   159   am
    90   140   139    1
    91   116   117    1
    92   122   123    2
    93   122   121    1
    94   159   160    1
    95     6     5    1
    96   125   124    1
    97   125   126    1
    98   124   121    1
    99   117   118   ar
   100   117   119   ar
   101    38    39    1
   102   139   142    1
   103   139   138    1
   104   121   120    1
   105   126   127    1
   106   160   161    1
   107   160   163    1
   108    31    30    1
   109     7     5    1
   110     5     2    1
   111   161   162    2
   112   142   143    1
   113   132   131    2
   114   138   131   am
   115   127   128    1
   116    42    39    1
   117    42    43    1
   118    39    40    1
   119   131   130    1
   120    45    46    1
   121    45    44    1
   122   163   164    1
   123    41    40    2
   124     2     1    1
   125     2     3    1
   126    30    27    1
   127    30    32    1
   128   129   130    1
   129    28    27    1
   130    28    29    2
   131   143   145   am
   132   143   144    2
   133   130   133    1
   134    44    43    1
   135    27    26    1
   136   164   165   ar
   137   164   166   ar
   138     4     3    2
   139     3     9   am
   140   133   134    1
   141     9    10    1
   142   134   135    1
   143   136   135    2
   144   135   137   am
   145    10    11    1
   146    12    11    2
   147    11    13   am
   148    23    22    1
   149    23    24    1
   150    13    14    1
   151    22    15   am
   152    15    16    2
   153    15    14    1
   154    24    25    2
   155    14    17    1
   156    17    18    1
   157    18    19    1
   158    19    21   ar
   159    19    20   ar
