@<TRIPOS>MOLECULE
tmp/5neyB00.pdb
 74 71 0 0 0
SMALL
GASTEIGER

@<TRIPOS>ATOM
      1  N         15.0170    5.5220    8.1720 N.3    22  SER22      -0.1202
      2  CA        14.6790    4.9120    6.8960 C.3    22  SER22       0.2020
      3  C         15.9000    4.9600    5.9940 C.2    22  SER22       0.2619
      4  O         16.7460    5.8450    6.1310 O.2    22  SER22      -0.2717
      5  CB        13.5160    5.6490    6.2210 C.3    22  SER22       0.2103
      6  OG        13.3610    5.2050    4.8770 O.3    22  SER22      -0.2182
      7  N         15.9640    4.0270    5.0450 N.am   23  SER23      -0.1937
      8  CA        17.0120    4.1460    4.0340 C.3    23  SER23       0.2055
      9  C         16.7020    5.2160    2.9980 C.2    23  SER23       0.2643
     10  O         17.6120    5.6530    2.2840 O.2    23  SER23      -0.2714
     11  CB        17.2270    2.8030    3.3430 C.3    23  SER23       0.2130
     12  OG        16.0200    2.3910    2.7690 O.3    23  SER23      -0.2179
     13  N         15.4530    5.6580    2.9100 N.am   24  GLY24      -0.1954
     14  CA        15.0880    6.7150    1.9960 C.3    24  GLY24       0.1869
     15  C         15.3140    8.0930    2.5930 C.2    24  GLY24       0.2309
     16  O         15.1860    8.3000    3.7970 O.2    24  GLY24      -0.2863
     17  N          9.1210   11.1570    0.2770 N.3    69  VAL69      -0.1231
     18  CA        10.3870   10.5440   -0.1070 C.3    69  VAL69       0.1692
     19  C         10.3960   10.5700   -1.6170 C.2    69  VAL69       0.2592
     20  O          9.4430   10.0820   -2.2390 O.2    69  VAL69      -0.2718
     21  CB        10.5310    9.1080    0.4250 C.3    69  VAL69       0.0266
     22  CG1       11.8000    8.4320   -0.1090 C.3    69  VAL69       0.0020
     23  CG2       10.5320    9.1280    1.9570 C.3    69  VAL69       0.0020
     24  N         11.4130   11.2160   -2.1910 N.am   70  ASN70      -0.1974
     25  CA        11.5170   11.4390   -3.6430 C.3    70  ASN70       0.1688
     26  C         10.1870   11.8950   -4.2330 C.2    70  ASN70       0.2292
     27  O          9.7050   11.3850   -5.2510 O.2    70  ASN70      -0.2864
     28  CB        12.0540   10.2000   -4.3360 C.3    70  ASN70       0.1181
     29  CG        13.5700   10.1440   -4.2830 C.2    70  ASN70       0.2629
     30  OD1       14.1730   10.5740   -3.2990 O.2    70  ASN70      -0.2716
     31  ND2       14.1930    9.6710   -5.3520 N.am   70  ASN70      -0.0877
     32  N          7.1050   11.6330   -3.2230 N.3    72  ARG72      -0.1231
     33  CA         5.8570   10.9020   -2.9880 C.3    72  ARG72       0.1679
     34  C          5.4510   11.0380   -1.5320 C.2    72  ARG72       0.2434
     35  O          6.2450   10.6600   -0.6590 O.2    72  ARG72      -0.2733
     36  CB         6.0160    9.4360   -3.3390 C.3    72  ARG72       0.0321
     37  CG         4.7110    8.6780   -3.2410 C.3    72  ARG72       0.0489
     38  CD         4.8670    7.2100   -3.4970 C.3    72  ARG72       0.2205
     39  NE         3.6280    6.4960   -3.1930 N.pl3  72  ARG72      -0.0865
     40  CZ         3.3970    5.2300   -3.5270 C.cat  72  ARG72       0.5346
     41  NH1        4.3200    4.5420   -4.1850 N.pl3  72  ARG72       0.1354
     42  NH2        2.2420    4.6550   -3.2060 N.pl3  72  ARG72       0.1354
     43  N          4.2740   11.5810   -1.2280 N.am   73  PRO73      -0.2718
     44  CA         3.8140   11.6510    0.1700 C.3    73  PRO73       0.1535
     45  C          3.8460   10.3020    0.8780 C.2    73  PRO73       0.2599
     46  O          3.3280    9.3030    0.3780 O.2    73  PRO73      -0.2715
     47  CB         2.3790   12.1690    0.0340 C.3    73  PRO73       0.0310
     48  CG         2.4080   12.9930   -1.1990 C.3    73  PRO73       0.0237
     49  CD         3.3290   12.2510   -2.1430 C.3    73  PRO73       0.0939
     50  N          4.4460   10.2800    2.0670 N.am   74  SER74      -0.1950
     51  CA         4.3180    9.1340    2.9520 C.3    74  SER74       0.1924
     52  C          2.9460    9.1490    3.6410 C.2    74  SER74       0.2314
     53  O          2.2900   10.1840    3.7440 O.2    74  SER74      -0.2863
     54  CB         5.4180    9.1530    4.0170 C.3    74  SER74       0.2116
     55  OG         6.7050    9.1940    3.4360 O.3    74  SER74      -0.2180
     56  N          6.9460    5.2780    4.6240 N.3    96  ASP96      -0.1225
     57  CA         7.3430    5.5150    3.2440 C.3    96  ASP96       0.1805
     58  C          7.3880    4.2370    2.4250 C.2    96  ASP96       0.2598
     59  O          7.7520    4.2910    1.2460 O.2    96  ASP96      -0.2718
     60  CB         8.7060    6.2360    3.1930 C.3    96  ASP96       0.1424
     61  CG         9.8740    5.3900    3.7030 C.2    96  ASP96       0.3668
     62  OD1        9.7880    4.1550    3.8260 O.co2  96  ASP96      -0.2456
     63  OD2       10.9170    5.9970    3.9880 O.co2  96  ASP96      -0.2456
     64  N          7.0660    3.0960    3.0280 N.am   97  GLY97      -0.1942
     65  CA         7.1440    1.8020    2.3650 C.3    97  GLY97       0.2014
     66  C          6.0520    0.8350    2.7940 C.2    97  GLY97       0.2639
     67  O          4.8810    1.2130    2.8780 O.2    97  GLY97      -0.2714
     68  N          6.4290   -0.4100    3.0890 N.am   98  THR98      -0.1950
     69  CA         5.4580   -1.4530    3.3680 C.3    98  THR98       0.1897
     70  C          5.6490   -2.1690    4.6960 C.2    98  THR98       0.2313
     71  O          4.8520   -3.0600    5.0030 O.2    98  THR98      -0.2863
     72  CB         5.4740   -2.5090    2.2510 C.3    98  THR98       0.1794
     73  OG1        6.8290   -2.9170    2.0170 O.3    98  THR98      -0.2208
     74  CG2        4.8900   -1.9420    0.9870 C.3    98  THR98       0.0378
@<TRIPOS>BOND
     1    31    29   am
     2    27    26    2
     3    28    29    1
     4    28    25    1
     5    29    30    2
     6    26    25    1
     7    41    40    1
     8    25    24    1
     9    40    42    1
    10    40    39    2
    11    38    37    1
    12    38    39    1
    13    36    37    1
    14    36    33    1
    15    32    33    1
    16    33    34    1
    17    20    19    2
    18    24    19   am
    19    49    43    1
    20    49    48    1
    21    19    18    1
    22    34    43   am
    23    34    35    2
    24    43    44    1
    25    48    47    1
    26    22    21    1
    27    18    17    1
    28    18    21    1
    29    47    44    1
    30    44    45    1
    31    46    45    2
    32    21    23    1
    33    45    50   am
    34    74    72    1
    35    59    58    2
    36    14    15    1
    37    14    13    1
    38    73    72    1
    39    50    51    1
    40    72    69    1
    41    10     9    2
    42    65    66    1
    43    65    64    1
    44    58    64   am
    45    58    57    1
    46    15    16    2
    47    12    11    1
    48    66    67    2
    49    66    68   am
    50    13     9   am
    51    51    52    1
    52    51    54    1
    53     9     8    1
    54    68    69    1
    55    60    57    1
    56    60    61    1
    57    57    56    1
    58    11     8    1
    59    69    70    1
    60    55    54    1
    61    52    53    2
    62    61    62   ar
    63    61    63   ar
    64     8     7    1
    65    70    71    2
    66     6     5    1
    67     7     3   am
    68     3     4    2
    69     3     2    1
    70     5     2    1
    71     2     1    1
