@<TRIPOS>MOLECULE
tmp/5nf6A00.pdb
 113 105 0 0 0
SMALL
GASTEIGER

@<TRIPOS>ATOM
      1  N         56.3290   10.6220  107.2800 N.3    10  GLU10      -0.1245
      2  CA        55.2740   10.4970  108.2830 C.3    10  GLU10       0.1567
      3  C         54.8170    9.0480  108.2980 C.2    10  GLU10       0.2260
      4  O         54.2760    8.5610  107.3000 O.2    10  GLU10      -0.2867
      5  CB        54.1060   11.4340  107.9610 C.3    10  GLU10       0.0388
      6  CG        52.9880   11.4360  108.9970 C.3    10  GLU10       0.1160
      7  CD        53.3270   12.2490  110.2300 C.2    10  GLU10       0.3649
      8  OE1       53.8510   13.3730  110.0780 O.co2  10  GLU10      -0.2457
      9  OE2       53.0740   11.7620  111.3520 O.co2  10  GLU10      -0.2457
     10  N         53.6170   20.6680  106.6800 N.3    58  TYR58      -0.1241
     11  CA        52.4730   20.3910  105.8170 C.3    58  TYR58       0.1605
     12  C         51.9290   21.6730  105.1980 C.2    58  TYR58       0.2264
     13  O         51.6550   21.7250  103.9940 O.2    58  TYR58      -0.2867
     14  CB        51.3740   19.6750  106.6080 C.3    58  TYR58       0.0534
     15  CG        51.6950   18.2330  106.9230 C.ar   58  TYR58      -0.0201
     16  CD1       52.4280   17.8960  108.0520 C.ar   58  TYR58      -0.0009
     17  CD2       51.2760   17.2100  106.0830 C.ar   58  TYR58      -0.0009
     18  CE1       52.7300   16.5790  108.3400 C.ar   58  TYR58       0.0417
     19  CE2       51.5740   15.8900  106.3610 C.ar   58  TYR58       0.0417
     20  CZ        52.3020   15.5810  107.4930 C.ar   58  TYR58       0.1957
     21  OH        52.6050   14.2700  107.7780 O.3    58  TYR58      -0.2866
     22  N         49.2340   12.6310  104.0270 N.3    85  PRO85      -0.2116
     23  CA        48.0300   12.8310  104.8450 C.3    85  PRO85       0.1372
     24  C         47.7390   14.3110  105.0380 C.2    85  PRO85       0.2244
     25  O         47.7850   14.8250  106.1600 O.2    85  PRO85      -0.2868
     26  CB        48.3830   12.1350  106.1650 C.3    85  PRO85       0.0268
     27  CG        49.8720   12.1870  106.2210 C.3    85  PRO85       0.0207
     28  CD        50.3200   12.0070  104.8040 C.3    85  PRO85       0.0892
     29  N         45.4980   17.2560  105.4730 N.3    87  THR87      -0.1218
     30  CA        44.1330   17.4370  105.9480 C.3    87  THR87       0.1862
     31  C         43.4070   18.4980  105.1300 C.2    87  THR87       0.2287
     32  O         43.9370   19.5870  104.8870 O.2    87  THR87      -0.2866
     33  CB        44.1410   17.8210  107.4250 C.3    87  THR87       0.1770
     34  OG1       44.7770   16.7850  108.1830 O.3    87  THR87      -0.2211
     35  CG2       42.7210   18.0290  107.9470 C.3    87  THR87       0.0375
     36  N         42.7190   25.9630  103.8290 N.3    92  ARG92      -0.1245
     37  CA        43.5870   25.4640  102.7670 C.3    92  ARG92       0.1563
     38  C         42.8630   25.3740  101.4300 C.2    92  ARG92       0.2260
     39  O         43.4900   25.5500  100.3790 O.2    92  ARG92      -0.2867
     40  CB        44.1500   24.0920  103.1400 C.3    92  ARG92       0.0307
     41  CG        45.2010   24.1220  104.2340 C.3    92  ARG92       0.0489
     42  CD        45.5970   22.7150  104.6570 C.3    92  ARG92       0.2205
     43  NE        46.7090   22.7170  105.6020 N.pl3  92  ARG92      -0.0865
     44  CZ        47.1750   21.6320  106.2130 C.cat  92  ARG92       0.5346
     45  NH1       48.1920   21.7310  107.0590 N.pl3  92  ARG92       0.1354
     46  NH2       46.6280   20.4470  105.9810 N.pl3  92  ARG92       0.1354
     47  N         50.4060   19.4080  118.3490 N.3   134  VAL134     -0.1245
     48  CA        51.5100   19.8930  117.5320 C.3   134  VAL134      0.1561
     49  C         51.3380   21.3840  117.2840 C.2   134  VAL134      0.2260
     50  O         50.2310   21.8670  117.0050 O.2   134  VAL134     -0.2867
     51  CB        51.5930   19.1140  116.2080 C.3   134  VAL134      0.0252
     52  CG1       52.7220   19.6580  115.3360 C.3   134  VAL134      0.0019
     53  CG2       51.7970   17.6300  116.4750 C.3   134  VAL134      0.0019
     54  N         49.3690   23.2100  113.9300 N.3   137  GLY137     -0.1210
     55  CA        48.8630   22.1210  113.1300 C.3   137  GLY137      0.1956
     56  C         47.3510   22.1960  112.9730 C.2   137  GLY137      0.2612
     57  O         46.6810   23.0840  113.4920 O.2   137  GLY137     -0.2717
     58  N         46.8190   21.2170  112.2390 N.am  138  ALA138     -0.1965
     59  CA        45.3800   21.1780  112.0010 C.3   138  ALA138      0.1728
     60  C         44.6090   20.9690  113.2990 C.2   138  ALA138      0.2616
     61  O         43.5480   21.5700  113.5040 O.2   138  ALA138     -0.2715
     62  CB        45.0460   20.0790  110.9940 C.3   138  ALA138      0.0334
     63  N         45.1330   20.1310  114.1950 N.am  139  THR139     -0.1951
     64  CA        44.4600   19.8910  115.4670 C.3   139  THR139      0.1897
     65  C         44.4910   21.1360  116.3440 C.2   139  THR139      0.2313
     66  O         43.4490   21.5940  116.8380 O.2   139  THR139     -0.2863
     67  CB        45.1150   18.7050  116.1800 C.3   139  THR139      0.1794
     68  OG1       45.0300   17.5400  115.3500 O.3   139  THR139     -0.2208
     69  CG2       44.4400   18.4240  117.5150 C.3   139  THR139      0.0378
     70  N         54.6180   15.3440  115.4090 N.3   169  ASN169     -0.1240
     71  CA        54.0150   14.1210  115.9320 C.3   169  ASN169      0.1653
     72  C         55.0430   13.2570  116.6510 C.2   169  ASN169      0.2266
     73  O         54.7350   12.6370  117.6760 O.2   169  ASN169     -0.2867
     74  CB        53.3580   13.3320  114.7980 C.3   169  ASN169      0.1155
     75  CG        52.0430   13.9410  114.3460 C.2   169  ASN169      0.2627
     76  OD1       51.3490   14.5990  115.1200 O.2   169  ASN169     -0.2716
     77  ND2       51.6910   13.7170  113.0850 N.am  169  ASN169     -0.0877
     78  N         45.8590   14.6310  118.6760 N.3   185  MET185     -0.1230
     79  CA        46.3320   14.4630  117.3040 C.3   185  MET185      0.1702
     80  C         45.2290   13.7810  116.5030 C.2   185  MET185      0.2592
     81  O         44.0930   13.6570  116.9660 O.2   185  MET185     -0.2718
     82  CB        47.6560   13.6870  117.2730 C.3   185  MET185      0.0401
     83  CG        47.5260   12.1910  117.5030 C.3   185  MET185      0.0596
     84  SD        49.1100   11.3740  117.8220 S.3   185  MET185     -0.1393
     85  CE        50.1360   12.0410  116.5160 C.3   185  MET185      0.0692
     86  N         45.5570   13.3370  115.2960 N.am  186  GLU186     -0.1979
     87  CA        44.5500   12.7680  114.4140 C.3   186  GLU186      0.1602
     88  C         44.4550   11.2580  114.6030 C.2   186  GLU186      0.2287
     89  O         45.4470   10.5750  114.8700 O.2   186  GLU186     -0.2864
     90  CB        44.8600   13.1070  112.9560 C.3   186  GLU186      0.0415
     91  CG        44.6130   14.5730  112.6280 C.3   186  GLU186      0.1163
     92  CD        45.1090   14.9670  111.2560 C.2   186  GLU186      0.3649
     93  OE1       45.8940   14.1980  110.6650 O.co2 186  GLU186     -0.2457
     94  OE2       44.7180   16.0510  110.7730 O.co2 186  GLU186     -0.2457
     95  N         46.9490    8.4470  112.8650 N.3   189  THR189     -0.1218
     96  CA        48.2200    8.2400  113.5500 C.3   189  THR189      0.1862
     97  C         48.0150    7.5170  114.8730 C.2   189  THR189      0.2287
     98  O         48.7700    6.5980  115.2090 O.2   189  THR189     -0.2866
     99  CB        48.9140    9.5830  113.7780 C.3   189  THR189      0.1770
    100  OG1       48.9340   10.3260  112.5530 O.3   189  THR189     -0.2211
    101  CG2       50.3390    9.3740  114.2700 C.3   189  THR189      0.0375
    102  N         41.6550   13.2740  104.5220 N.3   212  TYR212     -0.1241
    103  CA        42.8840   13.5350  103.7870 C.3   212  TYR212      0.1605
    104  C         42.5880   13.5820  102.2950 C.2   212  TYR212      0.2264
    105  O         41.8220   12.7660  101.7770 O.2   212  TYR212     -0.2867
    106  CB        43.9300   12.4540  104.0620 C.3   212  TYR212      0.0534
    107  CG        44.4110   12.3700  105.4940 C.ar  212  TYR212     -0.0201
    108  CD1       44.5560   13.5090  106.2740 C.ar  212  TYR212     -0.0009
    109  CD2       44.7340   11.1450  106.0590 C.ar  212  TYR212     -0.0009
    110  CE1       45.0030   13.4260  107.5790 C.ar  212  TYR212      0.0417
    111  CE2       45.1830   11.0520  107.3570 C.ar  212  TYR212      0.0417
    112  CZ        45.3160   12.1920  108.1140 C.ar  212  TYR212      0.1957
    113  OH        45.7620   12.0920  109.4110 O.3   212  TYR212     -0.2866
@<TRIPOS>BOND
     1    39    38    2
     2    38    37    1
     3   105   104    2
     4   104   103    1
     5    37    40    1
     6    37    36    1
     7    40    41    1
     8   103   106    1
     9   103   102    1
    10    13    12    2
    11    22    28    1
    12    22    23    1
    13   106   107    1
    14    41    42    1
    15    42    43    1
    16    28    27    1
    17    23    24    1
    18    23    26    1
    19    32    31    2
    20    24    25    2
    21    31    30    1
    22    12    11    1
    23    29    30    1
    24   107   109   ar
    25   107   108   ar
    26    43    44    2
    27    11    14    1
    28    11    10    1
    29    30    33    1
    30    46    44    1
    31   109   111   ar
    32    17    19   ar
    33    17    15   ar
    34    26    27    1
    35    44    45    1
    36   108   110   ar
    37    19    20   ar
    38    14    15    1
    39    15    16   ar
    40     1     2    1
    41     4     3    2
    42   111   112   ar
    43    33    35    1
    44    33    34    1
    45    20    21    1
    46    20    18   ar
    47   110   112   ar
    48     5     2    1
    49     5     6    1
    50    16    18   ar
    51   112   113    1
    52     2     3    1
    53     6     7    1
    54     8     7   ar
    55     7     9   ar
    56    93    92   ar
    57    94    92   ar
    58    62    59    1
    59    92    91    1
    60    59    58    1
    61    59    60    1
    62    58    56   am
    63   100    99    1
    64    91    90    1
    65    95    96    1
    66    90    87    1
    67    56    55    1
    68    56    57    2
    69    77    75   am
    70    55    54    1
    71    60    61    2
    72    60    63   am
    73    96    99    1
    74    96    97    1
    75    99   101    1
    76    63    64    1
    77    75    74    1
    78    75    76    2
    79    87    88    1
    80    87    86    1
    81    88    89    2
    82    74    71    1
    83    97    98    2
    84    86    80   am
    85    52    51    1
    86    68    67    1
    87    70    71    1
    88    64    67    1
    89    64    65    1
    90    71    72    1
    91    67    69    1
    92    51    53    1
    93    51    48    1
    94    65    66    2
    95    80    81    2
    96    80    79    1
    97    85    84    1
    98    72    73    2
    99    50    49    2
   100    82    79    1
   101    82    83    1
   102    49    48    1
   103    79    78    1
   104    83    84    1
   105    48    47    1
