@<TRIPOS>MOLECULE
tmp/5nf7A00.pdb
 106 99 0 0 0
SMALL
GASTEIGER

@<TRIPOS>ATOM
      1  N         12.0050  -12.2970    7.4500 N.3    32  ARG32      -0.1245
      2  CA        12.4440  -10.9600    7.0290 C.3    32  ARG32       0.1563
      3  C         11.3530   -9.9410    7.1430 C.2    32  ARG32       0.2260
      4  O         10.1860  -10.2620    7.1610 O.2    32  ARG32      -0.2867
      5  CB        12.9890  -10.9460    5.6230 C.3    32  ARG32       0.0307
      6  CG        11.8710  -11.2800    4.6560 C.3    32  ARG32       0.0489
      7  CD        12.3490  -11.4410    3.2370 C.3    32  ARG32       0.2205
      8  NE        12.9580  -10.2510    2.6200 N.pl3  32  ARG32      -0.0865
      9  CZ        12.3340   -9.2790    1.9810 C.cat  32  ARG32       0.5346
     10  NH1       11.0280   -9.1870    1.9330 N.pl3  32  ARG32       0.1354
     11  NH2       13.0670   -8.3190    1.4530 N.pl3  32  ARG32       0.1354
     12  N         16.4670    1.0570    1.6440 N.3    46  HIS46      -0.1241
     13  CA        15.9900   -0.2600    1.9690 C.3    46  HIS46       0.1621
     14  C         16.4300   -0.5990    3.3550 C.2    46  HIS46       0.2264
     15  O         17.6210   -0.5090    3.6160 O.2    46  HIS46      -0.2867
     16  CB        16.5550   -1.2550    0.9550 C.3    46  HIS46       0.0745
     17  CG        16.3510   -2.7100    1.1560 C.ar   46  HIS46       0.0817
     18  ND1       15.2140   -3.3650    0.7910 N.ar   46  HIS46      -0.2268
     19  CD2       17.2500   -3.6630    1.4810 C.ar   46  HIS46       0.1154
     20  CE1       15.3550   -4.6550    1.0270 C.ar   46  HIS46       0.1986
     21  NE2       16.6060   -4.8660    1.3630 N.ar   46  HIS46      -0.2212
     22  N         16.0880   -3.6680    6.0680 N.3    48  ASN48      -0.1240
     23  CA        15.7750   -5.1010    5.9270 C.3    48  ASN48       0.1653
     24  C         16.3150   -5.9390    7.0930 C.2    48  ASN48       0.2266
     25  O         17.3850   -6.5170    6.9910 O.2    48  ASN48      -0.2867
     26  CB        16.3270   -5.5770    4.6010 C.3    48  ASN48       0.1155
     27  CG        16.1530   -7.0530    4.3290 C.2    48  ASN48       0.2627
     28  OD1       15.1810   -7.7270    4.7500 O.2    48  ASN48      -0.2716
     29  ND2       17.0700   -7.5630    3.6190 N.am   48  ASN48      -0.0877
     30  N         16.7530   -9.1610    8.8970 N.3    50  ARG50      -0.1245
     31  CA        16.8580  -10.5810    8.5500 C.3    50  ARG50       0.1563
     32  C         16.9820  -11.4160    9.8280 C.2    50  ARG50       0.2260
     33  O         17.9360  -11.1760   10.6060 O.2    50  ARG50      -0.2867
     34  CB        18.1230  -10.7890    7.6990 C.3    50  ARG50       0.0307
     35  CG        18.0040  -10.0700    6.3640 C.3    50  ARG50       0.0489
     36  CD        19.2170  -10.2680    5.4790 C.3    50  ARG50       0.2205
     37  NE        19.1030   -9.4260    4.2650 N.pl3  50  ARG50      -0.0865
     38  CZ        19.9820   -9.4170    3.3170 C.cat  50  ARG50       0.5346
     39  NH1       21.0690  -10.1730    3.4120 N.pl3  50  ARG50       0.1354
     40  NH2       19.7990   -8.6110    2.3120 N.pl3  50  ARG50       0.1354
     41  N         20.1300  -15.0710    8.8230 N.3    53  GLU53      -0.1231
     42  CA        21.1530  -15.0070    7.8310 C.3    53  GLU53       0.1699
     43  C         22.3620  -15.7440    8.4360 C.2    53  GLU53       0.2592
     44  O         23.0840  -15.2450    9.2880 O.2    53  GLU53      -0.2718
     45  CB        21.4390  -13.5660    7.4690 C.3    53  GLU53       0.0402
     46  CG        22.4410  -13.5380    6.3290 C.3    53  GLU53       0.1161
     47  CD        23.0730  -12.1840    6.1320 C.2    53  GLU53       0.3649
     48  OE1       23.8230  -11.6830    7.0120 O.co2  53  GLU53      -0.2457
     49  OE2       22.8910  -11.6660    4.9810 O.co2  53  GLU53      -0.2457
     50  N         22.5940  -16.9830    7.9560 N.am   54  ASN54      -0.1974
     51  CA        23.6500  -17.8270    8.5080 C.3    54  ASN54       0.1688
     52  C         23.6160  -17.8970   10.0840 C.2    54  ASN54       0.2292
     53  O         24.6090  -17.8390   10.7400 O.2    54  ASN54      -0.2864
     54  CB        25.0270  -17.4110    8.0140 C.3    54  ASN54       0.1181
     55  CG        25.1060  -17.3590    6.5130 C.2    54  ASN54       0.2629
     56  OD1       25.6530  -16.4170    5.9590 O.2    54  ASN54      -0.2716
     57  ND2       24.4880  -18.3090    5.8590 N.am   54  ASN54      -0.0877
     58  N         20.0170   -5.1870    7.3940 N.3    60  VAL60      -0.1245
     59  CA        20.7940   -4.7910    6.2190 C.3    60  VAL60       0.1561
     60  C         20.1240   -3.5580    5.6430 C.2    60  VAL60       0.2260
     61  O         18.8870   -3.5860    5.3910 O.2    60  VAL60      -0.2867
     62  CB        20.8140   -5.9020    5.1710 C.3    60  VAL60       0.0252
     63  CG1       21.5400   -5.4350    3.9410 C.3    60  VAL60       0.0019
     64  CG2       21.4910   -7.1290    5.8140 C.3    60  VAL60       0.0019
     65  N         20.4710   -0.5360    2.4260 N.3    62  ASN62      -0.1240
     66  CA        21.1340   -0.3000    1.1370 C.3    62  ASN62       0.1653
     67  C         20.2630    0.5620    0.2560 C.2    62  ASN62       0.2266
     68  O         19.1390    0.9370    0.6440 O.2    62  ASN62      -0.2867
     69  CB        21.4350   -1.6340    0.4970 C.3    62  ASN62       0.1155
     70  CG        22.6060   -1.6220   -0.4490 C.2    62  ASN62       0.2627
     71  OD1       23.1090   -0.5780   -0.8170 O.2    62  ASN62      -0.2716
     72  ND2       23.0170   -2.8630   -0.8290 N.am   62  ASN62      -0.0877
     73  N         22.1060   -3.0920   -6.5030 N.3    69  TRP69      -0.1298
     74  CA        22.3100   -2.7890   -5.0960 C.3    69  TRP69       0.1291
     75  C         23.7220   -2.2300   -4.8400 C.3    69  TRP69       0.2013
     76  O         24.7340   -2.6110   -5.5350 O.3    69  TRP69      -0.2188
     77  CB        22.0650   -4.0270   -4.2420 C.3    69  TRP69       0.0497
     78  CG        20.6910   -4.4070   -4.1940 C.ar   69  TRP69      -0.0001
     79  CD1       20.0970   -5.4710   -4.7510 C.ar   69  TRP69       0.0946
     80  CD2       19.6740   -3.7750   -3.4280 C.ar   69  TRP69       0.0152
     81  NE1       18.7910   -5.5490   -4.4370 N.ar   69  TRP69      -0.2442
     82  CE2       18.4910   -4.4350   -3.6730 C.ar   69  TRP69       0.0810
     83  CE3       19.6660   -2.6100   -2.6340 C.ar   69  TRP69       0.0012
     84  CZ2       17.2980   -4.0640   -3.1090 C.ar   69  TRP69       0.0191
     85  CZ3       18.4110   -2.1970   -2.0720 C.ar   69  TRP69       0.0001
     86  CH2       17.2890   -2.9460   -2.2710 C.ar   69  TRP69       0.0015
     87  N         26.2140   -2.3950    1.1920 N.3    72  GLU72      -0.1196
     88  CA        25.3820   -2.6600    2.3870 C.3    72  GLU72       0.1783
     89  C         25.9220   -2.0070    3.6190 C.2    72  GLU72       0.2306
     90  O         27.1740   -2.0360    3.8760 O.2    72  GLU72      -0.2863
     91  CB        25.2130   -4.1370    2.6260 C.2    72  GLU72       0.0071
     92  CG        24.5060   -4.9020    1.5440 C.2    72  GLU72       0.0834
     93  CD        24.3080   -6.4580    1.7020 C.2    72  GLU72       0.3877
     94  OE1       24.9730   -7.0140    2.5870 O.co2  72  GLU72      -0.2406
     95  OE2       23.4030   -6.9990    1.0360 O.co2  72  GLU72      -0.2406
     96  N         25.4080   -2.6400    7.5900 N.3    74  ARG74      -0.1245
     97  CA        24.8750   -3.6710    8.4630 C.3    74  ARG74       0.1563
     98  C         24.9210   -3.3000    9.9190 C.2    74  ARG74       0.2260
     99  O         25.8830   -2.6840   10.3470 O.2    74  ARG74      -0.2867
    100  CB        25.6060   -5.0290    8.2020 C.3    74  ARG74       0.0307
    101  CG        25.2600   -5.6290    6.8690 C.3    74  ARG74       0.0489
    102  CD        26.2250   -6.7300    6.4150 C.3    74  ARG74       0.2205
    103  NE        25.5660   -7.4710    5.3710 N.pl3  74  ARG74      -0.0865
    104  CZ        24.9710   -8.6570    5.4660 C.cat  74  ARG74       0.5346
    105  NH1       24.8990   -9.2370    6.6440 N.pl3  74  ARG74       0.1354
    106  NH2       24.3670   -9.2130    4.4420 N.pl3  74  ARG74       0.1354
@<TRIPOS>BOND
     1    73    74    1
     2    76    75    1
     3    74    75    1
     4    74    77    1
     5    79    81   ar
     6    79    78   ar
     7    81    82   ar
     8    77    78    1
     9    78    80   ar
    10    82    80   ar
    11    82    84   ar
    12    80    83   ar
    13    84    86   ar
    14    83    85   ar
    15    86    85   ar
    16    72    70   am
    17    71    70    2
    18    70    69    1
    19    67    68    2
    20    67    66    1
    21    69    66    1
    22    18    20   ar
    23    18    17   ar
    24    16    17    1
    25    16    13    1
    26    20    21   ar
    27    95    93   ar
    28    66    65    1
    29    17    19   ar
    30    87    88    1
    31    21    19   ar
    32    11     9    1
    33    92    93    1
    34    92    91    2
    35    12    13    1
    36    93    94   ar
    37    10     9    1
    38    13    14    1
    39     9     8    2
    40    40    38    1
    41    88    91    1
    42    88    89    1
    43     8     7    1
    44     7     6    1
    45    38    39    1
    46    38    37    2
    47    14    15    2
    48    29    27   am
    49    89    90    2
    50    63    62    1
    51    37    36    1
    52    27    26    1
    53    27    28    2
    54   106   104    1
    55    26    23    1
    56     6     5    1
    57    49    47   ar
    58    62    64    1
    59    62    59    1
    60   103   104    2
    61   103   102    1
    62    61    60    2
    63   104   105    1
    64    36    35    1
    65     5     2    1
    66    60    59    1
    67    57    55   am
    68    23    22    1
    69    23    24    1
    70    56    55    2
    71    47    46    1
    72    47    48   ar
    73    59    58    1
    74    46    45    1
    75    35    34    1
    76   102   101    1
    77    55    54    1
    78   101   100    1
    79    25    24    2
    80     2     3    1
    81     2     1    1
    82     3     4    2
    83    45    42    1
    84    96    97    1
    85    34    31    1
    86    42    43    1
    87    42    41    1
    88    50    43   am
    89    50    51    1
    90    54    51    1
    91   100    97    1
    92    43    44    2
    93    97    98    1
    94    51    52    1
    95    31    30    1
    96    31    32    1
    97    32    33    2
    98    98    99    2
    99    52    53    2
