@<TRIPOS>MOLECULE
tmp/5nf9A00.pdb
 106 99 0 0 0
SMALL
GASTEIGER

@<TRIPOS>ATOM
      1  N         12.4170  -12.3580    7.3650 N.3    32  ARG32      -0.1245
      2  CA        12.8330  -10.9860    6.9440 C.3    32  ARG32       0.1563
      3  C         11.6740  -10.0180    7.0960 C.2    32  ARG32       0.2260
      4  O         10.5230  -10.4260    7.1140 O.2    32  ARG32      -0.2867
      5  CB        13.2930  -10.9910    5.5110 C.3    32  ARG32       0.0307
      6  CG        12.1570  -11.3470    4.5550 C.3    32  ARG32       0.0489
      7  CD        12.5020  -11.5080    3.1000 C.3    32  ARG32       0.2205
      8  NE        13.0800  -10.3050    2.4890 N.pl3  32  ARG32      -0.0865
      9  CZ        12.4000   -9.2980    1.9490 C.cat  32  ARG32       0.5346
     10  NH1       11.0700   -9.2610    2.0090 N.pl3  32  ARG32       0.1354
     11  NH2       13.0890   -8.2960    1.4090 N.pl3  32  ARG32       0.1354
     12  N         16.4020    1.1460    1.6740 N.3    46  HIS46      -0.1241
     13  CA        15.9300   -0.1890    1.9300 C.3    46  HIS46       0.1621
     14  C         16.4050   -0.4820    3.3460 C.2    46  HIS46       0.2264
     15  O         17.6050   -0.3690    3.6230 O.2    46  HIS46      -0.2867
     16  CB        16.6320   -1.0910    0.9000 C.3    46  HIS46       0.0745
     17  CG        16.4450   -2.5810    1.0630 C.ar   46  HIS46       0.0817
     18  ND1       15.2530   -3.2110    0.8220 N.ar   46  HIS46      -0.2268
     19  CD2       17.3250   -3.5640    1.4170 C.ar   46  HIS46       0.1154
     20  CE1       15.4110   -4.5280    0.9740 C.ar   46  HIS46       0.1986
     21  NE2       16.6540   -4.7660    1.3300 N.ar   46  HIS46      -0.2212
     22  N         16.2140   -3.5570    6.0890 N.3    48  ASN48      -0.1240
     23  CA        15.8600   -4.9750    5.9180 C.3    48  ASN48       0.1653
     24  C         16.4200   -5.8280    7.0210 C.2    48  ASN48       0.2266
     25  O         17.4870   -6.3890    6.8380 O.2    48  ASN48      -0.2867
     26  CB        16.5170   -5.4610    4.5870 C.3    48  ASN48       0.1155
     27  CG        16.3040   -6.9460    4.2670 C.2    48  ASN48       0.2627
     28  OD1       15.3010   -7.6470    4.6630 O.2    48  ASN48      -0.2716
     29  ND2       17.2630   -7.4420    3.5430 N.am   48  ASN48      -0.0877
     30  N         17.0500   -9.0790    8.8600 N.3    50  ARG50      -0.1245
     31  CA        17.1660  -10.4770    8.4920 C.3    50  ARG50       0.1563
     32  C         17.3950  -11.3430    9.7600 C.2    50  ARG50       0.2260
     33  O         18.2860  -11.0430   10.5590 O.2    50  ARG50      -0.2867
     34  CB        18.3800  -10.7120    7.5710 C.3    50  ARG50       0.0307
     35  CG        18.2260   -9.8850    6.2960 C.3    50  ARG50       0.0489
     36  CD        19.4500  -10.0680    5.4000 C.3    50  ARG50       0.2205
     37  NE        19.3340   -9.2620    4.2030 N.pl3  50  ARG50      -0.0865
     38  CZ        20.2630   -9.1630    3.2630 C.cat  50  ARG50       0.5346
     39  NH1       21.3480   -9.9220    3.3160 N.pl3  50  ARG50       0.1354
     40  NH2       20.0720   -8.3380    2.2550 N.pl3  50  ARG50       0.1354
     41  N         20.5180  -14.9560    8.7540 N.3    53  GLU53      -0.1231
     42  CA        21.5780  -14.8420    7.7850 C.3    53  GLU53       0.1699
     43  C         22.7790  -15.5840    8.3670 C.2    53  GLU53       0.2592
     44  O         23.5290  -15.0630    9.2190 O.2    53  GLU53      -0.2718
     45  CB        21.9490  -13.3860    7.4990 C.3    53  GLU53       0.0402
     46  CG        22.8640  -13.3410    6.2690 C.3    53  GLU53       0.1161
     47  CD        23.4770  -11.9670    5.9950 C.2    53  GLU53       0.3649
     48  OE1       24.2820  -11.4750    6.8590 O.co2  53  GLU53      -0.2457
     49  OE2       23.1900  -11.4090    4.8870 O.co2  53  GLU53      -0.2457
     50  N         23.0210  -16.8050    7.8720 N.am   54  ASN54      -0.1974
     51  CA        24.1070  -17.6470    8.4660 C.3    54  ASN54       0.1688
     52  C         23.9990  -17.7270   10.0130 C.2    54  ASN54       0.2292
     53  O         25.0120  -17.6790   10.7320 O.2    54  ASN54      -0.2864
     54  CB        25.4790  -17.0960    8.1260 C.3    54  ASN54       0.1181
     55  CG        25.6810  -16.9070    6.6400 C.2    54  ASN54       0.2629
     56  OD1       26.1720  -15.8440    6.2010 O.2    54  ASN54      -0.2716
     57  ND2       25.2700  -17.9010    5.8510 N.am   54  ASN54      -0.0877
     58  N         20.1660   -4.9980    7.3190 N.3    60  VAL60      -0.1245
     59  CA        20.9320   -4.5550    6.1120 C.3    60  VAL60       0.1561
     60  C         20.1910   -3.3290    5.5700 C.2    60  VAL60       0.2260
     61  O         19.0080   -3.4160    5.3710 O.2    60  VAL60      -0.2867
     62  CB        20.9760   -5.6490    5.0670 C.3    60  VAL60       0.0252
     63  CG1       21.6220   -5.1780    3.7840 C.3    60  VAL60       0.0019
     64  CG2       21.7490   -6.8730    5.6360 C.3    60  VAL60       0.0019
     65  N         20.4480   -0.3220    2.3430 N.3    62  ASN62      -0.1240
     66  CA        21.0770   -0.0760    1.0750 C.3    62  ASN62       0.1653
     67  C         20.2020    0.7900    0.1790 C.2    62  ASN62       0.2266
     68  O         19.1140    1.2060    0.6300 O.2    62  ASN62      -0.2867
     69  CB        21.4340   -1.3970    0.4600 C.3    62  ASN62       0.1155
     70  CG        22.6090   -1.3360   -0.4810 C.2    62  ASN62       0.2627
     71  OD1       23.0650   -0.2990   -0.9000 O.2    62  ASN62      -0.2716
     72  ND2       23.0530   -2.5160   -0.8800 N.am   62  ASN62      -0.0877
     73  N         22.0390   -2.8020   -6.5840 N.3    69  TRP69      -0.1241
     74  CA        22.2650   -2.4990   -5.1500 C.3    69  TRP69       0.1605
     75  C         23.6320   -1.8890   -4.9690 C.2    69  TRP69       0.2264
     76  O         24.6520   -2.2860   -5.6310 O.2    69  TRP69      -0.2867
     77  CB        22.0570   -3.7180   -4.2370 C.3    69  TRP69       0.0550
     78  CG        20.7030   -4.1440   -4.1700 C.ar   69  TRP69       0.0003
     79  CD1       20.1340   -5.1760   -4.8350 C.ar   69  TRP69       0.0946
     80  CD2       19.6630   -3.5010   -3.4480 C.ar   69  TRP69       0.0152
     81  NE1       18.8040   -5.2460   -4.5400 N.ar   69  TRP69      -0.2442
     82  CE2       18.4870   -4.2160   -3.6960 C.ar   69  TRP69       0.0810
     83  CE3       19.6250   -2.3650   -2.6000 C.ar   69  TRP69       0.0012
     84  CZ2       17.2570   -3.8550   -3.1350 C.ar   69  TRP69       0.0191
     85  CZ3       18.3930   -1.9840   -2.0740 C.ar   69  TRP69       0.0001
     86  CH2       17.2380   -2.7460   -2.3090 C.ar   69  TRP69       0.0015
     87  N         26.2920   -2.0350    1.1180 N.3    72  GLU72      -0.1245
     88  CA        25.4050   -2.3080    2.2740 C.3    72  GLU72       0.1567
     89  C         25.8940   -1.6090    3.5140 C.2    72  GLU72       0.2260
     90  O         27.1010   -1.5430    3.7510 O.2    72  GLU72      -0.2867
     91  CB        25.3380   -3.8010    2.5440 C.3    72  GLU72       0.0388
     92  CG        24.5450   -4.5090    1.4650 C.3    72  GLU72       0.1160
     93  CD        24.3530   -6.0160    1.6370 C.2    72  GLU72       0.3649
     94  OE1       24.9650   -6.6150    2.5700 O.co2  72  GLU72      -0.2457
     95  OE2       23.5950   -6.6120    0.8260 O.co2  72  GLU72      -0.2457
     96  N         25.4500   -2.3080    7.4640 N.3    74  ARG74      -0.1245
     97  CA        24.9290   -3.3410    8.3800 C.3    74  ARG74       0.1563
     98  C         25.0010   -2.9280    9.8540 C.2    74  ARG74       0.2260
     99  O         25.9790   -2.3180   10.2980 O.2    74  ARG74      -0.2867
    100  CB        25.7200   -4.6260    8.1940 C.3    74  ARG74       0.0307
    101  CG        25.3150   -5.3540    6.9200 C.3    74  ARG74       0.0489
    102  CD        26.2910   -6.4140    6.4500 C.3    74  ARG74       0.2205
    103  NE        25.6670   -7.1540    5.3460 N.pl3  74  ARG74      -0.0865
    104  CZ        25.1150   -8.3660    5.4340 C.cat  74  ARG74       0.5346
    105  NH1       25.1660   -9.0760    6.5870 N.pl3  74  ARG74       0.1354
    106  NH2       24.5250   -8.8860    4.3860 N.pl3  74  ARG74       0.1354
@<TRIPOS>BOND
     1    73    74    1
     2    76    75    2
     3    74    75    1
     4    74    77    1
     5    79    81   ar
     6    79    78   ar
     7    81    82   ar
     8    77    78    1
     9    78    80   ar
    10    82    80   ar
    11    82    84   ar
    12    80    83   ar
    13    84    86   ar
    14    83    85   ar
    15    86    85   ar
    16    71    70    2
    17    72    70   am
    18    70    69    1
    19    67    68    2
    20    67    66    1
    21    69    66    1
    22    18    20   ar
    23    18    17   ar
    24    95    93   ar
    25    16    17    1
    26    16    13    1
    27    20    21   ar
    28    17    19   ar
    29    66    65    1
    30    87    88    1
    31    21    19   ar
    32    11     9    1
    33    92    93    1
    34    92    91    1
    35    93    94   ar
    36    12    13    1
    37    13    14    1
    38     9    10    1
    39     9     8    2
    40    40    38    1
    41    88    91    1
    42    88    89    1
    43     8     7    1
    44     7     6    1
    45    38    39    1
    46    38    37    2
    47    14    15    2
    48    89    90    2
    49    29    27   am
    50    63    62    1
    51    37    36    1
    52    27    26    1
    53    27    28    2
    54   106   104    1
    55     6     5    1
    56    26    23    1
    57    49    47   ar
    58    62    64    1
    59    62    59    1
    60   103   104    2
    61   103   102    1
    62    61    60    2
    63    36    35    1
    64   104   105    1
    65     5     2    1
    66    60    59    1
    67    57    55   am
    68    23    22    1
    69    23    24    1
    70    47    46    1
    71    47    48   ar
    72    59    58    1
    73    56    55    2
    74    46    45    1
    75    35    34    1
    76   102   101    1
    77    55    54    1
    78    25    24    2
    79   101   100    1
    80     2     3    1
    81     2     1    1
    82     3     4    2
    83    96    97    1
    84    45    42    1
    85    34    31    1
    86    42    43    1
    87    42    41    1
    88    50    43   am
    89    50    51    1
    90    54    51    1
    91   100    97    1
    92    43    44    2
    93    97    98    1
    94    51    52    1
    95    31    30    1
    96    31    32    1
    97    32    33    2
    98    98    99    2
    99    52    53    2
