@<TRIPOS>MOLECULE
tmp/5nfaA00.pdb
 128 119 0 0 0
SMALL
GASTEIGER

@<TRIPOS>ATOM
      1  N         11.2160  -14.6630    8.7280 N.3    31  ASN31      -0.1225
      2  CA        12.4840  -14.6330    8.0890 C.3    31  ASN31       0.1785
      3  C         13.0120  -13.2190    7.7970 C.2    31  ASN31       0.2597
      4  O         14.1650  -12.9610    7.9600 O.2    31  ASN31      -0.2718
      5  CB        12.4620  -15.4550    6.8030 C.3    31  ASN31       0.1169
      6  CG        13.8320  -15.5940    6.1780 C.2    31  ASN31       0.2627
      7  OD1       14.0440  -15.1260    5.0520 O.2    31  ASN31      -0.2716
      8  ND2       14.7710  -16.2210    6.8960 N.am   31  ASN31      -0.0877
      9  N         12.1250  -12.3270    7.3640 N.am   32  ARG32      -0.1979
     10  CA        12.5590  -10.9860    6.9300 C.3    32  ARG32       0.1597
     11  C         11.4840   -9.9640    7.0480 C.2    32  ARG32       0.2287
     12  O         10.3110  -10.3010    6.9850 O.2    32  ARG32      -0.2864
     13  CB        13.1220  -10.9960    5.5260 C.3    32  ARG32       0.0334
     14  CG        12.0100  -11.3350    4.5160 C.3    32  ARG32       0.0492
     15  CD        12.5280  -11.4530    3.1040 C.3    32  ARG32       0.2205
     16  NE        13.0720  -10.2080    2.5180 N.pl3  32  ARG32      -0.0865
     17  CZ        12.4360   -9.2080    1.9270 C.cat  32  ARG32       0.5346
     18  NH1       11.1650   -9.2030    1.8380 N.pl3  32  ARG32       0.1354
     19  NH2       13.1630   -8.2810    1.3760 N.pl3  32  ARG32       0.1354
     20  N         10.9640   -0.1440    2.0210 N.3    36  ASP36      -0.1239
     21  CA        11.5920    0.3450    0.7770 C.3    36  ASP36       0.1674
     22  C         11.0450    1.7200    0.4030 C.2    36  ASP36       0.2266
     23  O          9.9070    1.8790   -0.0380 O.2    36  ASP36      -0.2867
     24  CB        11.3250   -0.6330   -0.3300 C.3    36  ASP36       0.1410
     25  CG        12.0890   -1.9100   -0.1950 C.2    36  ASP36       0.3668
     26  OD1       13.2930   -1.9220   -0.4690 O.co2  36  ASP36      -0.2456
     27  OD2       11.4700   -2.9530    0.1950 O.co2  36  ASP36      -0.2456
     28  N         16.4570    1.0260    1.6150 N.3    46  HIS46      -0.1241
     29  CA        15.9700   -0.2970    1.9270 C.3    46  HIS46       0.1621
     30  C         16.4430   -0.6160    3.3280 C.2    46  HIS46       0.2264
     31  O         17.6620   -0.5330    3.6010 O.2    46  HIS46      -0.2867
     32  CB        16.6100   -1.2500    0.9290 C.3    46  HIS46       0.0745
     33  CG        16.3560   -2.7350    1.0860 C.ar   46  HIS46       0.0817
     34  ND1       15.1970   -3.3800    0.7450 N.ar   46  HIS46      -0.2268
     35  CD2       17.2410   -3.7120    1.3940 C.ar   46  HIS46       0.1154
     36  CE1       15.3510   -4.6900    0.9470 C.ar   46  HIS46       0.1986
     37  NE2       16.5920   -4.9150    1.2780 N.ar   46  HIS46      -0.2212
     38  N         16.1330   -3.6550    6.0450 N.3    48  ASN48      -0.1240
     39  CA        15.8150   -5.0850    5.8990 C.3    48  ASN48       0.1653
     40  C         16.3420   -5.9180    7.0590 C.2    48  ASN48       0.2266
     41  O         17.4350   -6.5080    6.9680 O.2    48  ASN48      -0.2867
     42  CB        16.4010   -5.5690    4.5580 C.3    48  ASN48       0.1155
     43  CG        16.2250   -7.0440    4.2790 C.2    48  ASN48       0.2627
     44  OD1       15.2490   -7.7070    4.6870 O.2    48  ASN48      -0.2716
     45  ND2       17.1570   -7.5740    3.6190 N.am   48  ASN48      -0.0877
     46  N         16.8050   -9.1880    8.8800 N.3    50  ARG50      -0.1245
     47  CA        16.9630  -10.6000    8.5150 C.3    50  ARG50       0.1563
     48  C         17.0880  -11.3820    9.7990 C.2    50  ARG50       0.2260
     49  O         18.0020  -11.1460   10.6000 O.2    50  ARG50      -0.2867
     50  CB        18.2010  -10.7710    7.6590 C.3    50  ARG50       0.0307
     51  CG        18.1320   -9.9830    6.3850 C.3    50  ARG50       0.0489
     52  CD        19.2720  -10.2550    5.4710 C.3    50  ARG50       0.2205
     53  NE        19.2080   -9.3770    4.2680 N.pl3  50  ARG50      -0.0865
     54  CZ        20.1090   -9.3680    3.3210 C.cat  50  ARG50       0.5346
     55  NH1       21.2100  -10.1120    3.4140 N.pl3  50  ARG50       0.1354
     56  NH2       19.9450   -8.5310    2.3270 N.pl3  50  ARG50       0.1354
     57  N         20.2240  -15.0060    8.8140 N.3    53  GLU53      -0.1231
     58  CA        21.2850  -14.9610    7.8530 C.3    53  GLU53       0.1699
     59  C         22.4800  -15.6980    8.4640 C.2    53  GLU53       0.2592
     60  O         23.2010  -15.1990    9.3150 O.2    53  GLU53      -0.2718
     61  CB        21.6350  -13.5410    7.5560 C.3    53  GLU53       0.0402
     62  CG        22.6090  -13.5120    6.3930 C.3    53  GLU53       0.1161
     63  CD        23.2100  -12.1380    6.1490 C.2    53  GLU53       0.3649
     64  OE1       23.9230  -11.6140    7.0130 O.co2  53  GLU53      -0.2457
     65  OE2       23.0130  -11.5440    5.0280 O.co2  53  GLU53      -0.2457
     66  N         22.6740  -16.9680    8.0140 N.am   54  ASN54      -0.1974
     67  CA        23.7440  -17.8030    8.5550 C.3    54  ASN54       0.1688
     68  C         23.6730  -17.8660   10.1110 C.2    54  ASN54       0.2292
     69  O         24.6710  -17.8120   10.7770 O.2    54  ASN54      -0.2864
     70  CB        25.1430  -17.3260    8.1090 C.3    54  ASN54       0.1181
     71  CG        25.2650  -17.2960    6.5900 C.2    54  ASN54       0.2629
     72  OD1       25.7030  -16.3000    6.0250 O.2    54  ASN54      -0.2716
     73  ND2       24.7610  -18.3120    5.9430 N.am   54  ASN54      -0.0877
     74  N         20.0600   -5.1270    7.3850 N.3    60  VAL60      -0.1245
     75  CA        20.8380   -4.7090    6.2240 C.3    60  VAL60       0.1561
     76  C         20.1170   -3.5080    5.6310 C.2    60  VAL60       0.2260
     77  O         18.8770   -3.5640    5.3420 O.2    60  VAL60      -0.2867
     78  CB        20.8900   -5.8170    5.1630 C.3    60  VAL60       0.0252
     79  CG1       21.5530   -5.2890    3.9110 C.3    60  VAL60       0.0019
     80  CG2       21.6030   -7.0500    5.7660 C.3    60  VAL60       0.0019
     81  N         20.4410   -0.5180    2.4270 N.3    62  ASN62      -0.1240
     82  CA        21.0780   -0.2940    1.1180 C.3    62  ASN62       0.1653
     83  C         20.2100    0.5940    0.2410 C.2    62  ASN62       0.2266
     84  O         19.1010    0.9690    0.6130 O.2    62  ASN62      -0.2867
     85  CB        21.4160   -1.6380    0.4740 C.3    62  ASN62       0.1155
     86  CG        22.5720   -1.6130   -0.4980 C.2    62  ASN62       0.2627
     87  OD1       23.0740   -0.5770   -0.8650 O.2    62  ASN62      -0.2716
     88  ND2       22.9920   -2.8360   -0.8910 N.am   62  ASN62      -0.0877
     89  N         22.0320   -3.1100   -6.5350 N.3    69  TRP69      -0.1241
     90  CA        22.2650   -2.8040   -5.1340 C.3    69  TRP69       0.1605
     91  C         23.6600   -2.2470   -4.8920 C.2    69  TRP69       0.2264
     92  O         24.6620   -2.5790   -5.6200 O.2    69  TRP69      -0.2867
     93  CB        22.0090   -4.0340   -4.3130 C.3    69  TRP69       0.0550
     94  CG        20.6210   -4.4270   -4.2360 C.ar   69  TRP69       0.0003
     95  CD1       20.0370   -5.4910   -4.7670 C.ar   69  TRP69       0.0946
     96  CD2       19.5910   -3.7750   -3.4700 C.ar   69  TRP69       0.0152
     97  NE1       18.7170   -5.5490   -4.4750 N.ar   69  TRP69      -0.2442
     98  CE2       18.4200   -4.4300   -3.7070 C.ar   69  TRP69       0.0810
     99  CE3       19.5800   -2.6200   -2.6740 C.ar   69  TRP69       0.0012
    100  CZ2       17.2370   -4.0820   -3.0970 C.ar   69  TRP69       0.0191
    101  CZ3       18.3290   -2.1990   -2.1290 C.ar   69  TRP69       0.0001
    102  CH2       17.2280   -2.9470   -2.2900 C.ar   69  TRP69       0.0015
    103  N         26.2180   -2.3100    1.1950 N.3    72  GLU72      -0.1245
    104  CA        25.3850   -2.5330    2.3420 C.3    72  GLU72       0.1567
    105  C         25.9270   -1.8950    3.5720 C.2    72  GLU72       0.2260
    106  O         27.1680   -1.9140    3.8130 O.2    72  GLU72      -0.2867
    107  CB        25.2620   -4.0310    2.6110 C.3    72  GLU72       0.0388
    108  CG        24.5890   -4.8170    1.5130 C.3    72  GLU72       0.1160
    109  CD        24.3580   -6.3520    1.7010 C.2    72  GLU72       0.3649
    110  OE1       25.0290   -6.8920    2.6130 O.co2  72  GLU72      -0.2457
    111  OE2       23.4740   -6.9000    1.0390 O.co2  72  GLU72      -0.2457
    112  N         25.3880   -2.5640    7.5740 N.3    74  ARG74      -0.1245
    113  CA        24.8970   -3.6090    8.4420 C.3    74  ARG74       0.1563
    114  C         24.9580   -3.2390    9.8910 C.2    74  ARG74       0.2260
    115  O         25.8630   -2.5400   10.2910 O.2    74  ARG74      -0.2867
    116  CB        25.6470   -4.9470    8.1940 C.3    74  ARG74       0.0307
    117  CG        25.3010   -5.5550    6.8660 C.3    74  ARG74       0.0489
    118  CD        26.2560   -6.6510    6.4070 C.3    74  ARG74       0.2205
    119  NE        25.6010   -7.3910    5.3400 N.pl3  74  ARG74      -0.0865
    120  CZ        25.0560   -8.5720    5.4520 C.cat  74  ARG74       0.5346
    121  NH1       24.9840   -9.1620    6.6460 N.pl3  74  ARG74       0.1354
    122  NH2       24.4330   -9.1380    4.4440 N.pl3  74  ARG74       0.1354
    123  N          6.8940   -4.5910    3.5190 N.3   125  SER125     -0.1217
    124  CA         6.7310   -5.9950    3.1420 C.3   125  SER125      0.1889
    125  C          7.3720   -6.9350    4.1380 C.2   125  SER125      0.2288
    126  O          8.0430   -6.4940    5.0710 O.2   125  SER125     -0.2866
    127  CB         7.2400   -6.2370    1.7450 C.3   125  SER125      0.2089
    128  OG         8.6290   -5.9340    1.6700 O.3   125  SER125     -0.2183
@<TRIPOS>BOND
     1    89    90    1
     2    92    91    2
     3    90    91    1
     4    90    93    1
     5    95    97   ar
     6    95    94   ar
     7    97    98   ar
     8    93    94    1
     9    94    96   ar
    10    98    96   ar
    11    98   100   ar
    12    96    99   ar
    13   100   102   ar
    14    99   101   ar
    15   102   101   ar
    16    88    86   am
    17    87    86    2
    18    86    85    1
    19    26    25   ar
    20    24    25    1
    21    24    21    1
    22    25    27   ar
    23    23    22    2
    24    83    84    2
    25    83    82    1
    26    22    21    1
    27    85    82    1
    28    34    36   ar
    29    34    33   ar
    30    21    20    1
    31    32    33    1
    32    32    29    1
    33    36    37   ar
    34   111   109   ar
    35    33    35   ar
    36    82    81    1
    37   103   104    1
    38    37    35   ar
    39    19    17    1
    40   108   109    1
    41   108   107    1
    42    28    29    1
    43   128   127    1
    44   109   110   ar
    45   127   124    1
    46    18    17    1
    47    17    16    2
    48    29    30    1
    49    56    54    1
    50   104   107    1
    51   104   105    1
    52    16    15    1
    53    15    14    1
    54   124   123    1
    55   124   125    1
    56    54    55    1
    57    54    53    2
    58    30    31    2
    59   105   106    2
    60    45    43   am
    61    79    78    1
    62   125   126    2
    63    53    52    1
    64    43    42    1
    65    43    44    2
    66   122   120    1
    67    14    13    1
    68    42    39    1
    69    65    63   ar
    70     7     6    2
    71    78    80    1
    72    78    75    1
    73   119   120    2
    74   119   118    1
    75    77    76    2
    76   120   121    1
    77    52    51    1
    78    13    10    1
    79    76    75    1
    80    39    38    1
    81    39    40    1
    82    73    71   am
    83    72    71    2
    84    63    62    1
    85    63    64   ar
    86     6     5    1
    87     6     8   am
    88    75    74    1
    89    51    50    1
    90    62    61    1
    91   118   117    1
    92    71    70    1
    93     5     2    1
    94   117   116    1
    95    10    11    1
    96    10     9    1
    97    41    40    2
    98    12    11    2
    99     9     3   am
   100    61    58    1
   101   112   113    1
   102    50    47    1
   103     3     4    2
   104     3     2    1
   105    58    59    1
   106    58    57    1
   107    66    59   am
   108    66    67    1
   109     2     1    1
   110    70    67    1
   111   116   113    1
   112   113   114    1
   113    59    60    2
   114    47    46    1
   115    47    48    1
   116    67    68    1
   117    48    49    2
   118   114   115    2
   119    68    69    2
