@<TRIPOS>MOLECULE
tmp/5nfbA00.pdb
 128 119 0 0 0
SMALL
GASTEIGER

@<TRIPOS>ATOM
      1  N         11.2930  -14.7850    8.6870 N.3    31  ASN31      -0.1225
      2  CA        12.6020  -14.7620    8.0840 C.3    31  ASN31       0.1785
      3  C         13.0640  -13.3370    7.7530 C.2    31  ASN31       0.2597
      4  O         14.2090  -13.0760    7.8180 O.2    31  ASN31      -0.2718
      5  CB        12.5500  -15.6610    6.8610 C.3    31  ASN31       0.1169
      6  CG        13.8950  -15.8230    6.1910 C.2    31  ASN31       0.2627
      7  OD1       14.0820  -15.3310    5.0860 O.2    31  ASN31      -0.2716
      8  ND2       14.8360  -16.4700    6.8540 N.am   31  ASN31      -0.0877
      9  N         12.1470  -12.4780    7.3240 N.am   32  ARG32      -0.1979
     10  CA        12.5490  -11.1230    6.9290 C.3    32  ARG32       0.1597
     11  C         11.4280  -10.0980    7.0620 C.2    32  ARG32       0.2287
     12  O         10.2440  -10.4150    7.0610 O.2    32  ARG32      -0.2864
     13  CB        13.0520  -11.1050    5.5010 C.3    32  ARG32       0.0334
     14  CG        11.9050  -11.3900    4.4870 C.3    32  ARG32       0.0492
     15  CD        12.4500  -11.5050    3.0980 C.3    32  ARG32       0.2205
     16  NE        13.0700  -10.2630    2.5510 N.pl3  32  ARG32      -0.0865
     17  CZ        12.4250   -9.3050    1.8860 C.cat  32  ARG32       0.5346
     18  NH1       11.1040   -9.3160    1.7960 N.pl3  32  ARG32       0.1354
     19  NH2       13.1010   -8.3000    1.3630 N.pl3  32  ARG32       0.1354
     20  N         10.8740   -0.2700    2.0200 N.3    36  ASP36      -0.1239
     21  CA        11.5180    0.2410    0.7820 C.3    36  ASP36       0.1674
     22  C         10.9320    1.6060    0.4280 C.2    36  ASP36       0.2266
     23  O          9.7820    1.7660   -0.0390 O.2    36  ASP36      -0.2867
     24  CB        11.3100   -0.7060   -0.3870 C.3    36  ASP36       0.1410
     25  CG        12.0780   -2.0190   -0.1730 C.2    36  ASP36       0.3668
     26  OD1       13.2480   -1.9920   -0.5450 O.co2  36  ASP36      -0.2456
     27  OD2       11.4600   -3.0570    0.2770 O.co2  36  ASP36      -0.2456
     28  N         16.3570    1.0590    1.6630 N.3    46  HIS46      -0.1241
     29  CA        15.8780   -0.2670    1.9530 C.3    46  HIS46       0.1621
     30  C         16.3250   -0.5720    3.3480 C.2    46  HIS46       0.2264
     31  O         17.5610   -0.4760    3.6000 O.2    46  HIS46      -0.2867
     32  CB        16.5500   -1.2220    0.9500 C.3    46  HIS46       0.0745
     33  CG        16.3720   -2.6850    1.1330 C.ar   46  HIS46       0.0817
     34  ND1       15.2150   -3.3540    0.8280 N.ar   46  HIS46      -0.2268
     35  CD2       17.3020   -3.6570    1.3570 C.ar   46  HIS46       0.1154
     36  CE1       15.4040   -4.6710    0.9500 C.ar   46  HIS46       0.1986
     37  NE2       16.6690   -4.8750    1.2340 N.ar   46  HIS46      -0.2212
     38  N         16.0790   -3.6860    6.0140 N.3    48  ASN48      -0.1240
     39  CA        15.7680   -5.1420    5.8360 C.3    48  ASN48       0.1653
     40  C         16.2980   -5.9660    7.0360 C.2    48  ASN48       0.2266
     41  O         17.3800   -6.5340    6.9540 O.2    48  ASN48      -0.2867
     42  CB        16.3890   -5.6290    4.5320 C.3    48  ASN48       0.1155
     43  CG        16.2250   -7.0920    4.2650 C.2    48  ASN48       0.2627
     44  OD1       15.2270   -7.6960    4.6720 O.2    48  ASN48      -0.2716
     45  ND2       17.0800   -7.6140    3.5440 N.am   48  ASN48      -0.0877
     46  N         16.7900   -9.2520    8.8460 N.3    50  ARG50      -0.1245
     47  CA        16.9310  -10.6320    8.4240 C.3    50  ARG50       0.1563
     48  C         17.0730  -11.4770    9.6920 C.2    50  ARG50       0.2260
     49  O         17.9680  -11.2590   10.4840 O.2    50  ARG50      -0.2867
     50  CB        18.1580  -10.7390    7.6090 C.3    50  ARG50       0.0307
     51  CG        18.0720  -10.0020    6.3050 C.3    50  ARG50       0.0489
     52  CD        19.2900  -10.2630    5.4290 C.3    50  ARG50       0.2205
     53  NE        19.1990   -9.4100    4.2390 N.pl3  50  ARG50      -0.0865
     54  CZ        20.1110   -9.3780    3.3100 C.cat  50  ARG50       0.5346
     55  NH1       21.2260  -10.0810    3.4180 N.pl3  50  ARG50       0.1354
     56  NH2       19.9700   -8.5330    2.2920 N.pl3  50  ARG50       0.1354
     57  N         20.3120  -15.0760    8.6810 N.3    53  GLU53      -0.1231
     58  CA        21.3910  -15.0400    7.7380 C.3    53  GLU53       0.1699
     59  C         22.5690  -15.7910    8.3270 C.2    53  GLU53       0.2592
     60  O         23.2900  -15.2980    9.1550 O.2    53  GLU53      -0.2718
     61  CB        21.7950  -13.5870    7.4310 C.3    53  GLU53       0.0402
     62  CG        22.6650  -13.4980    6.2230 C.3    53  GLU53       0.1161
     63  CD        23.2810  -12.1470    6.0380 C.2    53  GLU53       0.3649
     64  OE1       23.9520  -11.6220    6.9720 O.co2  53  GLU53      -0.2457
     65  OE2       23.0540  -11.6240    4.9260 O.co2  53  GLU53      -0.2457
     66  N         22.7870  -17.0030    7.8460 N.am   54  ASN54      -0.1974
     67  CA        23.8390  -17.8400    8.4250 C.3    54  ASN54       0.1688
     68  C         23.6880  -17.9310    9.9990 C.2    54  ASN54       0.2292
     69  O         24.7160  -17.9150   10.7180 O.2    54  ASN54      -0.2864
     70  CB        25.2610  -17.3860    8.0040 C.3    54  ASN54       0.1181
     71  CG        25.4340  -17.3860    6.4510 C.2    54  ASN54       0.2629
     72  OD1       25.0420  -18.3470    5.7470 O.2    54  ASN54      -0.2716
     73  ND2       25.9770  -16.2930    5.9080 N.am   54  ASN54      -0.0877
     74  N         19.9740   -5.1650    7.4100 N.3    60  VAL60      -0.1245
     75  CA        20.7170   -4.7590    6.2680 C.3    60  VAL60       0.1561
     76  C         20.0620   -3.4950    5.6940 C.2    60  VAL60       0.2260
     77  O         18.8400   -3.5280    5.4580 O.2    60  VAL60      -0.2867
     78  CB        20.8070   -5.8500    5.2080 C.3    60  VAL60       0.0252
     79  CG1       21.4660   -5.3270    3.9720 C.3    60  VAL60       0.0019
     80  CG2       21.4950   -7.0750    5.7930 C.3    60  VAL60       0.0019
     81  N         20.3990   -0.5190    2.4650 N.3    62  ASN62      -0.1240
     82  CA        21.0110   -0.2420    1.1700 C.3    62  ASN62       0.1653
     83  C         20.1170    0.6310    0.3080 C.2    62  ASN62       0.2266
     84  O         19.0360    1.0430    0.7310 O.2    62  ASN62      -0.2867
     85  CB        21.3760   -1.5940    0.4710 C.3    62  ASN62       0.1155
     86  CG        22.5650   -1.4930   -0.4780 C.2    62  ASN62       0.2627
     87  OD1       23.0670   -0.4450   -0.7940 O.2    62  ASN62      -0.2716
     88  ND2       23.0150   -2.6760   -0.8760 N.am   62  ASN62      -0.0877
     89  N         22.1310   -2.9060   -6.4910 N.3    69  TRP69      -0.1241
     90  CA        22.3800   -2.6460   -5.0770 C.3    69  TRP69       0.1605
     91  C         23.7410   -2.0790   -4.8380 C.2    69  TRP69       0.2264
     92  O         24.7400   -2.4730   -5.4870 O.2    69  TRP69      -0.2867
     93  CB        22.1630   -3.8970   -4.2330 C.3    69  TRP69       0.0550
     94  CG        20.7600   -4.3440   -4.1780 C.ar   69  TRP69       0.0003
     95  CD1       20.2090   -5.3950   -4.8060 C.ar   69  TRP69       0.0946
     96  CD2       19.6430   -3.6830   -3.4540 C.ar   69  TRP69       0.0152
     97  NE1       18.8530   -5.4620   -4.5120 N.ar   69  TRP69      -0.2442
     98  CE2       18.4920   -4.4010   -3.6930 C.ar   69  TRP69       0.0810
     99  CE3       19.5720   -2.5680   -2.5960 C.ar   69  TRP69       0.0012
    100  CZ2       17.2560   -4.0420   -3.1170 C.ar   69  TRP69       0.0191
    101  CZ3       18.3540   -2.1910   -2.0760 C.ar   69  TRP69       0.0001
    102  CH2       17.2160   -2.8950   -2.3160 C.ar   69  TRP69       0.0015
    103  N         26.2440   -2.1850    1.2570 N.3    72  GLU72      -0.1245
    104  CA        25.3300   -2.4680    2.3750 C.3    72  GLU72       0.1567
    105  C         25.8440   -1.8410    3.6480 C.2    72  GLU72       0.2260
    106  O         27.1080   -1.7310    3.8530 O.2    72  GLU72      -0.2867
    107  CB        25.1610   -3.9340    2.6600 C.3    72  GLU72       0.0388
    108  CG        24.5150   -4.7230    1.5540 C.3    72  GLU72       0.1160
    109  CD        24.2770   -6.2270    1.7680 C.2    72  GLU72       0.3649
    110  OE1       24.9240   -6.8180    2.6660 O.co2  72  GLU72      -0.2457
    111  OE2       23.4440   -6.8010    1.0470 O.co2  72  GLU72      -0.2457
    112  N         25.3230   -2.5280    7.6350 N.3    74  ARG74      -0.1245
    113  CA        24.8190   -3.5890    8.4540 C.3    74  ARG74       0.1563
    114  C         24.8580   -3.2000    9.9530 C.2    74  ARG74       0.2260
    115  O         25.7530   -2.5310   10.3770 O.2    74  ARG74      -0.2867
    116  CB        25.6290   -4.8790    8.2310 C.3    74  ARG74       0.0307
    117  CG        25.2360   -5.5400    6.9240 C.3    74  ARG74       0.0489
    118  CD        26.2180   -6.5760    6.3890 C.3    74  ARG74       0.2205
    119  NE        25.5420   -7.3500    5.3210 N.pl3  74  ARG74      -0.0865
    120  CZ        24.9280   -8.5020    5.4720 C.cat  74  ARG74       0.5346
    121  NH1       24.9760   -9.2160    6.6190 N.pl3  74  ARG74       0.1354
    122  NH2       24.3370   -9.0590    4.4590 N.pl3  74  ARG74       0.1354
    123  N          6.8710   -4.7680    3.5130 N.3   125  SER125     -0.1217
    124  CA         6.7280   -6.1550    3.0940 C.3   125  SER125      0.1889
    125  C          7.4090   -7.0840    4.1240 C.2   125  SER125      0.2288
    126  O          8.0690   -6.6170    5.0960 O.2   125  SER125     -0.2866
    127  CB         7.2770   -6.4010    1.7000 C.3   125  SER125      0.2089
    128  OG         8.6490   -6.0120    1.6720 O.3   125  SER125     -0.2183
@<TRIPOS>BOND
     1    89    90    1
     2    92    91    2
     3    90    91    1
     4    90    93    1
     5    95    97   ar
     6    95    94   ar
     7    97    98   ar
     8    93    94    1
     9    94    96   ar
    10    98    96   ar
    11    98   100   ar
    12    96    99   ar
    13   100   102   ar
    14    99   101   ar
    15   102   101   ar
    16    88    86   am
    17    87    86    2
    18    26    25   ar
    19    86    85    1
    20    24    25    1
    21    24    21    1
    22    25    27   ar
    23    23    22    2
    24    83    84    2
    25    83    82    1
    26    22    21    1
    27    85    82    1
    28    21    20    1
    29    34    36   ar
    30    34    33   ar
    31    32    33    1
    32    32    29    1
    33    36    37   ar
    34   111   109   ar
    35    33    35   ar
    36    82    81    1
    37    37    35   ar
    38   103   104    1
    39    19    17    1
    40   108   109    1
    41   108   107    1
    42    28    29    1
    43   128   127    1
    44   127   124    1
    45   109   110   ar
    46    18    17    1
    47    17    16    2
    48    29    30    1
    49    56    54    1
    50   104   107    1
    51   104   105    1
    52    16    15    1
    53   124   123    1
    54   124   125    1
    55    15    14    1
    56    54    55    1
    57    54    53    2
    58    30    31    2
    59    45    43   am
    60   105   106    2
    61    79    78    1
    62   125   126    2
    63    53    52    1
    64    43    42    1
    65    43    44    2
    66   122   120    1
    67    14    13    1
    68    42    39    1
    69    65    63   ar
    70     7     6    2
    71    78    80    1
    72    78    75    1
    73   119   120    2
    74   119   118    1
    75    52    51    1
    76    77    76    2
    77   120   121    1
    78    13    10    1
    79    76    75    1
    80    72    71    2
    81    39    38    1
    82    39    40    1
    83    73    71   am
    84    63    62    1
    85    63    64   ar
    86     6     8   am
    87     6     5    1
    88    62    61    1
    89    75    74    1
    90    51    50    1
    91   118   117    1
    92    71    70    1
    93     5     2    1
    94   117   116    1
    95    10    11    1
    96    10     9    1
    97    41    40    2
    98    12    11    2
    99     9     3   am
   100    61    58    1
   101    50    47    1
   102   112   113    1
   103    58    59    1
   104    58    57    1
   105     3     4    2
   106     3     2    1
   107    66    59   am
   108    66    67    1
   109    70    67    1
   110     2     1    1
   111   116   113    1
   112    59    60    2
   113    47    46    1
   114    47    48    1
   115    67    68    1
   116   113   114    1
   117    48    49    2
   118   114   115    2
   119    68    69    2
