@<TRIPOS>MOLECULE
tmp/5nffA03.pdb
 94 91 0 0 0
SMALL
GASTEIGER

@<TRIPOS>ATOM
      1  N          6.4670  -12.5650  -52.1810 N.3    49  TYR49      -0.1241
      2  CA         6.3780  -12.7930  -50.7530 C.3    49  TYR49       0.1605
      3  C          6.9290  -14.1690  -50.4070 C.2    49  TYR49       0.2264
      4  O          7.7040  -14.3080  -49.4520 O.2    49  TYR49      -0.2867
      5  CB         4.9150  -12.6800  -50.3430 C.3    49  TYR49       0.0534
      6  CG         4.5650  -13.0970  -48.9240 C.ar   49  TYR49      -0.0201
      7  CD1        4.4740  -14.4320  -48.5680 C.ar   49  TYR49      -0.0009
      8  CD2        4.2260  -12.1490  -47.9580 C.ar   49  TYR49      -0.0009
      9  CE1        4.1220  -14.8120  -47.2790 C.ar   49  TYR49       0.0417
     10  CE2        3.8530  -12.5250  -46.6730 C.ar   49  TYR49       0.0417
     11  CZ         3.8000  -13.8570  -46.3310 C.ar   49  TYR49       0.1957
     12  OH         3.4370  -14.2640  -45.0480 O.3    49  TYR49      -0.2866
     13  N         10.5720  -14.8960  -48.1770 N.3    53  LEU53      -0.1245
     14  CA        10.5590  -15.7450  -46.9950 C.3    53  LEU53       0.1561
     15  C         11.3510  -17.0190  -47.2100 C.2    53  LEU53       0.2260
     16  O         12.0030  -17.5000  -46.2780 O.2    53  LEU53      -0.2867
     17  CB         9.1250  -16.1030  -46.6120 C.3    53  LEU53       0.0270
     18  CG         8.5100  -15.2030  -45.5550 C.3    53  LEU53       0.0019
     19  CD1        8.5840  -13.7290  -45.9600 C.3    53  LEU53       0.0001
     20  CD2        7.0890  -15.6700  -45.2670 C.3    53  LEU53       0.0001
     21  N         -0.7030  -22.3130  -35.5970 N.3    69  GLN69      -0.1231
     22  CA        -0.5570  -20.9830  -35.0320 C.3    69  GLN69       0.1698
     23  C         -0.2580  -19.9880  -36.1440 C.2    69  GLN69       0.2592
     24  O         -0.0150  -20.3680  -37.2920 O.2    69  GLN69      -0.2718
     25  CB         0.5520  -20.9400  -33.9530 C.3    69  GLN69       0.0381
     26  CG         0.4060  -21.9550  -32.7800 C.3    69  GLN69       0.0905
     27  CD         1.6530  -22.0520  -31.8620 C.2    69  GLN69       0.2608
     28  OE1        2.7270  -21.4840  -32.1270 O.2    69  GLN69      -0.2717
     29  NE2        1.4590  -22.7010  -30.7200 N.am   69  GLN69      -0.0878
     30  N         -0.2460  -18.7000  -35.7880 N.am   70  TYR70      -0.1962
     31  CA        -0.2010  -17.6720  -36.8170 C.3    70  TYR70       0.1771
     32  C          0.2250  -16.3480  -36.1860 C.2    70  TYR70       0.2619
     33  O         -0.2770  -15.9510  -35.1350 O.2    70  TYR70      -0.2715
     34  CB        -1.5740  -17.5440  -37.5110 C.3    70  TYR70       0.0574
     35  CG        -1.5910  -16.5300  -38.6360 C.ar   70  TYR70      -0.0198
     36  CD1       -2.0640  -15.2460  -38.4370 C.ar   70  TYR70      -0.0009
     37  CD2       -1.0910  -16.8590  -39.9010 C.ar   70  TYR70      -0.0009
     38  CE1       -2.0610  -14.3180  -39.4610 C.ar   70  TYR70       0.0417
     39  CE2       -1.0880  -15.9410  -40.9300 C.ar   70  TYR70       0.0417
     40  CZ        -1.5780  -14.6630  -40.6910 C.ar   70  TYR70       0.1957
     41  OH        -1.6080  -13.6840  -41.6430 O.3    70  TYR70      -0.2866
     42  N          1.1410  -15.6600  -36.8330 N.am   71  GLU71      -0.1977
     43  CA         1.6090  -14.3870  -36.3220 C.3    71  GLU71       0.1602
     44  C          0.8720  -13.2870  -37.0650 C.2    71  GLU71       0.2287
     45  O          0.8080  -13.3160  -38.2970 O.2    71  GLU71      -0.2864
     46  CB         3.1140  -14.2610  -36.5250 C.3    71  GLU71       0.0415
     47  CG         3.8060  -13.2860  -35.6400 C.3    71  GLU71       0.1163
     48  CD         4.2600  -13.9210  -34.3700 C.2    71  GLU71       0.3649
     49  OE1        4.9160  -14.9600  -34.4250 O.co2  71  GLU71      -0.2457
     50  OE2        4.0310  -13.3360  -33.3180 O.co2  71  GLU71      -0.2457
     51  N          0.2140  -10.2050  -39.1050 N.3    73  MET73      -0.1245
     52  CA         1.0990   -9.6770  -40.1270 C.3    73  MET73       0.1570
     53  C          0.3590   -8.7420  -41.0730 C.2    73  MET73       0.2261
     54  O         -0.7870   -9.0100  -41.4470 O.2    73  MET73      -0.2867
     55  CB         1.7330  -10.7940  -40.9770 C.3    73  MET73       0.0387
     56  CG         2.2800  -10.1590  -42.2680 C.3    73  MET73       0.0595
     57  SD         2.1640  -11.1710  -43.6980 S.3    73  MET73      -0.1393
     58  CE         0.4060  -11.2850  -43.8250 C.3    73  MET73       0.0692
     59  N          5.5480   -8.0260  -38.8730 N.3    86  TYR86      -0.1241
     60  CA         4.9150   -8.8910  -37.8830 C.3    86  TYR86       0.1605
     61  C          4.6860   -8.1010  -36.6080 C.2    86  TYR86       0.2264
     62  O          5.6360   -7.5430  -36.0440 O.2    86  TYR86      -0.2867
     63  CB         5.7790  -10.1160  -37.5500 C.3    86  TYR86       0.0534
     64  CG         5.9920  -11.0690  -38.6890 C.ar   86  TYR86      -0.0201
     65  CD1        4.9410  -11.8470  -39.1590 C.ar   86  TYR86      -0.0009
     66  CD2        7.2360  -11.1900  -39.3090 C.ar   86  TYR86      -0.0009
     67  CE1        5.1120  -12.7170  -40.2020 C.ar   86  TYR86       0.0417
     68  CE2        7.4140  -12.0680  -40.3710 C.ar   86  TYR86       0.0417
     69  CZ         6.3390  -12.8290  -40.8060 C.ar   86  TYR86       0.1957
     70  OH         6.4680  -13.7110  -41.8530 O.3    86  TYR86      -0.2866
     71  N          5.1120  -21.7540  -33.6750 N.3   101  GLY101     -0.1210
     72  CA         5.2130  -22.3660  -34.9940 C.3   101  GLY101      0.1956
     73  C          5.0690  -21.3710  -36.1200 C.2   101  GLY101      0.2613
     74  O          4.2550  -21.5590  -37.0200 O.2   101  GLY101     -0.2717
     75  N          5.8470  -20.2950  -36.0540 N.am  102  THR102     -0.1938
     76  CA         5.7960  -19.1960  -37.0040 C.3   102  THR102      0.2028
     77  C          7.1990  -18.8420  -37.4740 C.2   102  THR102      0.2642
     78  O          8.1820  -19.0440  -36.7560 O.2   102  THR102     -0.2714
     79  CB         5.1770  -17.9350  -36.3720 C.3   102  THR102      0.1808
     80  OG1        6.1070  -17.3970  -35.4130 O.3   102  THR102     -0.2208
     81  CG2        3.8230  -18.2330  -35.6950 C.3   102  THR102      0.0379
     82  N          7.2770  -18.2480  -38.6730 N.am  103  ILE103     -0.1963
     83  CA         8.5750  -17.8440  -39.2150 C.3   103  ILE103      0.1727
     84  C          9.2150  -16.8190  -38.2940 C.2   103  ILE103      0.2616
     85  O         10.4290  -16.8500  -38.0450 O.2   103  ILE103     -0.2715
     86  CB         8.4190  -17.2770  -40.6490 C.3   103  ILE103      0.0290
     87  CG1        8.0300  -18.3390  -41.6930 C.3   103  ILE103      0.0022
     88  CG2        9.7160  -16.6150  -41.1250 C.3   103  ILE103      0.0023
     89  CD1        9.1390  -19.3270  -42.0350 C.3   103  ILE103      0.0001
     90  N          8.3910  -15.9340  -37.7240 N.am  104  ALA104     -0.1977
     91  CA         8.8800  -14.9060  -36.8110 C.3   104  ALA104      0.1597
     92  C          9.6860  -15.5110  -35.6730 C.2   104  ALA104      0.2287
     93  O         10.7870  -15.0400  -35.3590 O.2   104  ALA104     -0.2864
     94  CB         7.6950  -14.1180  -36.2490 C.3   104  ALA104      0.0319
@<TRIPOS>BOND
     1     1     2    1
     2     2     3    1
     3     2     5    1
     4     3     4    2
     5     5     6    1
     6     6     7   ar
     7     6     8   ar
     8     7     9   ar
     9    13    14    1
    10     8    10   ar
    11     9    11   ar
    12    15    14    1
    13    15    16    2
    14    14    17    1
    15    10    11   ar
    16    17    18    1
    17    11    12    1
    18    19    18    1
    19    18    20    1
    20    58    57    1
    21    57    56    1
    22    56    55    1
    23    89    87    1
    24    70    69    1
    25    87    86    1
    26    41    40    1
    27    54    53    2
    28    88    86    1
    29    53    52    1
    30    55    52    1
    31    39    40   ar
    32    39    37   ar
    33    69    68   ar
    34    69    67   ar
    35    40    38   ar
    36    86    83    1
    37    68    66   ar
    38    67    65   ar
    39    52    51    1
    40    37    35   ar
    41    38    36   ar
    42    66    64   ar
    43    83    82    1
    44    83    84    1
    45    65    64   ar
    46    59    60    1
    47    64    63    1
    48    82    77   am
    49    35    36   ar
    50    35    34    1
    51    45    44    2
    52    84    85    2
    53    84    90   am
    54    60    63    1
    55    60    61    1
    56    90    91    1
    57    34    31    1
    58    77    76    1
    59    77    78    2
    60    24    23    2
    61    44    43    1
    62    74    73    2
    63    76    79    1
    64    76    75    1
    65    42    43    1
    66    42    32   am
    67    31    32    1
    68    31    30    1
    69    91    94    1
    70    91    92    1
    71    61    62    2
    72    46    43    1
    73    46    47    1
    74    79    81    1
    75    79    80    1
    76    32    33    2
    77    23    30   am
    78    23    22    1
    79    73    75   am
    80    73    72    1
    81    92    93    2
    82    47    48    1
    83    21    22    1
    84    22    25    1
    85    72    71    1
    86    49    48   ar
    87    48    50   ar
    88    25    26    1
    89    26    27    1
    90    28    27    2
    91    27    29   am
