@<TRIPOS>MOLECULE
tmp/5nffG01.pdb
 108 101 0 0 0
SMALL
GASTEIGER

@<TRIPOS>ATOM
      1  N         21.7310   19.3610  -46.2820 N.3    17  VAL17      -0.1231
      2  CA        21.9430   20.6250  -46.9820 C.3    17  VAL17       0.1692
      3  C         20.7280   21.0010  -47.8260 C.2    17  VAL17       0.2591
      4  O         20.3310   22.1680  -47.8560 O.2    17  VAL17      -0.2718
      5  CB        23.2270   20.5500  -47.8410 C.3    17  VAL17       0.0266
      6  CG1       24.3790   19.9580  -47.0370 C.3    17  VAL17       0.0020
      7  CG2       23.0150   19.7580  -49.1100 C.3    17  VAL17       0.0020
      8  N         20.1180   20.0330  -48.5160 N.am   18  ARG18      -0.1980
      9  CA        18.9590   20.2920  -49.3600 C.3    18  ARG18       0.1597
     10  C         17.9000   19.2280  -49.1020 C.2    18  ARG18       0.2287
     11  O         18.0880   18.3690  -48.2340 O.2    18  ARG18      -0.2864
     12  CB        19.3520   20.3130  -50.8390 C.3    18  ARG18       0.0334
     13  CG        20.3260   21.4200  -51.2050 C.3    18  ARG18       0.0492
     14  CD        19.7550   22.8220  -51.0660 C.3    18  ARG18       0.2205
     15  NE        20.7200   23.8480  -51.4510 N.pl3  18  ARG18      -0.0865
     16  CZ        20.5660   25.1420  -51.2120 C.cat  18  ARG18       0.5346
     17  NH1       19.4830   25.5790  -50.5810 N.pl3  18  ARG18       0.1354
     18  NH2       21.4960   26.0060  -51.5990 N.pl3  18  ARG18       0.1354
     19  N         19.7850   15.7330  -50.4800 N.3    21  THR21      -0.1203
     20  CA        21.2170   15.5030  -50.3490 C.3    21  THR21       0.1994
     21  C         21.7520   16.0980  -49.0510 C.2    21  THR21       0.2618
     22  O         21.1890   17.0530  -48.5000 O.2    21  THR21      -0.2717
     23  CB        21.9680   16.0860  -51.5590 C.3    21  THR21       0.1784
     24  OG1       23.3810   15.9100  -51.3970 O.3    21  THR21      -0.2211
     25  CG2       21.6290   17.6040  -51.7960 C.3    21  THR21       0.0376
     26  N         22.8380   15.5160  -48.5540 N.am   22  GLY22      -0.1942
     27  CA        23.4960   16.0080  -47.3640 C.3    22  GLY22       0.2014
     28  C         24.9160   15.4890  -47.2910 C.2    22  GLY22       0.2638
     29  O         25.4200   14.8740  -48.2340 O.2    22  GLY22      -0.2714
     30  N         25.5610   15.7220  -46.1470 N.am   23  LEU23      -0.1977
     31  CA        26.9270   15.2500  -45.9410 C.3    23  LEU23       0.1596
     32  C         27.0510   14.3980  -44.6870 C.2    23  LEU23       0.2287
     33  O         26.4560   14.6970  -43.6460 O.2    23  LEU23      -0.2864
     34  CB        27.9380   16.3940  -45.8550 C.3    23  LEU23       0.0297
     35  CG        27.9700   17.4070  -46.9890 C.3    23  LEU23       0.0022
     36  CD1       28.5790   18.6670  -46.4650 C.3    23  LEU23       0.0001
     37  CD2       28.7240   16.8800  -48.1960 C.3    23  LEU23       0.0001
     38  N         34.9290   22.9220  -61.9110 N.3    44  HIS44      -0.1241
     39  CA        33.6950   22.3890  -61.3570 C.3    44  HIS44       0.1621
     40  C         33.9830   21.5720  -60.0950 C.2    44  HIS44       0.2264
     41  O         33.2740   21.7050  -59.0900 O.2    44  HIS44      -0.2867
     42  CB        32.9970   21.5580  -62.4360 C.3    44  HIS44       0.0745
     43  CG        31.7160   20.9270  -61.9960 C.ar   44  HIS44       0.0817
     44  ND1       31.6060   19.5820  -61.7160 N.ar   44  HIS44      -0.2268
     45  CD2       30.4790   21.4500  -61.8290 C.ar   44  HIS44       0.1154
     46  CE1       30.3600   19.3080  -61.3680 C.ar   44  HIS44       0.1986
     47  NE2       29.6570   20.4240  -61.4270 N.ar   44  HIS44      -0.2212
     48  N         32.7530   22.3240  -56.2000 N.3    48  LEU48      -0.1245
     49  CA        32.0310   21.3980  -55.3200 C.3    48  LEU48       0.1561
     50  C         32.8070   21.0740  -54.0510 C.2    48  LEU48       0.2260
     51  O         32.2050   20.7470  -53.0210 O.2    48  LEU48      -0.2867
     52  CB        31.6720   20.1020  -56.0480 C.3    48  LEU48       0.0270
     53  CG        30.6660   20.1400  -57.1950 C.3    48  LEU48       0.0019
     54  CD1       30.7350   18.8550  -58.0280 C.3    48  LEU48       0.0001
     55  CD2       29.2440   20.4000  -56.6460 C.3    48  LEU48       0.0001
     56  N         32.0530   24.0630  -51.8850 N.3    51  LYS51      -0.1231
     57  CA        30.6520   24.0470  -51.4720 C.3    51  LYS51       0.1693
     58  C         30.4240   23.0290  -50.3690 C.2    51  LYS51       0.2591
     59  O         29.6150   23.2450  -49.4580 O.2    51  LYS51      -0.2718
     60  CB        29.7530   23.7320  -52.6730 C.3    51  LYS51       0.0285
     61  CG        29.5120   24.8900  -53.6290 C.3    51  LYS51       0.0035
     62  CD        28.6750   25.9790  -52.9800 C.3    51  LYS51       0.0206
     63  CE        28.2920   27.0780  -53.9580 C.3    51  LYS51       0.1093
     64  NZ        27.3450   26.5990  -55.0180 N.3    51  LYS51      -0.1314
     65  N         31.1210   21.9020  -50.4370 N.am   52  ALA52      -0.1980
     66  CA        30.9620   20.8990  -49.4000 C.3    52  ALA52       0.1597
     67  C         31.5160   21.3980  -48.0670 C.2    52  ALA52       0.2287
     68  O         30.8560   21.2560  -47.0310 O.2    52  ALA52      -0.2864
     69  CB        31.6280   19.5910  -49.8340 C.3    52  ALA52       0.0319
     70  N         29.3930   24.2840  -46.7310 N.3    55  SER55      -0.1217
     71  CA        28.1700   23.8100  -46.0860 C.3    55  SER55       0.1889
     72  C         28.4360   23.3350  -44.6610 C.2    55  SER55       0.2288
     73  O         27.5740   23.5150  -43.7850 O.2    55  SER55      -0.2866
     74  CB        27.5370   22.6940  -46.9300 C.3    55  SER55       0.2089
     75  OG        28.4970   21.7020  -47.2760 O.3    55  SER55      -0.2183
     76  N         30.9320   11.1360  -60.0160 N.3    79  GLY79      -0.1210
     77  CA        29.8110   11.7830  -60.6690 C.3    79  GLY79       0.1956
     78  C         29.3280   13.0060  -59.9280 C.2    79  GLY79       0.2612
     79  O         28.1240   13.1780  -59.7160 O.2    79  GLY79      -0.2717
     80  N         30.2630   13.8560  -59.5170 N.am   80  GLY80      -0.1942
     81  CA        29.9300   15.0760  -58.8220 C.3    80  GLY80       0.2014
     82  C         29.6480   14.9420  -57.3400 C.2    80  GLY80       0.2639
     83  O         29.2470   15.9340  -56.7170 O.2    80  GLY80      -0.2714
     84  N         29.8240   13.7630  -56.7500 N.am   81  LYS81      -0.1963
     85  CA        29.6990   13.6090  -55.3040 C.3    81  LYS81       0.1728
     86  C         31.0960   13.4200  -54.7300 C.2    81  LYS81       0.2616
     87  O         31.7810   12.4430  -55.0610 O.2    81  LYS81      -0.2715
     88  CB        28.7690   12.4500  -54.9270 C.3    81  LYS81       0.0311
     89  CG        27.3170   12.6720  -55.3640 C.3    81  LYS81       0.0038
     90  CD        26.4010   11.5560  -54.8690 C.3    81  LYS81       0.0206
     91  CE        24.9340   12.0000  -54.7700 C.3    81  LYS81       0.1093
     92  NZ        23.9980   10.8690  -54.4350 N.3    81  LYS81      -0.1314
     93  N         31.5180   14.3710  -53.8920 N.am   82  ILE82      -0.1977
     94  CA        32.8740   14.4370  -53.3530 C.3    82  ILE82       0.1596
     95  C         33.0220   13.4860  -52.1740 C.2    82  ILE82       0.2287
     96  O         32.0690   13.2330  -51.4290 O.2    82  ILE82      -0.2864
     97  CB        33.1980   15.8860  -52.9410 C.3    82  ILE82       0.0276
     98  CG1       34.6360   15.9920  -52.4510 C.3    82  ILE82       0.0022
     99  CG2       32.2280   16.3510  -51.8500 C.3    82  ILE82       0.0022
    100  CD1       35.1550   17.3720  -52.4680 C.3    82  ILE82       0.0001
    101  N         29.6410   13.4290  -49.7780 N.3   143  ASN143     -0.1240
    102  CA        28.3530   13.8400  -50.3320 C.3   143  ASN143      0.1653
    103  C         27.5490   12.5670  -50.5600 C.2   143  ASN143      0.2266
    104  O         27.8740   11.7620  -51.4380 O.2   143  ASN143     -0.2867
    105  CB        28.5700   14.6900  -51.5970 C.3   143  ASN143      0.1155
    106  CG        27.2810   14.9670  -52.4080 C.2   143  ASN143      0.2627
    107  OD1       26.1970   14.4780  -52.1130 O.2   143  ASN143     -0.2716
    108  ND2       27.4090   15.8890  -53.3500 N.am  143  ASN143     -0.0877
@<TRIPOS>BOND
     1    42    43    1
     2    42    39    1
     3    43    45   ar
     4    43    44   ar
     5    38    39    1
     6    45    47   ar
     7    44    46   ar
     8    47    46   ar
     9    39    40    1
    10    77    76    1
    11    77    78    1
    12    40    41    2
    13    78    79    2
    14    78    80   am
    15    80    81    1
    16    81    82    1
    17    54    53    1
    18    82    84   am
    19    82    83    2
    20    53    55    1
    21    53    52    1
    22    84    85    1
    23    48    49    1
    24    52    49    1
    25    89    88    1
    26    89    90    1
    27    49    50    1
    28    85    88    1
    29    85    86    1
    30    87    86    2
    31    64    63    1
    32    90    91    1
    33    91    92    1
    34    86    93   am
    35    50    51    2
    36    63    62    1
    37    93    94    1
    38    61    62    1
    39    61    60    1
    40    94    97    1
    41    94    95    1
    42   108   106   am
    43    97    98    1
    44    97    99    1
    45    60    57    1
    46   100    98    1
    47   106   107    2
    48   106   105    1
    49    95    96    2
    50    56    57    1
    51    25    23    1
    52    18    16    1
    53   105   102    1
    54    23    24    1
    55    23    20    1
    56    57    58    1
    57    15    16    2
    58    15    14    1
    59   104   103    2
    60    16    17    1
    61    13    14    1
    62    13    12    1
    63    12     9    1
    64   103   102    1
    65    19    20    1
    66    65    58   am
    67    65    66    1
    68    58    59    2
    69    20    21    1
    70   102   101    1
    71    69    66    1
    72    66    67    1
    73     9    10    1
    74     9     8    1
    75     7     5    1
    76    10    11    2
    77    21    26   am
    78    21    22    2
    79    26    27    1
    80     8     3   am
    81    29    28    2
    82    37    35    1
    83    67    68    2
    84     4     3    2
    85     5     6    1
    86     5     2    1
    87     3     2    1
    88    27    28    1
    89    28    30   am
    90    75    74    1
    91    35    36    1
    92    35    34    1
    93     2     1    1
    94    74    71    1
    95    70    71    1
    96    30    31    1
    97    71    72    1
    98    31    34    1
    99    31    32    1
   100    32    33    2
   101    72    73    2
