@<TRIPOS>MOLECULE
tmp/5nfhB00.pdb
 199 196 0 0 0
SMALL
GASTEIGER

@<TRIPOS>ATOM
      1  N        -33.1040   11.3930    5.1640 N.3    16  PRO16      -0.2102
      2  CA       -34.1950   11.9860    5.9460 C.3    16  PRO16       0.1504
      3  C        -34.0200   11.5760    7.3860 C.2    16  PRO16       0.2575
      4  O        -33.2000   10.7310    7.6490 O.2    16  PRO16      -0.2718
      5  CB       -35.4550   11.3590    5.3390 C.3    16  PRO16       0.0282
      6  CG       -35.0330   10.7600    4.0660 C.3    16  PRO16       0.0208
      7  CD       -33.5960   10.3800    4.2170 C.3    16  PRO16       0.0893
      8  N        -34.7340   12.1840    8.3150 N.am   17  ILE17      -0.1980
      9  CA       -34.7440   11.6700    9.6770 C.3    17  ILE17       0.1595
     10  C        -35.9770   10.8230    9.8450 C.2    17  ILE17       0.2287
     11  O        -37.0770   11.2030    9.4240 O.2    17  ILE17      -0.2864
     12  CB       -34.7040   12.7780   10.7110 C.3    17  ILE17       0.0276
     13  CG1      -35.7570   13.8410   10.4220 C.3    17  ILE17       0.0022
     14  CG2      -33.3120   13.3990   10.7260 C.3    17  ILE17       0.0022
     15  CD1      -35.7660   14.9700   11.4230 C.3    17  ILE17       0.0001
     16  N        -38.9870    8.3210   11.5510 N.3    19  TYR19      -0.1241
     17  CA       -39.9290    8.3810   12.6540 C.3    19  TYR19       0.1605
     18  C        -39.6920    7.2070   13.5900 C.2    19  TYR19       0.2264
     19  O        -39.5550    6.0770   13.1300 O.2    19  TYR19      -0.2867
     20  CB       -41.3690    8.3910   12.1380 C.3    19  TYR19       0.0534
     21  CG       -42.3460    9.0270   13.1040 C.ar   19  TYR19      -0.0201
     22  CD1      -41.9870   10.1570   13.8400 C.ar   19  TYR19      -0.0009
     23  CD2      -43.6210    8.5120   13.2870 C.ar   19  TYR19      -0.0009
     24  CE1      -42.8670   10.7460   14.7340 C.ar   19  TYR19       0.0417
     25  CE2      -44.5110    9.0990   14.1670 C.ar   19  TYR19       0.0417
     26  CZ       -44.1360   10.2180   14.8960 C.ar   19  TYR19       0.1957
     27  OH       -45.0000   10.8350   15.7840 O.3    19  TYR19      -0.2866
     28  N        -36.6250   11.3350   13.8220 N.3    56  ASP56      -0.1239
     29  CA       -37.6930   12.2890   14.0280 C.3    56  ASP56       0.1674
     30  C        -38.5100   11.8170   15.2400 C.2    56  ASP56       0.2266
     31  O        -39.2060   10.8250   15.1910 O.2    56  ASP56      -0.2867
     32  CB       -38.5360   12.3660   12.7550 C.3    56  ASP56       0.1410
     33  CG       -39.7190   13.2680   12.8860 C.2    56  ASP56       0.3668
     34  OD1      -39.8170   14.0400   13.8560 O.co2  56  ASP56      -0.2456
     35  OD2      -40.5730   13.1840   12.0020 O.co2  56  ASP56      -0.2456
     36  N        -40.5040   13.7130   17.8740 N.3    58  HIS58      -0.1226
     37  CA       -41.6490   14.3120   18.5140 C.3    58  HIS58       0.1752
     38  C        -42.9990   13.8850   17.9560 C.2    58  HIS58       0.2597
     39  O        -43.0960   13.0860   17.0330 O.2    58  HIS58      -0.2718
     40  CB       -41.5300   15.8180   18.4530 C.3    58  HIS58       0.0759
     41  CG       -40.3820   16.3460   19.2390 C.ar   58  HIS58       0.0818
     42  ND1      -39.4600   17.2150   18.7170 N.ar   58  HIS58      -0.2268
     43  CD2      -39.9940   16.1130   20.5100 C.ar   58  HIS58       0.1154
     44  CE1      -38.5600   17.5130   19.6300 C.ar   58  HIS58       0.1986
     45  NE2      -38.8560   16.8530   20.7290 N.ar   58  HIS58      -0.2212
     46  N        -44.0560   14.4020   18.5710 N.am   59  GLY59      -0.1942
     47  CA       -45.3820   14.2120   18.0430 C.3    59  GLY59       0.2014
     48  C        -46.2830   13.3060   18.8280 C.2    59  GLY59       0.2639
     49  O        -45.8660   12.5900   19.7170 O.2    59  GLY59      -0.2714
     50  N        -47.5490   13.3290   18.4530 N.am   60  GLN60      -0.1963
     51  CA       -48.5750   12.6230   19.1810 C.3    60  GLN60       0.1733
     52  C        -48.3970   11.1040   19.1960 C.2    60  GLN60       0.2616
     53  O        -48.4850   10.4840   20.2530 O.2    60  GLN60      -0.2715
     54  CB       -49.9250   12.9890   18.5860 C.3    60  GLN60       0.0408
     55  CG       -51.0880   12.4200   19.3550 C.3    60  GLN60       0.0908
     56  CD       -52.4080   12.7200   18.6920 C.2    60  GLN60       0.2608
     57  OE1      -52.4520   13.3740   17.6280 O.2    60  GLN60      -0.2717
     58  NE2      -53.5070   12.2660   19.3280 N.am   60  GLN60      -0.0878
     59  N        -48.1460   10.5180   18.0260 N.am   61  LYS61      -0.1977
     60  CA       -48.0820    9.0630   17.8830 C.3    61  LYS61       0.1596
     61  C        -46.9310    8.4380   18.6620 C.2    61  LYS61       0.2287
     62  O        -47.0340    7.2990   19.1320 O.2    61  LYS61      -0.2864
     63  CB       -47.9730    8.6610   16.4100 C.3    61  LYS61       0.0298
     64  CG       -49.2230    8.9640   15.5970 C.3    61  LYS61       0.0038
     65  CD       -49.0710    8.5850   14.1240 C.3    61  LYS61       0.0206
     66  CE       -50.3630    8.8790   13.3740 C.3    61  LYS61       0.1093
     67  NZ       -50.3010    8.5260   11.9290 N.3    61  LYS61      -0.1314
     68  N        -54.8340   14.8350   12.8520 N.3   137  GLU137     -0.1245
     69  CA       -54.0740   16.0580   13.1070 C.3   137  GLU137      0.1567
     70  C        -54.1580   16.9920   11.8950 C.2   137  GLU137      0.2260
     71  O        -53.1480   17.5460   11.4570 O.2   137  GLU137     -0.2867
     72  CB       -52.6070   15.7450   13.4390 C.3   137  GLU137      0.0388
     73  CG       -52.4080   14.5450   14.3510 C.3   137  GLU137      0.1160
     74  CD       -50.9390   14.2670   14.6690 C.2   137  GLU137      0.3649
     75  OE1      -50.2900   13.5170   13.9100 O.co2 137  GLU137     -0.2457
     76  OE2      -50.4220   14.7770   15.6890 O.co2 137  GLU137     -0.2457
     77  N        -50.5860   17.3980   20.9700 N.3   216  LEU216     -0.1245
     78  CA       -49.3580   16.6710   20.7250 C.3   216  LEU216      0.1561
     79  C        -48.9340   15.8970   21.9600 C.2   216  LEU216      0.2260
     80  O        -47.8390   15.3240   22.0020 O.2   216  LEU216     -0.2867
     81  CB       -48.2540   17.6430   20.3100 C.3   216  LEU216      0.0270
     82  CG       -48.3430   18.0920   18.8660 C.3   216  LEU216      0.0019
     83  CD1      -47.1590   18.9590   18.5070 C.3   216  LEU216      0.0001
     84  CD2      -48.4170   16.8800   17.9400 C.3   216  LEU216      0.0001
     85  N        -43.2170   17.8110   22.0760 N.3   220  ALA220     -0.1245
     86  CA       -42.8270   18.6290   20.9410 C.3   220  ALA220      0.1562
     87  C        -42.0750   19.8500   21.4430 C.2   220  ALA220      0.2260
     88  O        -41.8870   19.9970   22.6250 O.2   220  ALA220     -0.2867
     89  CB       -44.0540   19.0590   20.1660 C.3   220  ALA220      0.0290
     90  N        -44.3380   23.4970   18.1250 N.3   231  VAL231     -0.1231
     91  CA       -43.9000   23.5480   16.7410 C.3   231  VAL231      0.1692
     92  C        -44.2090   22.2080   16.0770 C.2   231  VAL231      0.2592
     93  O        -43.7990   21.1430   16.5590 O.2   231  VAL231     -0.2718
     94  CB       -42.3950   23.8380   16.6410 C.3   231  VAL231      0.0266
     95  CG1      -41.9260   23.7760   15.2050 C.3   231  VAL231      0.0020
     96  CG2      -42.0870   25.1980   17.2110 C.3   231  VAL231      0.0020
     97  N        -44.9380   22.2660   14.9650 N.am  232  TYR232     -0.1962
     98  CA       -45.3450   21.0710   14.2520 C.3   232  TYR232      0.1771
     99  C        -44.2040   20.4950   13.4130 C.2   232  TYR232      0.2619
    100  O        -43.1130   21.0480   13.3960 O.2   232  TYR232     -0.2715
    101  CB       -46.5670   21.3700   13.4000 C.3   232  TYR232      0.0574
    102  CG       -47.3580   20.1410   13.0190 C.ar  232  TYR232     -0.0198
    103  CD1      -47.5110   19.0630   13.9050 C.ar  232  TYR232     -0.0009
    104  CD2      -47.9570   20.0520   11.7780 C.ar  232  TYR232     -0.0009
    105  CE1      -48.2130   17.9430   13.5410 C.ar  232  TYR232      0.0417
    106  CE2      -48.6830   18.9330   11.4060 C.ar  232  TYR232      0.0417
    107  CZ       -48.8080   17.8830   12.2840 C.ar  232  TYR232      0.1957
    108  OH       -49.5290   16.7790   11.8910 O.3   232  TYR232     -0.2866
    109  N        -44.4530   19.3690   12.7510 N.am  233  VAL233     -0.1963
    110  CA       -43.4070   18.5390   12.1280 C.3   233  VAL233      0.1727
    111  C        -42.5530   19.2360   11.0710 C.2   233  VAL233      0.2616
    112  O        -41.3620   18.9800   10.9740 O.2   233  VAL233     -0.2715
    113  CB       -44.0440   17.2840   11.4620 C.3   233  VAL233      0.0290
    114  CG1      -45.1550   17.6640   10.4780 C.3   233  VAL233      0.0023
    115  CG2      -42.9870   16.4330   10.7680 C.3   233  VAL233      0.0023
    116  N        -43.1650   20.1200   10.2960 N.am  234  TRP234     -0.1974
    117  CA       -42.4760   20.7740    9.2260 C.3   234  TRP234      0.1640
    118  C        -41.2550   21.4890    9.7740 C.2   234  TRP234      0.2290
    119  O        -40.1420   21.0210    9.5750 O.2   234  TRP234     -0.2864
    120  CB       -43.4030   21.7310    8.4600 C.3   234  TRP234      0.0576
    121  CG       -44.8150   21.2300    8.3230 C.ar  234  TRP234      0.0006
    122  CD1      -45.9310   21.8390    8.7900 C.ar  234  TRP234      0.0946
    123  CD2      -45.2570   20.0220    7.7010 C.ar  234  TRP234      0.0152
    124  NE1      -47.0440   21.1010    8.4900 N.ar  234  TRP234     -0.2442
    125  CE2      -46.6600   19.9770    7.8220 C.ar  234  TRP234      0.0810
    126  CE3      -44.6060   18.9750    7.0380 C.ar  234  TRP234      0.0012
    127  CZ2      -47.4290   18.9250    7.3190 C.ar  234  TRP234      0.0191
    128  CZ3      -45.3800   17.9210    6.5370 C.ar  234  TRP234      0.0001
    129  CH2      -46.7750   17.9080    6.6880 C.ar  234  TRP234      0.0015
    130  N        -39.9470   21.5260   12.5460 N.3   236  ASP236     -0.1225
    131  CA       -39.1810   20.7370   13.4760 C.3   236  ASP236      0.1805
    132  C        -38.2520   19.8270   12.7160 C.2   236  ASP236      0.2598
    133  O        -37.0580   19.9810   12.7900 O.2   236  ASP236     -0.2718
    134  CB       -40.1140   19.9170   14.3690 C.3   236  ASP236      0.1424
    135  CG       -39.3770   19.1560   15.4630 C.2   236  ASP236      0.3668
    136  OD1      -38.1420   19.2340   15.5420 O.co2 236  ASP236     -0.2456
    137  OD2      -40.0550   18.4650   16.2310 O.co2 236  ASP236     -0.2456
    138  N        -38.8270   18.8780   11.9950 N.am  237  ALA237     -0.1966
    139  CA       -38.0640   17.8580   11.3020 C.3   237  ALA237      0.1728
    140  C        -37.1760   18.4130   10.2040 C.2   237  ALA237      0.2616
    141  O        -36.0370   18.0370   10.0940 O.2   237  ALA237     -0.2715
    142  CB       -38.9980   16.8160   10.7090 C.3   237  ALA237      0.0334
    143  N        -37.6920   19.2900    9.3670 N.am  238  LEU238     -0.1977
    144  CA       -36.8850   19.7870    8.2590 C.3   238  LEU238      0.1596
    145  C        -35.6360   20.5000    8.7570 C.2   238  LEU238      0.2287
    146  O        -34.5890   20.4250    8.1470 O.2   238  LEU238     -0.2864
    147  CB       -37.7150   20.6990    7.3490 C.3   238  LEU238      0.0297
    148  CG       -38.6750   19.9430    6.4070 C.3   238  LEU238      0.0022
    149  CD1      -39.7670   20.8350    5.8740 C.3   238  LEU238      0.0001
    150  CD2      -37.9200   19.3570    5.2490 C.3   238  LEU238      0.0001
    151  N        -31.5780   19.5170    9.0710 N.3   241  TYR241     -0.1241
    152  CA       -30.4720   19.7230    8.1370 C.3   241  TYR241      0.1605
    153  C        -29.7000   20.9750    8.4750 C.2   241  TYR241      0.2264
    154  O        -28.4900   21.0040    8.3840 O.2   241  TYR241     -0.2867
    155  CB       -31.0010   19.8350    6.7050 C.3   241  TYR241      0.0534
    156  CG       -31.8630   18.6940    6.2620 C.ar  241  TYR241     -0.0201
    157  CD1      -31.4420   17.3910    6.3930 C.ar  241  TYR241     -0.0009
    158  CD2      -33.0810   18.9220    5.7080 C.ar  241  TYR241     -0.0009
    159  CE1      -32.2290   16.3430    5.9770 C.ar  241  TYR241      0.0417
    160  CE2      -33.8680   17.8860    5.2840 C.ar  241  TYR241      0.0417
    161  CZ       -33.4300   16.6020    5.4240 C.ar  241  TYR241      0.1957
    162  OH       -34.2220   15.6000    4.9980 O.3   241  TYR241     -0.2866
    163  N        -42.1420    9.8670   -1.0620 N.3   278  ASP278     -0.1225
    164  CA       -43.2920   10.2080   -0.2070 C.3   278  ASP278      0.1805
    165  C        -43.1700   11.5720    0.4780 C.2   278  ASP278      0.2597
    166  O        -44.1680   12.1430    0.8720 O.2   278  ASP278     -0.2718
    167  CB       -43.5170    9.1290    0.8560 C.3   278  ASP278      0.1424
    168  CG       -42.2560    8.8720    1.7360 C.2   278  ASP278      0.3668
    169  OD1      -41.1210    9.1330    1.2920 O.co2 278  ASP278     -0.2456
    170  OD2      -42.3890    8.3850    2.8760 O.co2 278  ASP278     -0.2456
    171  N        -41.9620   12.1000    0.6070 N.am  279  ILE279     -0.1980
    172  CA       -41.7630   13.3670    1.2960 C.3   279  ILE279      0.1595
    173  C        -41.1320   14.4340    0.4000 C.2   279  ILE279      0.2287
    174  O        -40.5180   15.3880    0.8730 O.2   279  ILE279     -0.2864
    175  CB       -40.9320   13.1750    2.5660 C.3   279  ILE279      0.0276
    176  CG1      -39.5430   12.6780    2.2400 C.3   279  ILE279      0.0022
    177  CG2      -41.5840   12.1420    3.4510 C.3   279  ILE279      0.0022
    178  CD1      -38.7490   12.3560    3.4770 C.3   279  ILE279      0.0001
    179  N        -42.5890   18.0290    0.8800 N.3   282  PHE282     -0.1227
    180  CA       -42.0690   18.6540    2.0860 C.3   282  PHE282      0.1736
    181  C        -40.7040   19.2420    1.7920 C.2   282  PHE282      0.2595
    182  O        -40.3860   20.3320    2.2320 O.2   282  PHE282     -0.2718
    183  CB       -41.9810   17.6370    3.2190 C.3   282  PHE282      0.0547
    184  CG       -43.2350   16.8310    3.4200 C.ar  282  PHE282     -0.0202
    185  CD1      -44.4750   17.3630    3.1410 C.ar  282  PHE282     -0.0042
    186  CD2      -43.1730   15.5560    3.9110 C.ar  282  PHE282     -0.0042
    187  CE1      -45.6210   16.6250    3.3340 C.ar  282  PHE282     -0.0003
    188  CE2      -44.3210   14.8150    4.1030 C.ar  282  PHE282     -0.0003
    189  CZ       -45.5450   15.3510    3.8190 C.ar  282  PHE282     -0.0000
    190  N        -39.9150   18.5220    1.0020 N.am  283  HIS283     -0.1975
    191  CA       -38.5460   18.9340    0.6980 C.3   283  HIS283      0.1656
    192  C        -38.4350   19.8980   -0.4880 C.2   283  HIS283      0.2291
    193  O        -37.5820   20.7460   -0.5200 O.2   283  HIS283     -0.2864
    194  CB       -37.6900   17.6920    0.4570 C.3   283  HIS283      0.0771
    195  CG       -37.3230   16.9590    1.7030 C.ar  283  HIS283      0.0820
    196  ND1      -38.1730   16.0880    2.3320 N.ar  283  HIS283     -0.2267
    197  CD2      -36.1920   16.9710    2.4420 C.ar  283  HIS283      0.1154
    198  CE1      -37.5890   15.5970    3.4100 C.ar  283  HIS283      0.1986
    199  NE2      -36.3830   16.1150    3.4970 N.ar  283  HIS283     -0.2212
@<TRIPOS>BOND
     1   163   164    1
     2   193   192    2
     3   192   191    1
     4   164   165    1
     5   164   167    1
     6   173   174    2
     7   173   172    1
     8   194   191    1
     9   194   195    1
    10   165   171   am
    11   165   166    2
    12   171   172    1
    13   191   190    1
    14   167   168    1
    15   179   180    1
    16   190   181   am
    17   169   168   ar
    18   172   175    1
    19   195   196   ar
    20   195   197   ar
    21   168   170   ar
    22   181   180    1
    23   181   182    2
    24   180   183    1
    25   176   175    1
    26   176   178    1
    27   196   198   ar
    28   197   199   ar
    29   175   177    1
    30   185   187   ar
    31   185   184   ar
    32   183   184    1
    33   187   189   ar
    34   198   199   ar
    35   184   186   ar
    36   189   188   ar
    37   186   188   ar
    38     6     7    1
    39     6     5    1
    40     7     1    1
    41   162   161    1
    42     1     2    1
    43   150   148    1
    44   160   161   ar
    45   160   158   ar
    46     5     2    1
    47   161   159   ar
    48   158   156   ar
    49   149   148    1
    50     2     3    1
    51   159   157   ar
    52   156   157   ar
    53   156   155    1
    54   148   147    1
    55   128   129   ar
    56   128   126   ar
    57   129   127   ar
    58   155   152    1
    59   126   123   ar
    60   127   125   ar
    61   147   144    1
    62     3     4    2
    63     3     8   am
    64   123   125   ar
    65   123   121   ar
    66   125   124   ar
    67   152   153    1
    68   152   151    1
    69   146   145    2
    70   144   145    1
    71   144   143    1
    72     8     9    1
    73   121   120    1
    74   121   122   ar
    75   154   153    2
    76   120   117    1
    77   124   122   ar
    78   117   118    1
    79   117   116    1
    80   143   140   am
    81    11    10    2
    82   119   118    2
    83     9    10    1
    84     9    12    1
    85   141   140    2
    86   140   139    1
    87   116   111   am
    88    13    12    1
    89    13    15    1
    90   114   113    1
    91   142   139    1
    92    12    14    1
    93   115   113    1
    94   112   111    2
    95   111   110    1
    96   139   138    1
    97   106   104   ar
    98   106   107   ar
    99    71    70    2
   100   113   110    1
   101    16    17    1
   102   104   102   ar
   103   108   107    1
   104    70    69    1
   105    67    66    1
   106   138   132   am
   107    35    33   ar
   108   110   109    1
   109    20    17    1
   110    20    21    1
   111   107   105   ar
   112   130   131    1
   113    17    18    1
   114   132   133    2
   115   132   131    1
   116   109    99   am
   117    32    33    1
   118    32    29    1
   119    68    69    1
   120    33    34   ar
   121   102   101    1
   122   102   103   ar
   123    21    23   ar
   124    21    22   ar
   125    69    72    1
   126    19    18    2
   127    23    25   ar
   128    66    65    1
   129   100    99    2
   130   101    98    1
   131    99    98    1
   132    72    73    1
   133   131   134    1
   134   105   103   ar
   135    28    29    1
   136    22    24   ar
   137    75    74   ar
   138    29    30    1
   139    65    64    1
   140    25    26   ar
   141    98    97    1
   142    73    74    1
   143   134   135    1
   144    74    76   ar
   145    24    26   ar
   146    26    27    1
   147    97    92   am
   148    31    30    2
   149    95    94    1
   150   135   136   ar
   151   135   137   ar
   152    64    63    1
   153    92    93    2
   154    92    91    1
   155    63    60    1
   156    94    91    1
   157    94    96    1
   158    91    90    1
   159    39    38    2
   160    57    56    2
   161    36    37    1
   162    60    59    1
   163    60    61    1
   164    84    82    1
   165    38    37    1
   166    38    46   am
   167    59    52   am
   168    47    46    1
   169    47    48    1
   170    40    37    1
   171    40    41    1
   172    50    48   am
   173    50    51    1
   174    83    82    1
   175    54    51    1
   176    54    55    1
   177    61    62    2
   178    56    58   am
   179    56    55    1
   180    42    41   ar
   181    42    44   ar
   182    48    49    2
   183    82    81    1
   184    51    52    1
   185    52    53    2
   186    41    43   ar
   187    44    45   ar
   188    89    86    1
   189    81    78    1
   190    43    45   ar
   191    78    77    1
   192    78    79    1
   193    86    87    1
   194    86    85    1
   195    87    88    2
   196    79    80    2
