@<TRIPOS>MOLECULE
tmp/5nfjC00.pdb
 205 199 0 0 0
SMALL
GASTEIGER

@<TRIPOS>ATOM
      1  N        -20.2140    5.3670   -2.6150 N.3    25  GLN25      -0.1245
      2  CA       -20.0980    4.2850   -1.6470 C.3    25  GLN25       0.1566
      3  C        -21.1160    4.3850   -0.4690 C.2    25  GLN25       0.2260
      4  O        -21.6490    3.3700    0.0110 O.2    25  GLN25      -0.2867
      5  CB       -18.6400    4.1860   -1.1330 C.3    25  GLN25       0.0367
      6  CG       -17.6420    3.7420   -2.1740 C.3    25  GLN25       0.0905
      7  CD       -16.2380    3.5840   -1.6440 C.2    25  GLN25       0.2608
      8  OE1      -16.0020    3.5180   -0.4420 O.2    25  GLN25      -0.2717
      9  NE2      -15.3020    3.4960   -2.5480 N.am   25  GLN25      -0.0878
     10  N        -13.7270    2.1730   16.8880 N.3    88  TYR88      -0.1227
     11  CA       -13.4010    2.7760   15.5700 C.3    88  TYR88       0.1736
     12  C        -12.6950    1.7080   14.7510 C.2    88  TYR88       0.2595
     13  O        -11.6220    1.2510   15.1030 O.2    88  TYR88      -0.2718
     14  CB       -12.5410    4.0550   15.7410 C.3    88  TYR88       0.0548
     15  CG       -12.7620    5.1290   14.6670 C.ar   88  TYR88      -0.0200
     16  CD1      -12.6210    4.8330   13.3170 C.ar   88  TYR88      -0.0009
     17  CD2      -13.1240    6.4340   15.0080 C.ar   88  TYR88      -0.0009
     18  CE1      -12.8480    5.8380   12.2960 C.ar   88  TYR88       0.0417
     19  CE2      -13.3100    7.4260   14.0180 C.ar   88  TYR88       0.0417
     20  CZ       -13.1640    7.1310   12.6740 C.ar   88  TYR88       0.1957
     21  OH       -13.4450    8.1300   11.7210 O.3    88  TYR88      -0.2866
     22  N        -13.3010    1.2600   13.6630 N.am   89  LEU89      -0.1966
     23  CA       -12.6380    0.3330   12.7920 C.3    89  LEU89       0.1728
     24  C        -11.5570    1.0070   11.8830 C.2    89  LEU89       0.2617
     25  O        -11.8020    2.0630   11.3120 O.2    89  LEU89      -0.2715
     26  CB       -13.7000   -0.3970   11.9670 C.3    89  LEU89       0.0311
     27  CG       -14.7100   -1.2670   12.7440 C.3    89  LEU89       0.0022
     28  CD1      -15.8540   -1.7030   11.8640 C.3    89  LEU89       0.0001
     29  CD2      -13.9700   -2.5490   13.2370 C.3    89  LEU89       0.0001
     30  N        -10.3680    0.4050   11.7870 N.am   90  THR90      -0.1937
     31  CA        -9.3000    0.8430   10.8930 C.3    90  THR90       0.2028
     32  C         -8.3460   -0.2950   10.6030 C.2    90  THR90       0.2642
     33  O         -7.9340   -1.0310   11.5250 O.2    90  THR90      -0.2714
     34  CB        -8.5370    2.1200   11.4060 C.3    90  THR90       0.1808
     35  OG1       -7.3310    2.3140   10.6500 O.3    90  THR90      -0.2208
     36  CG2       -8.2030    2.0750   12.8640 C.3    90  THR90       0.0379
     37  N         -7.9760   -0.4590    9.3360 N.am   91  ALA91      -0.1963
     38  CA        -6.9870   -1.4730    8.9660 C.3    91  ALA91       0.1728
     39  C         -5.6340   -1.2470    9.6750 C.2    91  ALA91       0.2616
     40  O         -4.8410   -2.1290    9.7210 O.2    91  ALA91      -0.2715
     41  CB        -6.7720   -1.5260    7.4710 C.3    91  ALA91       0.0334
     42  N         -5.3610   -0.0590   10.1760 N.am   92  ASP92      -0.1971
     43  CA        -4.1160    0.2110   10.8730 C.3    92  ASP92       0.1709
     44  C         -4.1100   -0.1190   12.3870 C.2    92  ASP92       0.2293
     45  O         -3.0950    0.1000   13.0590 O.2    92  ASP92      -0.2864
     46  CB        -3.7750    1.7110   10.6750 C.3    92  ASP92       0.1436
     47  CG        -3.5350    2.0660    9.1390 C.2    92  ASP92       0.3671
     48  OD1       -2.9610    1.2280    8.4210 O.co2  92  ASP92      -0.2456
     49  OD2       -3.9960    3.1200    8.6240 O.co2  92  ASP92      -0.2456
     50  N        -17.0230    3.8280   11.0630 N.3   108  ILE108     -0.1231
     51  CA       -16.3440    3.6460    9.8210 C.3   108  ILE108      0.1692
     52  C        -16.0140    5.0770    9.2780 C.2   108  ILE108      0.2592
     53  O        -16.8710    5.9820    9.2770 O.2   108  ILE108     -0.2718
     54  CB       -17.2740    2.9120    8.8040 C.3   108  ILE108      0.0266
     55  CG1      -17.6350    1.5010    9.2860 C.3   108  ILE108      0.0019
     56  CG2      -16.6040    2.8280    7.4430 C.3   108  ILE108      0.0020
     57  CD1      -18.9010    0.9550    8.6450 C.3   108  ILE108      0.0001
     58  N        -14.8110    5.2870    8.7800 N.am  109  GLY109     -0.1957
     59  CA       -14.4570    6.6430    8.3010 C.3   109  GLY109      0.1869
     60  C        -14.9530    6.8060    6.8980 C.2   109  GLY109      0.2309
     61  O        -14.7210    5.9340    6.0360 O.2   109  GLY109     -0.2863
     62  N        -14.2210    7.9460    3.8500 N.3   111  PHE111     -0.1227
     63  CA       -12.9560    8.3690    3.3420 C.3   111  PHE111      0.1736
     64  C        -12.5030    7.4160    2.2830 C.2   111  PHE111      0.2595
     65  O        -12.3880    6.1860    2.5370 O.2   111  PHE111     -0.2718
     66  CB       -11.9610    8.3680    4.5010 C.3   111  PHE111      0.0547
     67  CG       -10.5870    8.9510    4.1930 C.ar  111  PHE111     -0.0202
     68  CD1      -10.3930   10.0340    3.2750 C.ar  111  PHE111     -0.0042
     69  CD2       -9.4470    8.4470    4.8950 C.ar  111  PHE111     -0.0042
     70  CE1       -9.0840   10.5720    3.0750 C.ar  111  PHE111     -0.0003
     71  CE2       -8.1410    9.0050    4.7050 C.ar  111  PHE111     -0.0003
     72  CZ        -7.9790   10.0730    3.7680 C.ar  111  PHE111     -0.0000
     73  N        -12.2710    7.9710    1.0840 N.am  112  VAL112     -0.1966
     74  CA       -11.6340    7.2450   -0.0200 C.3   112  VAL112      0.1727
     75  C        -10.2470    7.8860   -0.3170 C.2   112  VAL112      0.2616
     76  O        -10.1670    9.0830   -0.5820 O.2   112  VAL112     -0.2715
     77  CB       -12.5170    7.2800   -1.3090 C.3   112  VAL112      0.0290
     78  CG1      -11.7640    6.7170   -2.5380 C.3   112  VAL112      0.0023
     79  CG2      -13.8640    6.5640   -1.1190 C.3   112  VAL112      0.0023
     80  N         -9.1740    7.0890   -0.2470 N.am  113  ASP113     -0.1957
     81  CA        -7.8020    7.5560   -0.4720 C.3   113  ASP113      0.1840
     82  C         -7.0100    6.6630   -1.4170 C.2   113  ASP113      0.2622
     83  O         -5.8280    6.9010   -1.6580 O.2   113  ASP113     -0.2715
     84  CB        -7.0450    7.6920    0.8690 C.3   113  ASP113      0.1450
     85  CG        -6.7750    6.3270    1.5630 C.2   113  ASP113      0.3671
     86  OD1       -7.4990    5.3620    1.3100 O.co2 113  ASP113     -0.2456
     87  OD2       -5.8280    6.1960    2.3530 O.co2 113  ASP113     -0.2456
     88  N         -7.5870    5.5700   -1.8760 N.am  114  LYS114     -0.1963
     89  CA        -6.7750    4.5480   -2.5940 C.3   114  LYS114      0.1728
     90  C         -5.5260    4.0330   -1.8290 C.2   114  LYS114      0.2616
     91  O         -4.5240    3.7140   -2.4420 O.2   114  LYS114     -0.2715
     92  CB        -6.4090    5.0750   -3.9980 C.3   114  LYS114      0.0311
     93  CG        -7.6810    5.4220   -4.7810 C.3   114  LYS114      0.0038
     94  CD        -7.4430    6.2900   -5.9930 C.3   114  LYS114      0.0206
     95  CE        -7.4970    5.4660   -7.2660 C.3   114  LYS114      0.1093
     96  NZ        -7.5720    6.4360   -8.3720 N.3   114  LYS114     -0.1314
     97  N         -5.6300    3.9930   -0.4990 N.am  115  SER115     -0.1950
     98  CA        -4.6100    3.5020    0.4480 C.3   115  SER115      0.1924
     99  C         -3.3680    4.3850    0.5480 C.2   115  SER115      0.2314
    100  O         -2.4470    4.0070    1.2540 O.2   115  SER115     -0.2863
    101  CB        -4.2220    2.0320    0.1520 C.3   115  SER115      0.2116
    102  OG        -5.3720    1.2200    0.3120 O.3   115  SER115     -0.2180
    103  N         -3.1850    7.4530    2.0110 N.3   117  GLN117     -0.1231
    104  CA        -3.1580    8.3390    3.1900 C.3   117  GLN117      0.1683
    105  C         -3.3280    7.4880    4.4710 C.2   117  GLN117      0.2434
    106  O         -4.2960    7.6260    5.2510 O.2   117  GLN117     -0.2733
    107  CB        -4.1880    9.4380    3.0990 C.3   117  GLN117      0.0380
    108  CG        -3.9370   10.3730    1.8710 C.3   117  GLN117      0.0905
    109  CD        -5.1700   11.2140    1.4950 C.2   117  GLN117      0.2608
    110  OE1       -5.8110   10.9360    0.4620 O.2   117  GLN117     -0.2717
    111  NE2       -5.5370   12.1810    2.3320 N.am  117  GLN117     -0.0878
    112  N         -2.3130    6.6500    4.7240 N.am  118  PRO118     -0.2718
    113  CA        -2.3650    5.7200    5.8690 C.3   118  PRO118      0.1535
    114  C         -2.4050    6.4130    7.1990 C.2   118  PRO118      0.2599
    115  O         -1.9800    7.5710    7.3960 O.2   118  PRO118     -0.2715
    116  CB        -1.0690    4.8630    5.6850 C.3   118  PRO118      0.0310
    117  CG        -0.0990    5.7880    4.9540 C.3   118  PRO118      0.0237
    118  CD        -1.0490    6.4960    3.9610 C.3   118  PRO118      0.0939
    119  N         -3.0290    5.7330    8.1510 N.am  119  GLY119     -0.1941
    120  CA        -3.0310    6.1990    9.5270 C.3   119  GLY119      0.2014
    121  C         -3.9790    7.2980    9.8690 C.2   119  GLY119      0.2640
    122  O         -3.9840    7.7730   11.0110 O.2   119  GLY119     -0.2714
    123  N         -4.8250    7.7370    8.9060 N.am  120  THR120     -0.1936
    124  CA        -5.6200    8.9290    9.1640 C.3   120  THR120      0.2028
    125  C         -6.7400    8.5930   10.2170 C.2   120  THR120      0.2642
    126  O         -6.9410    9.3560   11.2010 O.2   120  THR120     -0.2714
    127  CB        -6.2310    9.5130    7.8320 C.3   120  THR120      0.1808
    128  OG1       -5.2070    9.6430    6.8220 O.3   120  THR120     -0.2208
    129  CG2       -6.9160   10.8990    8.0870 C.3   120  THR120      0.0379
    130  N         -7.4970    7.5360    9.9690 N.am  121  SER121     -0.1949
    131  CA        -8.6120    7.1770   10.9040 C.3   121  SER121      0.1924
    132  C         -8.0380    6.7580   12.3070 C.2   121  SER121      0.2314
    133  O         -8.5130    7.2470   13.3620 O.2   121  SER121     -0.2863
    134  CB        -9.5260    6.1160   10.3040 C.3   121  SER121      0.2116
    135  OG        -8.8220    4.9660    9.9510 O.3   121  SER121     -0.2180
    136  N         -9.0580   -3.7390   13.8020 N.3   134  CYS134     -0.1221
    137  CA        -8.9570   -4.0670   12.4040 C.3   134  CYS134      0.1808
    138  C         -9.6100   -5.4240   12.0720 C.2   134  CYS134      0.2601
    139  O         -9.7780   -6.2720   12.9500 O.2   134  CYS134     -0.2717
    140  CB        -7.4820   -4.0930   11.9750 C.3   134  CYS134      0.0970
    141  SG        -6.4510   -5.4970   12.5610 S.3   134  CYS134     -0.0800
    142  N         -9.9690   -5.6410   10.8050 N.am  135  LEU135     -0.1979
    143  CA       -10.5640   -6.9080   10.3970 C.3   135  LEU135      0.1596
    144  C         -9.5260   -8.0360   10.3580 C.2   135  LEU135      0.2287
    145  O         -8.3620   -7.8100   10.0040 O.2   135  LEU135     -0.2864
    146  CB       -11.2510   -6.8150    9.0220 C.3   135  LEU135      0.0297
    147  CG       -12.5690   -6.0270    8.9380 C.3   135  LEU135      0.0022
    148  CD1      -13.1010   -6.0340    7.4960 C.3   135  LEU135      0.0001
    149  CD2      -13.6620   -6.4980    9.8950 C.3   135  LEU135      0.0001
    150  N         -8.1480  -10.1140    8.3340 N.3   137  LEU137     -0.1245
    151  CA        -8.0100  -10.5000    6.9360 C.3   137  LEU137      0.1561
    152  C         -6.8430  -11.4430    6.6990 C.2   137  LEU137      0.2260
    153  O         -6.9200  -12.3320    5.8530 O.2   137  LEU137     -0.2867
    154  CB        -7.8460   -9.2550    6.0430 C.3   137  LEU137      0.0270
    155  CG        -8.9680   -8.2090    6.0320 C.3   137  LEU137      0.0019
    156  CD1       -8.7670   -7.1970    4.8980 C.3   137  LEU137      0.0001
    157  CD2      -10.3050   -8.9150    5.8650 C.3   137  LEU137      0.0001
    158  N         -5.6490   -4.2820    1.8800 N.3   148  LYS148     -0.1231
    159  CA        -6.3910   -4.4510    3.1500 C.3   148  LYS148      0.1693
    160  C         -7.4110   -3.3170    3.4710 C.2   148  LYS148      0.2592
    161  O         -8.3330   -3.5200    4.3230 O.2   148  LYS148     -0.2718
    162  CB        -5.4220   -4.6290    4.3290 C.3   148  LYS148      0.0285
    163  CG        -4.1580   -3.7820    4.2090 C.3   148  LYS148      0.0035
    164  CD        -3.3530   -3.6330    5.4850 C.3   148  LYS148      0.0206
    165  CE        -2.1420   -2.7410    5.2300 C.3   148  LYS148      0.1093
    166  NZ        -1.4480   -2.4230    6.5070 N.3   148  LYS148     -0.1314
    167  N         -7.3050   -2.1530    2.8000 N.am  149  ASN149     -0.1960
    168  CA        -8.2350   -1.0500    3.0870 C.3   149  ASN149      0.1819
    169  C         -9.4430   -1.1730    2.2100 C.2   149  ASN149      0.2621
    170  O         -9.4020   -0.7880    1.0690 O.2   149  ASN149     -0.2715
    171  CB        -7.5710    0.3140    2.9660 C.3   149  ASN149      0.1195
    172  CG        -6.5550    0.5580    4.0610 C.2   149  ASN149      0.2630
    173  OD1       -6.8940    0.9870    5.1550 O.2   149  ASN149     -0.2716
    174  ND2       -5.3060    0.2730    3.7820 N.am  149  ASN149     -0.0877
    175  N        -10.5330   -1.6860    2.7730 N.am  150  LEU150     -0.1963
    176  CA       -11.7870   -1.9630    2.0160 C.3   150  LEU150      0.1728
    177  C        -12.6480   -0.7420    1.7380 C.2   150  LEU150      0.2617
    178  O        -12.4570    0.3010    2.4100 O.2   150  LEU150     -0.2715
    179  CB       -12.6080   -2.9800    2.8340 C.3   150  LEU150      0.0311
    180  CG       -11.8570   -4.3070    3.1690 C.3   150  LEU150      0.0022
    181  CD1      -12.8040   -5.3290    3.7890 C.3   150  LEU150      0.0001
    182  CD2      -11.1630   -4.8390    1.9200 C.3   150  LEU150      0.0001
    183  N        -13.6200   -0.8610    0.8170 N.am  151  THR151     -0.1937
    184  CA       -14.5950    0.2340    0.5830 C.3   151  THR151      0.2028
    185  C        -15.6450    0.3160    1.6560 C.2   151  THR151      0.2642
    186  O        -15.8260   -0.6260    2.4060 O.2   151  THR151     -0.2714
    187  CB       -15.3360    0.1140   -0.7750 C.3   151  THR151      0.1808
    188  OG1      -16.2370   -0.9800   -0.7780 O.3   151  THR151     -0.2208
    189  CG2      -14.3470   -0.0670   -1.9070 C.3   151  THR151      0.0379
    190  N        -16.3750    1.4210    1.7270 N.am  152  LEU152     -0.1977
    191  CA       -17.4470    1.5900    2.7240 C.3   152  LEU152      0.1596
    192  C        -18.5150    0.5320    2.6270 C.2   152  LEU152      0.2287
    193  O        -19.0020    0.0170    3.6510 O.2   152  LEU152     -0.2864
    194  CB       -18.1860    2.9610    2.5960 C.3   152  LEU152      0.0297
    195  CG       -17.3180    4.2000    2.6750 C.3   152  LEU152      0.0022
    196  CD1      -18.0130    5.5570    2.7320 C.3   152  LEU152      0.0001
    197  CD2      -16.4900    4.0230    3.9100 C.3   152  LEU152      0.0001
    198  N        -17.3230   -2.9000    3.7210 N.3   155  MET155     -0.1245
    199  CA       -17.4450   -2.9260    5.1750 C.3   155  MET155      0.1570
    200  C        -18.8500   -3.2000    5.6750 C.2   155  MET155      0.2261
    201  O        -19.0310   -4.0400    6.5880 O.2   155  MET155     -0.2867
    202  CB       -16.9100   -1.6250    5.8400 C.3   155  MET155      0.0387
    203  CG       -15.4100   -1.3940    5.6780 C.3   155  MET155      0.0595
    204  SD       -14.3330   -2.6460    6.4610 S.3   155  MET155     -0.1393
    205  CE       -14.8210   -2.3890    8.1460 C.3   155  MET155      0.0692
@<TRIPOS>BOND
     1    96    95    1
     2    95    94    1
     3    94    93    1
     4    93    92    1
     5    92    89    1
     6     1     2    1
     7    89    88    1
     8    89    90    1
     9     9     7   am
    10    78    77    1
    11    91    90    2
    12     6     7    1
    13     6     5    1
    14   189   187    1
    15    88    82   am
    16    90    97   am
    17    83    82    2
    18     2     5    1
    19     2     3    1
    20     7     8    2
    21    82    81    1
    22    77    79    1
    23    77    74    1
    24   188   187    1
    25   187   184    1
    26    76    75    2
    27    97    98    1
    28    81    80    1
    29    81    84    1
    30     3     4    2
    31    75    80   am
    32    75    74    1
    33    74    73    1
    34   101   102    1
    35   101    98    1
    36    98    99    1
    37   110   109    2
    38    99   100    2
    39   184   183    1
    40   184   185    1
    41   183   177   am
    42    84    85    1
    43   170   169    2
    44    73    64   am
    45    86    85   ar
    46   109   108    1
    47   109   111   am
    48    85    87   ar
    49   185   190   am
    50   185   186    2
    51   190   191    1
    52   177   176    1
    53   177   178    2
    54   108   107    1
    55   158   159    1
    56   182   180    1
    57   103   104    1
    58   176   175    1
    59   176   179    1
    60   169   175   am
    61   169   168    1
    62    64    65    2
    63    64    63    1
    64   194   195    1
    65   194   191    1
    66   192   191    1
    67   192   193    2
    68   195   196    1
    69   195   197    1
    70   167   168    1
    71   167   160   am
    72   179   180    1
    73   171   168    1
    74   171   172    1
    75    70    68   ar
    76    70    72   ar
    77   107   104    1
    78   159   160    1
    79   159   162    1
    80   180   181    1
    81   104   105    1
    82    68    67   ar
    83    63    62    1
    84    63    66    1
    85   160   161    2
    86   198   199    1
    87    72    71   ar
    88   174   172   am
    89   118   112    1
    90   118   117    1
    91   172   173    2
    92    67    66    1
    93    67    69   ar
    94   163   162    1
    95   163   164    1
    96   105   112   am
    97   105   106    2
    98    71    69   ar
    99   112   113    1
   100   156   155    1
   101   117   116    1
   102   199   200    1
   103   199   202    1
   104   165   164    1
   105   165   166    1
   106   200   201    2
   107   203   202    1
   108   203   204    1
   109   116   113    1
   110   153   152    2
   111   157   155    1
   112   113   114    1
   113   155   154    1
   114    61    60    2
   115   154   151    1
   116   204   205    1
   117   152   151    1
   118   128   127    1
   119    60    59    1
   120   151   150    1
   121   114   115    2
   122   114   119   am
   123    56    54    1
   124    41    38    1
   125   148   147    1
   126   127   129    1
   127   127   124    1
   128   119   120    1
   129    59    58    1
   130    48    47   ar
   131    49    47   ar
   132    57    55    1
   133    58    52   am
   134    54    55    1
   135    54    51    1
   136   123   124    1
   137   123   121   am
   138   147   146    1
   139   147   149    1
   140    38    37    1
   141    38    39    1
   142   146   143    1
   143    47    46    1
   144   124   125    1
   145    53    52    2
   146    52    51    1
   147    37    32   am
   148   120   121    1
   149    39    40    2
   150    39    42   am
   151    51    50    1
   152   121   122    2
   153   135   134    1
   154   130   125   am
   155   130   131    1
   156   145   144    2
   157    42    43    1
   158   125   126    2
   159   134   131    1
   160   144   143    1
   161   143   142    1
   162    32    31    1
   163    32    33    2
   164    35    34    1
   165    46    43    1
   166   142   138   am
   167    43    44    1
   168    31    34    1
   169    31    30    1
   170   131   132    1
   171    25    24    2
   172    34    36    1
   173    21    20    1
   174    30    24   am
   175    28    27    1
   176    24    23    1
   177    26    27    1
   178    26    23    1
   179   140   137    1
   180   140   141    1
   181   138   137    1
   182   138   139    2
   183    18    20   ar
   184    18    16   ar
   185   132   133    2
   186    44    45    2
   187   137   136    1
   188    20    19   ar
   189    27    29    1
   190    23    22    1
   191    16    15   ar
   192    22    12   am
   193    19    17   ar
   194    15    17   ar
   195    15    14    1
   196    12    13    2
   197    12    11    1
   198    11    14    1
   199    11    10    1
