@<TRIPOS>MOLECULE
tmp/5nfoA00.pdb
 147 141 0 0 0
SMALL
GASTEIGER

@<TRIPOS>ATOM
      1  N         -0.0220   10.8230    6.8340 N.3   128  TYR128     -0.1241
      2  CA        -0.4590   11.2060    5.4940 C.3   128  TYR128      0.1605
      3  C         -0.7040   12.7050    5.4970 C.2   128  TYR128      0.2264
      4  O         -1.6260   13.1780    6.1650 O.2   128  TYR128     -0.2867
      5  CB        -1.7290   10.4610    5.0880 C.3   128  TYR128      0.0534
      6  CG        -2.0710   10.5170    3.6070 C.ar  128  TYR128     -0.0201
      7  CD1       -1.2530   11.1730    2.6870 C.ar  128  TYR128     -0.0009
      8  CD2       -3.2240    9.9110    3.1310 C.ar  128  TYR128     -0.0009
      9  CE1       -1.5750   11.2080    1.3430 C.ar  128  TYR128      0.0417
     10  CE2       -3.5550    9.9450    1.7970 C.ar  128  TYR128      0.0417
     11  CZ        -2.7340   10.5900    0.9090 C.ar  128  TYR128      0.1957
     12  OH        -3.0770   10.6150   -0.4190 O.3   128  TYR128     -0.2866
     13  N         -0.5370   16.2030   -1.7070 N.3   168  TRP168     -0.1241
     14  CA        -0.6810   14.8690   -1.1360 C.3   168  TRP168      0.1605
     15  C          0.6890   14.2330   -0.9790 C.2   168  TRP168      0.2264
     16  O          1.4440   14.1320   -1.9490 O.2   168  TRP168     -0.2867
     17  CB        -1.5520   13.9620   -2.0060 C.3   168  TRP168      0.0550
     18  CG        -2.9040   14.5110   -2.3620 C.ar  168  TRP168      0.0003
     19  CD1       -3.2050   15.3270   -3.4110 C.ar  168  TRP168      0.0946
     20  CD2       -4.1420   14.2510   -1.6880 C.ar  168  TRP168      0.0152
     21  NE1       -4.5510   15.6040   -3.4270 N.ar  168  TRP168     -0.2442
     22  CE2       -5.1500   14.9540   -2.3810 C.ar  168  TRP168      0.0810
     23  CE3       -4.4970   13.4960   -0.5640 C.ar  168  TRP168      0.0012
     24  CZ2       -6.4860   14.9290   -1.9870 C.ar  168  TRP168      0.0191
     25  CZ3       -5.8250   13.4710   -0.1760 C.ar  168  TRP168      0.0001
     26  CH2       -6.8040   14.1820   -0.8840 C.ar  168  TRP168      0.0015
     27  N         -6.8450    5.7480    0.9020 N.3   176  THR176     -0.1218
     28  CA        -8.0870    6.5100    0.8570 C.3   176  THR176      0.1862
     29  C         -9.2360    5.5800    0.4860 C.2   176  THR176      0.2287
     30  O         -9.2210    4.9580   -0.5820 O.2   176  THR176     -0.2866
     31  CB        -7.9900    7.6630   -0.1380 C.3   176  THR176      0.1770
     32  OG1       -7.0880    8.6470    0.3820 O.3   176  THR176     -0.2211
     33  CG2       -9.3590    8.3080   -0.3510 C.3   176  THR176      0.0375
     34  N        -15.2120    6.5600   -1.8700 N.3   179  HIS179     -0.1241
     35  CA       -16.0180    7.7560   -1.6560 C.3   179  HIS179      0.1621
     36  C        -16.1710    8.4390   -3.0100 C.2   179  HIS179      0.2264
     37  O        -15.5030    8.0780   -3.9800 O.2   179  HIS179     -0.2867
     38  CB       -15.3550    8.7060   -0.6610 C.3   179  HIS179      0.0745
     39  CG       -14.1640    9.4010   -1.2330 C.ar  179  HIS179      0.0817
     40  ND1      -12.9530    8.7670   -1.4120 N.ar  179  HIS179     -0.2268
     41  CD2      -14.0130   10.6520   -1.7260 C.ar  179  HIS179      0.1154
     42  CE1      -12.0990    9.6060   -1.9700 C.ar  179  HIS179      0.1986
     43  NE2      -12.7180   10.7560   -2.1730 N.ar  179  HIS179     -0.2212
     44  N        -16.7720   12.6190   -4.7560 N.3   181  ASP181     -0.1239
     45  CA       -16.6820   14.0560   -4.5370 C.3   181  ASP181      0.1674
     46  C        -17.5510   14.7760   -5.5580 C.2   181  ASP181      0.2266
     47  O        -17.7350   14.2920   -6.6780 O.2   181  ASP181     -0.2867
     48  CB       -15.2400   14.5550   -4.6750 C.3   181  ASP181      0.1410
     49  CG       -14.2750   13.8190   -3.7770 C.2   181  ASP181      0.3668
     50  OD1      -14.4180   13.8930   -2.5450 O.co2 181  ASP181     -0.2456
     51  OD2      -13.3640   13.1580   -4.3000 O.co2 181  ASP181     -0.2456
     52  N        -12.0260   16.6150  -10.9690 N.3   185  ASN185     -0.1240
     53  CA       -10.7180   16.4510  -10.3610 C.3   185  ASN185      0.1653
     54  C         -9.6810   16.2280  -11.4500 C.2   185  ASN185      0.2266
     55  O         -9.8330   15.3310  -12.2850 O.2   185  ASN185     -0.2867
     56  CB       -10.7450   15.2770   -9.3840 C.3   185  ASN185      0.1155
     57  CG        -9.5320   15.2250   -8.4820 C.2   185  ASN185      0.2627
     58  OD1       -8.5510   15.9460   -8.6790 O.2   185  ASN185     -0.2716
     59  ND2       -9.5920   14.3580   -7.4830 N.am  185  ASN185     -0.0877
     60  N         -5.9920   15.1760  -11.2440 N.3   187  TYR187     -0.1241
     61  CA        -5.1050   14.6190  -10.2370 C.3   187  TYR187      0.1605
     62  C         -3.7380   14.3660  -10.8600 C.2   187  TYR187      0.2264
     63  O         -3.6110   13.5460  -11.7750 O.2   187  TYR187     -0.2867
     64  CB        -5.7050   13.3330   -9.6700 C.3   187  TYR187      0.0534
     65  CG        -5.1030   12.9340   -8.3510 C.ar  187  TYR187     -0.0201
     66  CD1       -3.9110   12.2360   -8.3060 C.ar  187  TYR187     -0.0009
     67  CD2       -5.7190   13.2650   -7.1560 C.ar  187  TYR187     -0.0009
     68  CE1       -3.3400   11.8690   -7.1110 C.ar  187  TYR187      0.0417
     69  CE2       -5.1590   12.9060   -5.9490 C.ar  187  TYR187      0.0417
     70  CZ        -3.9670   12.2060   -5.9340 C.ar  187  TYR187      0.1957
     71  OH        -3.3990   11.8410   -4.7420 O.3   187  TYR187     -0.2866
     72  N          0.1290    6.2730   -7.9970 N.3   194  LYS194     -0.1245
     73  CA        -1.1520    6.1440   -7.3250 C.3   194  LYS194      0.1561
     74  C         -1.9500    5.0450   -8.0010 C.2   194  LYS194      0.2260
     75  O         -1.9460    4.9360   -9.2270 O.2   194  LYS194     -0.2867
     76  CB        -1.9230    7.4570   -7.3960 C.3   194  LYS194      0.0271
     77  CG        -1.3460    8.5530   -6.5350 C.3   194  LYS194      0.0035
     78  CD        -1.9950    8.5540   -5.1740 C.3   194  LYS194      0.0206
     79  CE        -1.4530    9.6580   -4.3060 C.3   194  LYS194      0.1093
     80  NZ        -2.1960    9.7270   -3.0210 N.3   194  LYS194     -0.1314
     81  N         -5.6950    3.7160   -8.4640 N.3   196  PHE196     -0.1241
     82  CA        -7.0840    4.1170   -8.3640 C.3   196  PHE196      0.1605
     83  C         -7.9830    2.9380   -8.7040 C.2   196  PHE196      0.2264
     84  O         -7.7880    2.2790   -9.7300 O.2   196  PHE196     -0.2867
     85  CB        -7.3640    5.2760   -9.3240 C.3   196  PHE196      0.0534
     86  CG        -6.8400    6.6120   -8.8560 C.ar  196  PHE196     -0.0203
     87  CD1       -5.5740    7.0450   -9.2130 C.ar  196  PHE196     -0.0042
     88  CD2       -7.6260    7.4430   -8.0860 C.ar  196  PHE196     -0.0042
     89  CE1       -5.1060    8.2760   -8.7930 C.ar  196  PHE196     -0.0003
     90  CE2       -7.1660    8.6650   -7.6640 C.ar  196  PHE196     -0.0003
     91  CZ        -5.9010    9.0830   -8.0180 C.ar  196  PHE196     -0.0000
     92  N        -10.4900   12.6220  -13.0670 N.3   272  LEU272     -0.1245
     93  CA       -11.4130   11.8080  -12.2960 C.3   272  LEU272      0.1561
     94  C        -12.7630   12.5150  -12.2940 C.2   272  LEU272      0.2260
     95  O        -12.8970   13.5640  -11.6500 O.2   272  LEU272     -0.2867
     96  CB       -10.8850   11.6190  -10.8780 C.3   272  LEU272      0.0270
     97  CG       -11.7600   11.0410   -9.7650 C.3   272  LEU272      0.0019
     98  CD1      -12.6130    9.8670  -10.2110 C.3   272  LEU272      0.0001
     99  CD2      -10.8350   10.6230   -8.6360 C.3   272  LEU272      0.0001
    100  N        -14.2100    6.6120   -5.9050 N.3   278  HIS278     -0.1241
    101  CA       -12.8100    6.2440   -6.0330 C.3   278  HIS278      0.1621
    102  C        -12.2160    5.8350   -4.6950 C.2   278  HIS278      0.2264
    103  O        -12.5990    6.3210   -3.6250 O.2   278  HIS278     -0.2867
    104  CB       -11.9600    7.3600   -6.6750 C.3   278  HIS278      0.0745
    105  CG       -12.1010    8.7020   -6.0340 C.ar  278  HIS278      0.0817
    106  ND1      -13.2170    9.4910   -6.2020 N.ar  278  HIS278     -0.2268
    107  CD2      -11.2430    9.4220   -5.2740 C.ar  278  HIS278      0.1154
    108  CE1      -13.0540   10.6270   -5.5510 C.ar  278  HIS278      0.1986
    109  NE2      -11.8630   10.6110   -4.9790 N.ar  278  HIS278     -0.2212
    110  N         -8.1260    4.9600   -3.2910 N.3   280  VAL280     -0.1245
    111  CA        -6.7830    5.3420   -3.7150 C.3   280  VAL280      0.1561
    112  C         -5.7320    4.6990   -2.8180 C.2   280  VAL280      0.2260
    113  O         -5.8330    4.7310   -1.5870 O.2   280  VAL280     -0.2867
    114  CB        -6.5920    6.8690   -3.7490 C.3   280  VAL280      0.0252
    115  CG1       -5.3020    7.2050   -4.5060 C.3   280  VAL280      0.0019
    116  CG2       -7.7880    7.5420   -4.4120 C.3   280  VAL280      0.0019
    117  N         -1.2590    4.4440   -2.6770 N.3   282  GLN282     -0.1245
    118  CA        -0.0920    5.1670   -3.1620 C.3   282  GLN282      0.1566
    119  C          1.1780    4.4080   -2.8260 C.2   282  GLN282      0.2260
    120  O          1.2250    3.5720   -1.9210 O.2   282  GLN282     -0.2867
    121  CB        -0.0020    6.5750   -2.5650 C.3   282  GLN282      0.0367
    122  CG         0.0270    6.5550   -1.0550 C.3   282  GLN282      0.0905
    123  CD         0.0720    7.9320   -0.4440 C.2   282  GLN282      0.2608
    124  OE1        0.7980    8.8150   -0.9070 O.2   282  GLN282     -0.2717
    125  NE2       -0.7080    8.1240    0.6130 N.am  282  GLN282     -0.0878
    126  N         -3.5770   17.8730   -6.7460 N.3   290  ASN290     -0.1240
    127  CA        -4.8230   17.7880   -7.4960 C.3   290  ASN290      0.1653
    128  C         -5.5500   19.1210   -7.4710 C.2   290  ASN290      0.2266
    129  O         -5.4020   19.9190   -6.5460 O.2   290  ASN290     -0.2867
    130  CB        -5.7300   16.6570   -6.9880 C.3   290  ASN290      0.1155
    131  CG        -6.6730   17.0930   -5.8850 C.2   290  ASN290      0.2627
    132  OD1       -6.2490   17.4180   -4.7840 O.2   290  ASN290     -0.2716
    133  ND2       -7.9660   17.0550   -6.1670 N.am  290  ASN290     -0.0877
    134  N         -9.3140   20.8250   -7.8530 N.3   292  TRP292     -0.1241
    135  CA       -10.7380   20.5630   -7.7250 C.3   292  TRP292      0.1605
    136  C        -11.5110   21.7310   -8.3180 C.2   292  TRP292      0.2264
    137  O        -11.3400   22.8790   -7.8920 O.2   292  TRP292     -0.2867
    138  CB       -11.1250   20.3460   -6.2630 C.3   292  TRP292      0.0550
    139  CG       -11.1890   18.9190   -5.8420 C.ar  292  TRP292      0.0003
    140  CD1      -11.3520   17.8230   -6.6410 C.ar  292  TRP292      0.0946
    141  CD2      -11.0910   18.4290   -4.5050 C.ar  292  TRP292      0.0152
    142  NE1      -11.3580   16.6810   -5.8810 N.ar  292  TRP292     -0.2442
    143  CE2      -11.2000   17.0250   -4.5650 C.ar  292  TRP292      0.0810
    144  CE3      -10.9150   19.0410   -3.2630 C.ar  292  TRP292      0.0012
    145  CZ2      -11.1380   16.2210   -3.4270 C.ar  292  TRP292      0.0191
    146  CZ3      -10.8570   18.2450   -2.1330 C.ar  292  TRP292      0.0001
    147  CH2      -10.9660   16.8480   -2.2210 C.ar  292  TRP292      0.0015
@<TRIPOS>BOND
     1    92    93    1
     2    93    94    1
     3    93    96    1
     4    94    95    2
     5    55    54    2
     6    63    62    2
     7    54    53    1
     8    60    61    1
     9    52    53    1
    10    96    97    1
    11    62    61    1
    12    53    56    1
    13    61    64    1
    14    98    97    1
    15    97    99    1
    16    84    83    2
    17    64    65    1
    18    56    57    1
    19    85    86    1
    20    85    82    1
    21    75    74    2
    22    87    86   ar
    23    87    89   ar
    24    86    88   ar
    25    89    91   ar
    26    83    82    1
    27    58    57    2
    28    57    59   am
    29    81    82    1
    30    65    66   ar
    31    65    67   ar
    32   136   137    2
    33   136   135    1
    34    66    68   ar
    35    88    90   ar
    36    91    90   ar
    37    74    73    1
    38    72    73    1
    39   134   135    1
    40   135   138    1
    41   127   128    1
    42   127   130    1
    43   127   126    1
    44   128   129    2
    45    76    73    1
    46    76    77    1
    47    67    69   ar
    48    68    70   ar
    49   130   131    1
    50    47    46    2
    51   104   105    1
    52   104   101    1
    53   140   142   ar
    54   140   139   ar
    55    77    78    1
    56   138   139    1
    57   106   105   ar
    58   106   108   ar
    59   133   131   am
    60   105   107   ar
    61   101   100    1
    62   101   102    1
    63    69    70   ar
    64    70    71    1
    65   131   132    2
    66   142   143   ar
    67   139   141   ar
    68    46    45    1
    69   108   109   ar
    70   107   109   ar
    71    78    79    1
    72    44    45    1
    73   102   103    2
    74    48    45    1
    75    48    49    1
    76   143   141   ar
    77   143   145   ar
    78   115   114    1
    79   141   144   ar
    80   116   114    1
    81    79    80    1
    82    51    49   ar
    83    37    36    2
    84    49    50   ar
    85   114   111    1
    86   111   110    1
    87   111   112    1
    88    21    19   ar
    89    21    22   ar
    90   145   147   ar
    91    19    18   ar
    92   144   146   ar
    93   118   119    1
    94   118   117    1
    95   118   121    1
    96    36    35    1
    97   119   120    2
    98   112   113    2
    99   121   122    1
   100    22    24   ar
   101    22    20   ar
   102    18    17    1
   103    18    20   ar
   104   147   146   ar
   105    43    42   ar
   106    43    41   ar
   107    17    14    1
   108    24    26   ar
   109    42    40   ar
   110    16    15    2
   111    34    35    1
   112    41    39   ar
   113    13    14    1
   114    20    23   ar
   115    35    38    1
   116    40    39   ar
   117    39    38    1
   118    14    15    1
   119   122   123    1
   120   124   123    2
   121    26    25   ar
   122    30    29    2
   123    23    25   ar
   124   123   125   am
   125    12    11    1
   126    33    31    1
   127    31    32    1
   128    31    28    1
   129    29    28    1
   130    28    27    1
   131    11     9   ar
   132    11    10   ar
   133     9     7   ar
   134    10     8   ar
   135     7     6   ar
   136     8     6   ar
   137     6     5    1
   138     5     2    1
   139     2     3    1
   140     2     1    1
   141     3     4    2
