@<TRIPOS>MOLECULE
tmp/5nfpA01.pdb
 217 203 0 0 0
SMALL
GASTEIGER

@<TRIPOS>ATOM
      1  N          5.6630  -46.6960   -2.6000 N.3    30  ILE30      -0.1231
      2  CA         4.6930  -46.5150   -3.6940 C.3    30  ILE30       0.1692
      3  C          4.3530  -45.0280   -3.8760 C.2    30  ILE30       0.2591
      4  O          4.3860  -44.5340   -5.0000 O.2    30  ILE30      -0.2718
      5  CB         3.4340  -47.4270   -3.5110 C.3    30  ILE30       0.0266
      6  CG1        3.8150  -48.9200   -3.7210 C.3    30  ILE30       0.0019
      7  CG2        2.2700  -47.0180   -4.4700 C.3    30  ILE30       0.0020
      8  CD1        2.7870  -49.9400   -3.2410 C.3    30  ILE30       0.0001
      9  N          4.0870  -44.3080   -2.7680 N.am   31  MET31      -0.1979
     10  CA         3.7700  -42.8650   -2.8220 C.3    31  MET31       0.1605
     11  C          4.9230  -42.0610   -3.4210 C.2    31  MET31       0.2287
     12  O          4.6880  -41.1820   -4.2520 O.2    31  MET31      -0.2864
     13  CB         3.4230  -42.3300   -1.4270 C.3    31  MET31       0.0413
     14  CG         2.0870  -42.8410   -0.9120 C.3    31  MET31       0.0598
     15  SD         1.7860  -42.4140    0.8160 S.3    31  MET31      -0.1393
     16  CE         1.3530  -40.7550    0.6570 C.3    31  MET31       0.0692
     17  N          5.3120  -42.8090   -7.1530 N.3    34  LEU34      -0.1231
     18  CA         4.2030  -42.1490   -7.8620 C.3    34  LEU34       0.1693
     19  C          4.3980  -40.6490   -8.0000 C.2    34  LEU34       0.2592
     20  O          4.0150  -40.1000   -9.0240 O.2    34  LEU34      -0.2718
     21  CB         2.8260  -42.4870   -7.2530 C.3    34  LEU34       0.0284
     22  CG         2.3740  -43.9530   -7.3530 C.3    34  LEU34       0.0019
     23  CD1        1.0610  -44.1580   -6.6180 C.3    34  LEU34       0.0001
     24  CD2        2.2420  -44.4070   -8.8040 C.3    34  LEU34       0.0001
     25  N          5.0190  -39.9830   -7.0010 N.am   35  ASN35      -0.1974
     26  CA         5.2840  -38.5390   -7.1220 C.3    35  ASN35       0.1688
     27  C          6.2720  -38.2850   -8.2500 C.2    35  ASN35       0.2292
     28  O          6.0380  -37.3800   -9.0430 O.2    35  ASN35      -0.2864
     29  CB         5.7570  -37.9190   -5.7950 C.3    35  ASN35       0.1181
     30  CG         4.6530  -37.8210   -4.7770 C.2    35  ASN35       0.2629
     31  OD1        3.4720  -37.7180   -5.1200 O.2    35  ASN35      -0.2716
     32  ND2        5.0020  -37.7930   -3.5010 N.am   35  ASN35      -0.0877
     33  N          6.7820  -40.2930  -10.8960 N.3    37  LEU37      -0.1231
     34  CA         6.0040  -40.5920  -12.0980 C.3    37  LEU37       0.1693
     35  C          5.0990  -39.4040  -12.4650 C.2    37  LEU37       0.2592
     36  O          5.0470  -39.0110  -13.6280 O.2    37  LEU37      -0.2718
     37  CB         5.1770  -41.8900  -11.9130 C.3    37  LEU37       0.0284
     38  CG         4.2190  -42.2820  -13.0700 C.3    37  LEU37       0.0019
     39  CD1        5.0050  -42.5820  -14.3980 C.3    37  LEU37       0.0001
     40  CD2        3.3350  -43.4460  -12.6530 C.3    37  LEU37       0.0001
     41  N          4.4380  -38.8310  -11.4540 N.am   38  GLY38      -0.1957
     42  CA         3.5810  -37.6670  -11.6030 C.3    38  GLY38       0.1869
     43  C          4.2900  -36.4640  -12.1990 C.2    38  GLY38       0.2309
     44  O          3.7160  -35.7590  -13.0190 O.2    38  GLY38      -0.2863
     45  N          4.7770  -37.2100  -15.8420 N.3    41  GLN41      -0.1245
     46  CA         3.4760  -37.1140  -16.5190 C.3    41  GLN41       0.1566
     47  C          3.0730  -35.6460  -16.6730 C.2    41  GLN41       0.2260
     48  O          2.4680  -35.2880  -17.6840 O.2    41  GLN41      -0.2867
     49  CB         2.3850  -37.8610  -15.7360 C.3    41  GLN41       0.0367
     50  CG         2.4600  -39.3930  -15.8760 C.3    41  GLN41       0.0905
     51  CD         1.4330  -40.1000  -15.0110 C.2    41  GLN41       0.2608
     52  OE1        1.3810  -41.3240  -14.9510 O.2    41  GLN41      -0.2717
     53  NE2        0.5500  -39.3550  -14.3750 N.am   41  GLN41      -0.0878
     54  N         -3.9770  -29.7000  -12.8710 N.3    71  TRP71      -0.1227
     55  CA        -2.9930  -30.8020  -12.9080 C.3    71  TRP71       0.1737
     56  C         -3.4960  -32.1090  -12.2630 C.2    71  TRP71       0.2595
     57  O         -3.4310  -33.1520  -12.9070 O.2    71  TRP71      -0.2718
     58  CB        -1.6340  -30.3600  -12.3220 C.3    71  TRP71       0.0564
     59  CG        -1.5600  -30.3580  -10.8190 C.ar   71  TRP71       0.0003
     60  CD1       -2.0290  -29.4030   -9.9750 C.ar   71  TRP71       0.0946
     61  CD2       -1.0290  -31.4020   -9.9900 C.ar   71  TRP71       0.0152
     62  NE1       -1.8270  -29.7860   -8.6680 N.ar   71  TRP71      -0.2442
     63  CE2       -1.1520  -30.9780   -8.6520 C.ar   71  TRP71       0.0810
     64  CE3       -0.4730  -32.6680  -10.2540 C.ar   71  TRP71       0.0012
     65  CZ2       -0.6980  -31.7480   -7.5740 C.ar   71  TRP71       0.0191
     66  CZ3       -0.0520  -33.4500   -9.1800 C.ar   71  TRP71       0.0001
     67  CH2       -0.1550  -32.9820   -7.8600 C.ar   71  TRP71       0.0015
     68  N         -4.0250  -32.0480  -11.0220 N.am   72  MET72      -0.1979
     69  CA        -4.5030  -33.2440  -10.3150 C.3    72  MET72       0.1605
     70  C         -5.7200  -33.8780  -11.0340 C.2    72  MET72       0.2287
     71  O         -5.7930  -35.1060  -11.1250 O.2    72  MET72      -0.2864
     72  CB        -4.8320  -32.9230   -8.8420 C.3    72  MET72       0.0413
     73  CG        -5.2350  -34.1770   -8.0170 C.3    72  MET72       0.0598
     74  SD        -3.8890  -35.3990   -7.9330 S.3    72  MET72      -0.1393
     75  CE        -2.9560  -34.7290   -6.5450 C.3    72  MET72       0.0692
     76  N         -4.3870  -35.7690  -14.1090 N.3    75  MET75      -0.1230
     77  CA        -3.7030  -37.0030  -13.7010 C.3    75  MET75       0.1702
     78  C         -4.6650  -38.0660  -13.2680 C.2    75  MET75       0.2592
     79  O         -4.4960  -39.2070  -13.6780 O.2    75  MET75      -0.2718
     80  CB        -2.6670  -36.7640  -12.5950 C.3    75  MET75       0.0401
     81  CG        -1.6300  -35.7240  -12.9250 C.3    75  MET75       0.0596
     82  SD        -0.4420  -36.2900  -14.1380 S.3    75  MET75      -0.1393
     83  CE        -1.1570  -35.6790  -15.6320 C.3    75  MET75       0.0692
     84  N         -5.6470  -37.7140  -12.4110 N.am   76  ALA76      -0.1980
     85  CA        -6.6200  -38.6800  -11.9100 C.3    76  ALA76       0.1597
     86  C         -7.5480  -39.1840  -13.0160 C.2    76  ALA76       0.2287
     87  O         -7.9510  -40.3570  -13.0030 O.2    76  ALA76      -0.2864
     88  CB        -7.4320  -38.0690  -10.7670 C.3    76  ALA76       0.0319
     89  N         -5.5490  -41.5450  -15.2680 N.3    79  LEU79      -0.1245
     90  CA        -5.3680  -42.7680  -14.4660 C.3    79  LEU79       0.1561
     91  C         -6.6540  -43.6070  -14.4780 C.2    79  LEU79       0.2260
     92  O         -6.5970  -44.8380  -14.6130 O.2    79  LEU79      -0.2867
     93  CB        -4.9780  -42.4120  -13.0230 C.3    79  LEU79       0.0270
     94  CG        -5.1450  -43.5080  -11.9560 C.3    79  LEU79       0.0019
     95  CD1       -4.1390  -44.6310  -12.1390 C.3    79  LEU79       0.0001
     96  CD2       -5.0210  -42.9250  -10.5960 C.3    79  LEU79       0.0001
     97  N         -6.8180  -45.3580  -17.9060 N.3    82  ARG82      -0.1245
     98  CA        -5.8700  -46.4860  -18.0020 C.3    82  ARG82       0.1563
     99  C         -6.3570  -47.6710  -17.1830 C.2    82  ARG82       0.2260
    100  O         -6.2100  -48.8060  -17.6260 O.2    82  ARG82      -0.2867
    101  CB        -4.4530  -46.1040  -17.5310 C.3    82  ARG82       0.0307
    102  CG        -3.7380  -45.1030  -18.4210 C.3    82  ARG82       0.0489
    103  CD        -2.2600  -44.9160  -18.0720 C.3    82  ARG82       0.2205
    104  NE        -1.9840  -44.5410  -16.6720 N.pl3  82  ARG82      -0.0865
    105  CZ        -1.9800  -43.2960  -16.1950 C.cat  82  ARG82       0.5346
    106  NH1       -2.3320  -42.2770  -16.9700 N.pl3  82  ARG82       0.1354
    107  NH2       -1.6580  -43.0660  -14.9320 N.pl3  82  ARG82       0.1354
    108  N         -1.5100  -47.1420  -12.4950 N.3    94  PHE94      -0.1241
    109  CA        -0.6840  -45.9230  -12.5160 C.3    94  PHE94       0.1605
    110  C          0.2960  -45.9680  -13.6840 C.2    94  PHE94       0.2264
    111  O          0.4430  -44.9920  -14.4190 O.2    94  PHE94      -0.2867
    112  CB         0.0420  -45.7360  -11.1780 C.3    94  PHE94       0.0534
    113  CG        -0.8580  -45.2530  -10.0660 C.ar   94  PHE94      -0.0203
    114  CD1       -1.1620  -43.8980   -9.9310 C.ar   94  PHE94      -0.0042
    115  CD2       -1.3600  -46.1410   -9.1200 C.ar   94  PHE94      -0.0042
    116  CE1       -1.9680  -43.4470   -8.8800 C.ar   94  PHE94      -0.0003
    117  CE2       -2.1710  -45.6880   -8.0750 C.ar   94  PHE94      -0.0003
    118  CZ        -2.4970  -44.3540   -7.9830 C.ar   94  PHE94      -0.0000
    119  N         -1.9580  -51.1260   -8.7120 N.3   100  ILE100     -0.1245
    120  CA        -2.3810  -51.3320   -7.3280 C.3   100  ILE100      0.1561
    121  C         -3.4740  -52.4010   -7.3370 C.2   100  ILE100      0.2260
    122  O         -4.6300  -52.1180   -7.6740 O.2   100  ILE100     -0.2867
    123  CB        -2.8000  -50.0300   -6.5640 C.3   100  ILE100      0.0252
    124  CG1       -1.6940  -48.9360   -6.5770 C.3   100  ILE100      0.0019
    125  CG2       -3.2770  -50.3390   -5.1200 C.3   100  ILE100      0.0019
    126  CD1       -0.2340  -49.3420   -6.2020 C.3   100  ILE100      0.0001
    127  N         -3.5020  -47.5190    2.1560 N.3   110  MET110     -0.1245
    128  CA        -3.5710  -47.5570    0.6950 C.3   110  MET110      0.1570
    129  C         -4.9840  -47.2710    0.2040 C.2   110  MET110      0.2261
    130  O         -5.1560  -46.3920   -0.6320 O.2   110  MET110     -0.2867
    131  CB        -3.1140  -48.9160    0.1450 C.3   110  MET110      0.0387
    132  CG        -1.7210  -48.9010   -0.4190 C.3   110  MET110      0.0595
    133  SD        -1.4590  -47.8330   -1.8610 S.3   110  MET110     -0.1393
    134  CE        -0.0490  -47.0300   -1.3250 C.3   110  MET110      0.0692
    135  N         -6.7180  -43.6000    0.2620 N.3   113  GLN113     -0.1231
    136  CA        -6.1900  -42.7030   -0.7640 C.3   113  GLN113      0.1698
    137  C         -6.7360  -43.1420   -2.1420 C.2   113  GLN113      0.2592
    138  O         -7.2500  -42.3180   -2.9020 O.2   113  GLN113     -0.2718
    139  CB        -4.6390  -42.6960   -0.7400 C.3   113  GLN113      0.0381
    140  CG        -4.0420  -42.3880    0.6480 C.3   113  GLN113      0.0905
    141  CD        -2.5320  -42.3480    0.6530 C.2   113  GLN113      0.2608
    142  OE1       -1.9200  -41.3150    0.3830 O.2   113  GLN113     -0.2717
    143  NE2       -1.8930  -43.4540    1.0150 N.am  113  GLN113     -0.0878
    144  N         -6.7140  -44.4580   -2.3970 N.am  114  CYS114     -0.1970
    145  CA        -7.0970  -45.0810   -3.6630 C.3   114  CYS114      0.1712
    146  C         -8.5950  -45.0500   -3.9990 C.2   114  CYS114      0.2296
    147  O         -8.9180  -45.0190   -5.1860 O.2   114  CYS114     -0.2864
    148  CB        -6.5510  -46.4990   -3.7300 C.3   114  CYS114      0.0983
    149  SG        -4.7530  -46.5720   -3.9280 S.3   114  CYS114     -0.0798
    150  N         -9.7880  -42.3500   -6.4620 N.3   117  MET117     -0.1245
    151  CA        -9.2990  -42.6170   -7.8160 C.3   117  MET117      0.1570
    152  C        -10.0280  -43.8000   -8.4530 C.2   117  MET117      0.2261
    153  O        -10.3390  -43.7510   -9.6460 O.2   117  MET117     -0.2867
    154  CB        -7.7790  -42.7980   -7.8140 C.3   117  MET117      0.0387
    155  CG        -7.0400  -41.5040   -7.5390 C.3   117  MET117      0.0595
    156  SD        -5.2600  -41.7090   -7.3400 S.3   117  MET117     -0.1393
    157  CE        -5.1820  -42.3350   -5.6630 C.3   117  MET117      0.0692
    158  N         -7.9500  -35.7400   -3.1600 N.3   203  LEU203     -0.1245
    159  CA        -6.5670  -36.0620   -3.5380 C.3   203  LEU203      0.1561
    160  C         -5.5790  -34.9670   -3.1180 C.2   203  LEU203      0.2260
    161  O         -4.4840  -35.2850   -2.6650 O.2   203  LEU203     -0.2867
    162  CB        -6.4510  -36.3530   -5.0410 C.3   203  LEU203      0.0270
    163  CG        -7.2800  -37.5390   -5.5690 C.3   203  LEU203      0.0019
    164  CD1       -7.0280  -37.7520   -7.0380 C.3   203  LEU203      0.0001
    165  CD2       -7.0230  -38.8170   -4.7570 C.3   203  LEU203      0.0001
    166  N         -4.5130  -35.0660    0.6660 N.3   206  TYR206     -0.1227
    167  CA        -3.3760  -35.9760    0.9030 C.3   206  TYR206      0.1736
    168  C         -2.0890  -35.3980    0.3160 C.2   206  TYR206      0.2595
    169  O         -1.0390  -35.4140    0.9590 O.2   206  TYR206     -0.2718
    170  CB        -3.6140  -37.3700    0.2820 C.3   206  TYR206      0.0548
    171  CG        -4.6940  -38.1890    0.9440 C.ar  206  TYR206     -0.0200
    172  CD1       -4.5830  -38.5790    2.2760 C.ar  206  TYR206     -0.0009
    173  CD2       -5.7820  -38.6660    0.2140 C.ar  206  TYR206     -0.0009
    174  CE1       -5.5610  -39.3670    2.8830 C.ar  206  TYR206      0.0417
    175  CE2       -6.7700  -39.4480    0.8140 C.ar  206  TYR206      0.0417
    176  CZ        -6.6470  -39.8060    2.1450 C.ar  206  TYR206      0.1957
    177  OH        -7.6130  -40.5690    2.7560 O.3   206  TYR206     -0.2866
    178  N         -2.1800  -34.8860   -0.9110 N.am  207  CYS207     -0.1970
    179  CA        -1.0490  -34.3050   -1.6160 C.3   207  CYS207      0.1712
    180  C         -0.4180  -33.1420   -0.8250 C.2   207  CYS207      0.2296
    181  O          0.7920  -33.1440   -0.5860 O.2   207  CYS207     -0.2864
    182  CB        -1.4570  -33.8730   -3.0190 C.3   207  CYS207      0.0983
    183  SG        -0.0960  -33.1840   -3.9780 S.3   207  CYS207     -0.0798
    184  N          1.1640  -34.3960    2.5900 N.3   210  THR210     -0.1218
    185  CA         2.4350  -35.1060    2.4140 C.3   210  THR210      0.1862
    186  C          3.5280  -34.1920    1.8760 C.2   210  THR210      0.2287
    187  O          4.7120  -34.4470    2.1250 O.2   210  THR210     -0.2866
    188  CB         2.2540  -36.3790    1.5840 C.3   210  THR210      0.1770
    189  OG1        1.7410  -36.0220    0.3100 O.3   210  THR210     -0.2211
    190  CG2        1.3190  -37.3960    2.2530 C.3   210  THR210      0.0375
    191  N          8.3790  -37.4980    2.3710 N.3   218  ILE218     -0.1245
    192  CA         7.7520  -37.7990    1.0830 C.3   218  ILE218      0.1561
    193  C          8.2130  -36.7350    0.0760 C.2   218  ILE218      0.2260
    194  O          7.8930  -35.5510    0.1960 O.2   218  ILE218     -0.2867
    195  CB         6.2130  -38.0270    1.1810 C.3   218  ILE218      0.0252
    196  CG1        5.9140  -39.3650    1.9410 C.3   218  ILE218      0.0019
    197  CG2        5.5660  -38.0460   -0.2120 C.3   218  ILE218      0.0019
    198  CD1        4.5000  -39.5840    2.3620 C.3   218  ILE218      0.0001
    199  N          8.7460  -34.8730   -3.5900 N.3   220  PHE220     -0.1241
    200  CA         8.0380  -34.5050   -4.7930 C.3   220  PHE220      0.1605
    201  C          9.1010  -33.9520   -5.7560 C.2   220  PHE220      0.2264
    202  O          9.9610  -33.1640   -5.3290 O.2   220  PHE220     -0.2867
    203  CB         6.9640  -33.4410   -4.5110 C.3   220  PHE220      0.0534
    204  CG         5.7080  -33.9620   -3.8510 C.ar  220  PHE220     -0.0203
    205  CD1        5.6650  -34.1840   -2.4740 C.ar  220  PHE220     -0.0042
    206  CD2        4.5640  -34.2150   -4.6000 C.ar  220  PHE220     -0.0042
    207  CE1        4.5010  -34.6560   -1.8640 C.ar  220  PHE220     -0.0003
    208  CE2        3.3890  -34.6520   -3.9820 C.ar  220  PHE220     -0.0003
    209  CZ         3.3720  -34.8820   -2.6190 C.ar  220  PHE220     -0.0000
    210  N          6.2450  -31.0500   -9.6980 N.3   224  LEU224     -0.1245
    211  CA         5.1190  -31.1000   -8.7670 C.3   224  LEU224      0.1561
    212  C          5.3100  -30.1360   -7.5990 C.2   224  LEU224      0.2260
    213  O          4.3580  -29.4410   -7.2480 O.2   224  LEU224     -0.2867
    214  CB         4.8610  -32.5510   -8.2730 C.3   224  LEU224      0.0270
    215  CG         4.4370  -33.5730   -9.3440 C.3   224  LEU224      0.0019
    216  CD1        3.7740  -34.8140   -8.6990 C.3   224  LEU224      0.0001
    217  CD2        3.4630  -32.9400  -10.3830 C.3   224  LEU224      0.0001
@<TRIPOS>BOND
     1   102   103    1
     2   102   101    1
     3   103   104    1
     4    98    97    1
     5    98   101    1
     6    98    99    1
     7    48    47    2
     8   100    99    2
     9   106   105    1
    10    47    46    1
    11   104   105    2
    12    46    45    1
    13    46    49    1
    14   105   107    1
    15    50    49    1
    16    50    51    1
    17    83    82    1
    18    89    90    1
    19    51    52    2
    20    51    53   am
    21    92    91    2
    22    91    90    1
    23    90    93    1
    24   111   110    2
    25    39    38    1
    26    82    81    1
    27    76    77    1
    28    77    78    1
    29    77    80    1
    30   110   109    1
    31    79    78    2
    32    36    35    2
    33    78    84   am
    34    38    40    1
    35    38    37    1
    36    93    94    1
    37    44    43    2
    38    86    87    2
    39    86    85    1
    40    81    80    1
    41    55    54    1
    42    55    58    1
    43    55    56    1
    44    57    56    2
    45   109   108    1
    46   109   112    1
    47    35    34    1
    48    35    41   am
    49    84    85    1
    50    58    59    1
    51    56    68   am
    52    43    42    1
    53    95    94    1
    54    34    37    1
    55    34    33    1
    56    94    96    1
    57    85    88    1
    58    42    41    1
    59   112   113    1
    60    71    70    2
    61    70    69    1
    62    68    69    1
    63    59    61   ar
    64    59    60   ar
    65   217   215    1
    66    69    72    1
    67    64    61   ar
    68    64    66   ar
    69   113   114   ar
    70   113   115   ar
    71    61    63   ar
    72    60    62   ar
    73   114   116   ar
    74   210   211    1
    75   153   152    2
    76   215   216    1
    77   215   214    1
    78    66    67   ar
    79   115   117   ar
    80    28    27    2
    81    20    19    2
    82   116   118   ar
    83    72    73    1
    84    24    22    1
    85   211   214    1
    86   211   212    1
    87   119   120    1
    88    62    63   ar
    89    63    65   ar
    90   152   151    1
    91    27    26    1
    92   117   118   ar
    93    73    74    1
    94    19    18    1
    95    19    25   am
    96    74    75    1
    97    18    21    1
    98    18    17    1
    99    67    65   ar
   100   151   154    1
   101   151   150    1
   102   154   155    1
   103   122   121    2
   104   212   213    2
   105   155   156    1
   106    22    21    1
   107    22    23    1
   108   156   157    1
   109   121   120    1
   110   120   123    1
   111    26    25    1
   112    26    29    1
   113   164   163    1
   114   124   123    1
   115   124   126    1
   116   123   125    1
   117    29    30    1
   118   201   202    2
   119   201   200    1
   120   163   162    1
   121   163   165    1
   122   147   146    2
   123    31    30    2
   124   162   159    1
   125     4     3    2
   126   200   203    1
   127   200   199    1
   128    30    32   am
   129   206   208   ar
   130   206   204   ar
   131   203   204    1
   132     7     5    1
   133    12    11    2
   134   146   145    1
   135   208   209   ar
   136   183   182    1
   137   149   148    1
   138     3     2    1
   139     3     9   am
   140   204   205   ar
   141   148   145    1
   142     6     5    1
   143     6     8    1
   144     2     5    1
   145     2     1    1
   146   145   144    1
   147   159   158    1
   148   159   160    1
   149    11    10    1
   150   160   161    2
   151   182   179    1
   152   138   137    2
   153    10     9    1
   154    10    13    1
   155   209   207   ar
   156   205   207   ar
   157   144   137   am
   158   137   136    1
   159   133   134    1
   160   133   132    1
   161   179   178    1
   162   179   180    1
   163    13    14    1
   164    14    15    1
   165   178   168   am
   166   180   181    2
   167   136   139    1
   168   136   135    1
   169   139   140    1
   170   130   129    2
   171   132   131    1
   172   197   195    1
   173   193   194    2
   174   193   192    1
   175   131   128    1
   176   129   128    1
   177   173   175   ar
   178   173   171   ar
   179   170   167    1
   180   170   171    1
   181   189   188    1
   182   168   167    1
   183   168   169    2
   184   142   141    2
   185   140   141    1
   186   141   143   am
   187    16    15    1
   188   166   167    1
   189   128   127    1
   190   175   176   ar
   191   171   172   ar
   192   192   195    1
   193   192   191    1
   194   195   196    1
   195   188   190    1
   196   188   185    1
   197   186   187    2
   198   186   185    1
   199   196   198    1
   200   176   177    1
   201   176   174   ar
   202   172   174   ar
   203   185   184    1
