@<TRIPOS>MOLECULE
tmp/5nfqA02.pdb
 120 119 0 0 0
SMALL
GASTEIGER

@<TRIPOS>ATOM
      1  N         10.0580    6.8000   47.9420 N.3    77  PRO77      -0.2116
      2  CA        10.6230    6.5710   49.2910 C.3    77  PRO77       0.1372
      3  C         11.9460    7.3040   49.5290 C.2    77  PRO77       0.2244
      4  O         12.1830    7.7890   50.6470 O.2    77  PRO77      -0.2868
      5  CB        10.8620    5.0570   49.3440 C.3    77  PRO77       0.0268
      6  CG        10.0240    4.4670   48.2700 C.3    77  PRO77       0.0207
      7  CD         9.6910    5.5370   47.2570 C.3    77  PRO77       0.0892
      8  N          3.4440    3.6340   61.2110 N.3   102  ASP102     -0.1225
      9  CA         2.7730    3.4830   59.8900 C.3   102  ASP102      0.1805
     10  C          3.7310    4.0090   58.7820 C.2   102  ASP102      0.2597
     11  O          4.8970    3.5930   58.7590 O.2   102  ASP102     -0.2718
     12  CB         1.3980    4.1980   59.9350 C.3   102  ASP102      0.1424
     13  CG         0.5930    4.0450   58.6490 C.2   102  ASP102      0.3668
     14  OD1        0.0040    2.9680   58.4210 O.co2 102  ASP102     -0.2456
     15  OD2        0.5340    5.0110   57.8650 O.co2 102  ASP102     -0.2456
     16  N          3.2710    4.8510   57.8450 N.am  103  TRP103     -0.1976
     17  CA         4.1970    5.4050   56.8300 C.3   103  TRP103      0.1640
     18  C          5.4380    6.0650   57.4510 C.2   103  TRP103      0.2290
     19  O          6.5620    5.9140   56.9160 O.2   103  TRP103     -0.2864
     20  CB         3.4740    6.4000   55.9230 C.3   103  TRP103      0.0576
     21  CG         3.0750    5.7850   54.6460 C.ar  103  TRP103      0.0006
     22  CD1        1.8120    5.5480   54.1970 C.ar  103  TRP103      0.0946
     23  CD2        3.9640    5.3080   53.6410 C.ar  103  TRP103      0.0152
     24  NE1        1.8590    4.9370   52.9580 N.ar  103  TRP103     -0.2442
     25  CE2        3.1650    4.7790   52.5930 C.ar  103  TRP103      0.0810
     26  CE3        5.3590    5.2850   53.5180 C.ar  103  TRP103      0.0012
     27  CZ2        3.7180    4.2300   51.4400 C.ar  103  TRP103      0.0191
     28  CZ3        5.9190    4.7470   52.3580 C.ar  103  TRP103      0.0001
     29  CH2        5.0910    4.2260   51.3360 C.ar  103  TRP103      0.0015
     30  N          7.7090    3.2420   58.1760 N.3   106  ALA106     -0.1245
     31  CA         8.3660    2.7250   56.9800 C.3   106  ALA106      0.1562
     32  C          9.5460    3.6520   56.6180 C.2   106  ALA106      0.2260
     33  O         10.6550    3.1810   56.2950 O.2   106  ALA106     -0.2867
     34  CB         7.3880    2.6220   55.8080 C.3   106  ALA106      0.0290
     35  N          5.7800   -2.0190   58.8070 N.3   129  PRO129     -0.2116
     36  CA         6.4770   -3.2290   58.3970 C.3   129  PRO129      0.1372
     37  C          7.8920   -2.9420   57.9290 C.2   129  PRO129      0.2244
     38  O          8.1530   -1.8740   57.4150 O.2   129  PRO129     -0.2868
     39  CB         5.6120   -3.7250   57.2200 C.3   129  PRO129      0.0268
     40  CG         5.0840   -2.4660   56.6330 C.3   129  PRO129      0.0207
     41  CD         4.8110   -1.5500   57.7950 C.3   129  PRO129      0.0892
     42  N         11.1920   -3.2500   55.6250 N.3   131  PRO131     -0.2116
     43  CA        11.3470   -3.4230   54.1770 C.3   131  PRO131      0.1372
     44  C         11.9900   -4.7620   53.7500 C.2   131  PRO131      0.2244
     45  O         11.8660   -5.1420   52.5830 O.2   131  PRO131     -0.2868
     46  CB        12.2140   -2.2110   53.7670 C.3   131  PRO131      0.0268
     47  CG        12.9860   -1.8460   55.0050 C.3   131  PRO131      0.0207
     48  CD        11.9990   -2.1100   56.1340 C.3   131  PRO131      0.0892
     49  N          8.3140   -7.0760   54.3610 N.3   134  PHE134     -0.1241
     50  CA         6.9310   -6.7660   53.9640 C.3   134  PHE134      0.1605
     51  C          6.5640   -7.2810   52.5770 C.2   134  PHE134      0.2264
     52  O          5.5050   -7.9040   52.4200 O.2   134  PHE134     -0.2867
     53  CB         6.6430   -5.2720   54.0460 C.3   134  PHE134      0.0534
     54  CG         5.1790   -4.9150   53.9510 C.ar  134  PHE134     -0.0203
     55  CD1        4.2290   -5.4870   54.8320 C.ar  134  PHE134     -0.0042
     56  CD2        4.7420   -3.9460   53.0570 C.ar  134  PHE134     -0.0042
     57  CE1        2.8950   -5.1290   54.7810 C.ar  134  PHE134     -0.0003
     58  CE2        3.3880   -3.5770   53.0040 C.ar  134  PHE134     -0.0003
     59  CZ         2.4610   -4.1850   53.8490 C.ar  134  PHE134     -0.0000
     60  N         -6.5810   -2.5420   50.7250 N.3   150  TYR150     -0.1227
     61  CA        -6.9780   -1.1170   50.6810 C.3   150  TYR150      0.1736
     62  C         -5.9900   -0.2720   49.8600 C.2   150  TYR150      0.2595
     63  O         -6.3850    0.7240   49.2540 O.2   150  TYR150     -0.2718
     64  CB        -7.1200   -0.5160   52.0830 C.3   150  TYR150      0.0548
     65  CG        -5.8040   -0.2350   52.7640 C.ar  150  TYR150     -0.0200
     66  CD1       -5.1020   -1.2540   53.4420 C.ar  150  TYR150     -0.0009
     67  CD2       -5.2420    1.0530   52.7240 C.ar  150  TYR150     -0.0009
     68  CE1       -3.8740   -0.9930   54.0510 C.ar  150  TYR150      0.0417
     69  CE2       -4.0240    1.3200   53.3160 C.ar  150  TYR150      0.0417
     70  CZ        -3.3470    0.3080   53.9790 C.ar  150  TYR150      0.1957
     71  OH        -2.1320    0.6100   54.5450 O.3   150  TYR150     -0.2866
     72  N         -4.7130   -0.6720   49.8770 N.am  151  ILE151     -0.1980
     73  CA        -3.6610    0.0450   49.1150 C.3   151  ILE151      0.1595
     74  C         -4.0050    0.0910   47.6390 C.2   151  ILE151      0.2287
     75  O         -3.7700    1.1050   46.9880 O.2   151  ILE151     -0.2864
     76  CB        -2.2640   -0.5620   49.3650 C.3   151  ILE151      0.0276
     77  CG1       -1.9470   -0.3800   50.8550 C.3   151  ILE151      0.0022
     78  CG2       -1.1860    0.1290   48.5010 C.3   151  ILE151      0.0022
     79  CD1       -0.7190   -1.1240   51.3670 C.3   151  ILE151      0.0001
     80  N          1.3400    6.0730   48.8650 N.3   209  TYR209     -0.1241
     81  CA         1.0080    4.7450   48.3430 C.3   209  TYR209      0.1605
     82  C          1.2340    4.6850   46.8380 C.2   209  TYR209      0.2264
     83  O          1.6890    3.6590   46.3070 O.2   209  TYR209     -0.2867
     84  CB        -0.4560    4.4100   48.6300 C.3   209  TYR209      0.0534
     85  CG        -0.8080    4.4210   50.0930 C.ar  209  TYR209     -0.0201
     86  CD1       -0.5880    3.2840   50.9060 C.ar  209  TYR209     -0.0009
     87  CD2       -1.3660    5.5630   50.6640 C.ar  209  TYR209     -0.0009
     88  CE1       -0.9230    3.3170   52.2720 C.ar  209  TYR209      0.0417
     89  CE2       -1.7020    5.6040   51.9970 C.ar  209  TYR209      0.0417
     90  CZ        -1.4880    4.4910   52.7910 C.ar  209  TYR209      0.1957
     91  OH        -1.8400    4.6020   54.1160 O.3   209  TYR209     -0.2866
     92  N          4.9350    4.3940   46.0050 N.3   212  SER212     -0.1203
     93  CA         5.6490    3.2810   46.6160 C.3   212  SER212      0.2005
     94  C          5.8700    2.1410   45.6240 C.2   212  SER212      0.2461
     95  O          4.9520    1.7910   44.8840 O.2   212  SER212     -0.2732
     96  CB         4.8510    2.7550   47.8160 C.3   212  SER212      0.2103
     97  OG         5.4670    1.5730   48.3030 O.3   212  SER212     -0.2182
     98  N          7.0710    1.5490   45.6280 N.am  213  PRO213     -0.2717
     99  CA         7.2910    0.4610   44.6700 C.3   213  PRO213      0.1535
    100  C          6.7010   -0.8750   45.1560 C.2   213  PRO213      0.2598
    101  O          6.7670   -1.8650   44.4350 O.2   213  PRO213     -0.2715
    102  CB         8.8210    0.4070   44.5430 C.3   213  PRO213      0.0310
    103  CG         9.3340    0.9540   45.8210 C.3   213  PRO213      0.0237
    104  CD         8.3270    1.9940   46.2640 C.3   213  PRO213      0.0939
    105  N          6.0800   -0.8740   46.3350 N.am  214  ILE214     -0.1978
    106  CA         5.5470   -2.1120   46.9060 C.3   214  ILE214      0.1596
    107  C          4.4580   -2.6880   45.9670 C.2   214  ILE214      0.2287
    108  O          3.6480   -1.9550   45.3930 O.2   214  ILE214     -0.2864
    109  CB         5.1060   -1.8870   48.3740 C.3   214  ILE214      0.0276
    110  CG1        5.0590   -3.2000   49.1660 C.3   214  ILE214      0.0022
    111  CG2        3.7670   -1.1550   48.4520 C.3   214  ILE214      0.0022
    112  CD1        6.3760   -3.6430   49.7820 C.3   214  ILE214      0.0001
    113  N         -1.8200   -4.5740   59.5810 N.3   252  LEU252     -0.1245
    114  CA        -0.4500   -5.0480   59.7800 C.3   252  LEU252      0.1561
    115  C         -0.4350   -6.1240   60.8570 C.2   252  LEU252      0.2260
    116  O         -0.1030   -5.8470   62.0330 O.2   252  LEU252     -0.2867
    117  CB         0.4690   -3.8690   60.1650 C.3   252  LEU252      0.0270
    118  CG         0.7030   -2.8650   59.0440 C.3   252  LEU252      0.0019
    119  CD1        1.4490   -1.6750   59.6500 C.3   252  LEU252      0.0001
    120  CD2        1.5070   -3.4390   57.8830 C.3   252  LEU252      0.0001
@<TRIPOS>BOND
     1   101   100    2
     2   102    99    1
     3   102   103    1
     4    99   100    1
     5    99    98    1
     6    95    94    2
     7   100   105   am
     8   108   107    2
     9    94    98   am
    10    94    93    1
    11    98   104    1
    12   103   104    1
    13   107   106    1
    14    92    93    1
    15    83    82    2
    16   105   106    1
    17    93    96    1
    18    82    81    1
    19   106   109    1
    20    75    74    2
    21     7     1    1
    22     7     6    1
    23    74    73    1
    24    96    97    1
    25     1     2    1
    26     6     5    1
    27    81    84    1
    28    81    80    1
    29   109   111    1
    30   109   110    1
    31    78    76    1
    32    84    85    1
    33    73    76    1
    34    73    72    1
    35   110   112    1
    36    63    62    2
    37     2     5    1
    38     2     3    1
    39    76    77    1
    40     3     4    2
    41    62    72   am
    42    62    61    1
    43    85    87   ar
    44    85    86   ar
    45    87    89   ar
    46    61    60    1
    47    61    64    1
    48    77    79    1
    49    86    88   ar
    50    29    27   ar
    51    29    28   ar
    52    27    25   ar
    53    89    90   ar
    54    64    65    1
    55    88    90   ar
    56    28    26   ar
    57    52    51    2
    58    51    50    1
    59    45    44    2
    60    25    24   ar
    61    25    23   ar
    62    67    65   ar
    63    67    69   ar
    64    65    66   ar
    65    90    91    1
    66    24    22   ar
    67    58    56   ar
    68    58    59   ar
    69    56    54   ar
    70    69    70   ar
    71    66    68   ar
    72    26    23   ar
    73    23    21   ar
    74    44    43    1
    75    46    43    1
    76    46    47    1
    77    59    57   ar
    78    54    53    1
    79    54    55   ar
    80    50    53    1
    81    50    49    1
    82    70    68   ar
    83    70    71    1
    84    43    42    1
    85    22    21   ar
    86    21    20    1
    87    57    55   ar
    88    47    48    1
    89    42    48    1
    90    34    31    1
    91    20    17    1
    92    33    32    2
    93    32    31    1
    94    40    39    1
    95    40    41    1
    96    17    18    1
    97    17    16    1
    98    19    18    2
    99    31    30    1
   100    39    36    1
   101    38    37    2
   102    41    35    1
   103    16    10   am
   104    15    13   ar
   105   120   118    1
   106    37    36    1
   107    36    35    1
   108    14    13   ar
   109    13    12    1
   110    11    10    2
   111    10     9    1
   112   118   119    1
   113   118   117    1
   114   113   114    1
   115   114   117    1
   116   114   115    1
   117     9    12    1
   118     9     8    1
   119   115   116    2
