@<TRIPOS>MOLECULE
tmp/5nfrE00.pdb
 129 117 0 0 0
SMALL
GASTEIGER

@<TRIPOS>ATOM
      1  N         67.4750  -30.4790   14.7890 N.3    12  ILE12      -0.1245
      2  CA        68.2430  -30.9320   15.8910 C.3    12  ILE12       0.1561
      3  C         68.4210  -29.8170   16.8920 C.2    12  ILE12       0.2260
      4  O         68.1070  -29.9900   18.0900 O.2    12  ILE12      -0.2867
      5  CB        69.5150  -31.5510   15.4910 C.3    12  ILE12       0.0252
      6  CG1       69.2350  -32.8290   14.7120 C.3    12  ILE12       0.0019
      7  CG2       70.2810  -31.9680   16.7890 C.3    12  ILE12       0.0019
      8  CD1       70.4240  -33.5360   14.1120 C.3    12  ILE12       0.0001
      9  N         72.4680  -31.4090    5.5500 N.3    80  GLN80      -0.1231
     10  CA        72.2290  -32.8100    5.8130 C.3    80  GLN80       0.1698
     11  C         72.1060  -33.6540    4.5840 C.2    80  GLN80       0.2592
     12  O         71.8280  -33.1280    3.4940 O.2    80  GLN80      -0.2718
     13  CB        70.9590  -32.9500    6.6350 C.3    80  GLN80       0.0381
     14  CG        71.1130  -32.2870    8.0240 C.3    80  GLN80       0.0905
     15  CD        69.9190  -32.6430    8.8870 C.2    80  GLN80       0.2608
     16  OE1       68.8090  -32.1950    8.6430 O.2    80  GLN80      -0.2717
     17  NE2       70.1700  -33.3870    9.9700 N.am   80  GLN80      -0.0878
     18  N         72.3600  -34.9550    4.7400 N.am   81  ARG81      -0.1980
     19  CA        72.3310  -35.8330    3.5930 C.3    81  ARG81       0.1597
     20  C         70.9790  -36.2770    3.2660 C.2    81  ARG81       0.2287
     21  O         70.1980  -36.3970    4.1260 O.2    81  ARG81      -0.2864
     22  CB        73.3060  -37.0230    3.7700 C.3    81  ARG81       0.0334
     23  CG        73.1130  -37.9040    4.9750 C.3    81  ARG81       0.0492
     24  CD        73.6940  -39.2910    4.7520 C.3    81  ARG81       0.2205
     25  NE        73.5750  -40.1850    5.8730 N.pl3  81  ARG81      -0.0865
     26  CZ        73.7590  -41.4920    5.8200 C.cat  81  ARG81       0.5346
     27  NH1       73.5700  -42.2410    6.9290 N.pl3  81  ARG81       0.1354
     28  NH2       74.1380  -42.1110    4.6940 N.pl3  81  ARG81       0.1354
     29  N         77.3820  -39.8650    4.2790 N.3    87  ARG87      -0.1245
     30  CA        77.7060  -38.7150    5.1480 C.3    87  ARG87       0.1563
     31  C         78.8810  -38.0130    4.5440 C.2    87  ARG87       0.2260
     32  O         79.0140  -36.8090    4.6840 O.2    87  ARG87      -0.2867
     33  CB        77.9950  -39.1340    6.6480 C.3    87  ARG87       0.0307
     34  CG        76.8490  -39.8090    7.4130 C.3    87  ARG87       0.0489
     35  CD        77.3820  -40.7840    8.4900 C.3    87  ARG87       0.2205
     36  NE        76.5380  -41.9350    8.8640 N.pl3  87  ARG87      -0.0865
     37  CZ        75.5180  -41.8430    9.6620 C.cat  87  ARG87       0.5346
     38  NH1       75.2300  -40.6650   10.1760 N.pl3  87  ARG87       0.1354
     39  NH2       74.8020  -42.9060   10.0130 N.pl3  87  ARG87       0.1354
     40  N         78.0130  -31.4350   15.8650 N.3   117  VAL117     -0.1245
     41  CA        77.0800  -32.4400   15.3310 C.3   117  VAL117      0.1561
     42  C         77.0090  -32.5230   13.7730 C.2   117  VAL117      0.2260
     43  O         76.6890  -33.6140   13.2570 O.2   117  VAL117     -0.2867
     44  CB        75.7020  -32.1900   15.8380 C.3   117  VAL117      0.0252
     45  CG1       74.8490  -33.4380   15.6870 C.3   117  VAL117      0.0019
     46  CG2       75.7740  -31.7040   17.2460 C.3   117  VAL117      0.0019
     47  N         77.6040  -33.4290    9.9800 N.3   119  ASN119     -0.1240
     48  CA        78.2360  -34.5810    9.3140 C.3   119  ASN119      0.1653
     49  C         79.2050  -34.2300    8.1530 C.2   119  ASN119      0.2266
     50  O         79.2260  -33.1140    7.6850 O.2   119  ASN119     -0.2867
     51  CB        77.1980  -35.5130    8.7740 C.3   119  ASN119      0.1155
     52  CG        76.6410  -36.4020    9.8470 C.2   119  ASN119      0.2627
     53  OD1       77.3690  -37.0700   10.5660 O.2   119  ASN119     -0.2716
     54  ND2       75.3420  -36.3810    9.9770 N.am  119  ASN119     -0.0877
     55  N         80.5450  -36.6540   11.0270 N.3   121  LEU121     -0.1245
     56  CA        80.7380  -36.1260   12.3980 C.3   121  LEU121      0.1561
     57  C         82.1460  -36.0720   12.8050 C.2   121  LEU121      0.2260
     58  O         82.7070  -34.9690   13.0450 O.2   121  LEU121     -0.2867
     59  CB        79.9370  -36.9290   13.4080 C.3   121  LEU121      0.0270
     60  CG        80.3040  -36.3550   14.7980 C.3   121  LEU121      0.0019
     61  CD1       79.3510  -35.2520   15.1280 C.3   121  LEU121      0.0001
     62  CD2       80.5700  -37.3420   15.8090 C.3   121  LEU121      0.0001
     63  N         79.0970  -35.4580   19.2190 N.3   142  MET142     -0.1245
     64  CA        78.2430  -36.5460   19.5490 C.3   142  MET142      0.1570
     65  C         78.0440  -37.4690   18.3850 C.2   142  MET142      0.2261
     66  O         77.6410  -37.0630   17.2940 O.2   142  MET142     -0.2867
     67  CB        76.9200  -36.0480   20.1980 C.3   142  MET142      0.0387
     68  CG        75.5970  -36.2070   19.6140 C.3   142  MET142      0.0595
     69  SD        75.0540  -37.8510   19.0980 S.3   142  MET142     -0.1393
     70  CE        74.2830  -37.1260   17.6070 C.3   142  MET142      0.0692
     71  N         74.3380  -41.9440   20.2460 N.3   146  LEU146     -0.1245
     72  CA        73.2890  -42.2740   19.2520 C.3   146  LEU146      0.1561
     73  C         73.4230  -43.7090   18.7470 C.2   146  LEU146      0.2260
     74  O         72.4500  -44.4410   18.6870 O.2   146  LEU146     -0.2867
     75  CB        73.2800  -41.2780   18.1230 C.3   146  LEU146      0.0270
     76  CG        72.2490  -41.4150   17.0140 C.3   146  LEU146      0.0019
     77  CD1       70.8410  -41.3390   17.5400 C.3   146  LEU146      0.0001
     78  CD2       72.5240  -40.3130   15.9040 C.3   146  LEU146      0.0001
     79  N         70.9070  -47.0900   19.3720 N.3   150  ARG150     -0.1245
     80  CA        70.3040  -47.9130   18.3490 C.3   150  ARG150      0.1563
     81  C         70.6530  -49.3810   18.5270 C.2   150  ARG150      0.2260
     82  O         69.8210  -50.2470   18.5830 O.2   150  ARG150     -0.2867
     83  CB        70.8250  -47.4090   16.9350 C.3   150  ARG150      0.0307
     84  CG        70.1660  -46.1170   16.5230 C.3   150  ARG150      0.0489
     85  CD        70.9780  -45.2910   15.7460 C.3   150  ARG150      0.2205
     86  NE        70.2480  -44.1030   15.3430 N.pl3 150  ARG150     -0.0865
     87  CZ        70.6620  -43.2660   14.3620 C.cat 150  ARG150      0.5346
     88  NH1       71.8280  -43.4540   13.7300 N.pl3 150  ARG150      0.1354
     89  NH2       69.9570  -42.1990   14.0650 N.pl3 150  ARG150      0.1354
     90  N         81.6290  -42.4170   13.1490 N.3   174  HIS174     -0.1241
     91  CA        80.1990  -42.4900   12.9670 C.3   174  HIS174      0.1621
     92  C         80.0250  -42.7610   11.4020 C.2   174  HIS174      0.2264
     93  O         79.7340  -41.8630   10.6090 O.2   174  HIS174     -0.2867
     94  CB        79.5750  -41.1570   13.4040 C.3   174  HIS174      0.0745
     95  CG        78.0730  -41.1180   13.3210 C.ar  174  HIS174      0.0817
     96  ND1       77.2750  -42.0900   13.8970 N.ar  174  HIS174     -0.2268
     97  CD2       77.2180  -40.1970   12.7930 C.ar  174  HIS174      0.1154
     98  CE1       76.0050  -41.8140   13.6550 C.ar  174  HIS174      0.1986
     99  NE2       75.9410  -40.6590   13.0200 N.ar  174  HIS174     -0.2212
    100  N         71.0630  -44.7890   10.3870 N.3   217  GLY217     -0.1225
    101  CA        70.9730  -43.4360    9.9610 C.3   217  GLY217      0.1811
    102  C         70.3550  -43.2890    8.5180 C.2   217  GLY217      0.2280
    103  O         69.4850  -42.4600    8.3240 O.2   217  GLY217     -0.2866
    104  N         66.4580  -41.9860    7.0980 N.3   221  ILE221     -0.1245
    105  CA        66.3830  -41.0670    5.9330 C.3   221  ILE221      0.1561
    106  C         65.4250  -41.6070    4.8330 C.2   221  ILE221      0.2260
    107  O         64.5230  -40.8920    4.4100 O.2   221  ILE221     -0.2867
    108  CB        67.7540  -40.7150    5.3780 C.3   221  ILE221      0.0252
    109  CG1       68.5090  -39.8120    6.3760 C.3   221  ILE221      0.0019
    110  CG2       67.6190  -39.9710    3.9840 C.3   221  ILE221      0.0019
    111  CD1       70.0010  -39.7260    6.1700 C.3   221  ILE221      0.0001
    112  N         66.4810  -36.7510    8.1570 N.3   227  SER227     -0.1202
    113  CA        67.3920  -37.4330    8.9900 C.3   227  SER227      0.2020
    114  C         66.9200  -37.3400   10.4560 C.2   227  SER227      0.2618
    115  O         66.0340  -36.5210   10.7910 O.2   227  SER227     -0.2717
    116  CB        68.7890  -36.9430    8.8470 C.3   227  SER227      0.2103
    117  OG        68.8590  -35.5250    8.9150 O.3   227  SER227     -0.2182
    118  N         67.3540  -38.3260   11.2210 N.am  228  ALA228     -0.1979
    119  CA        66.9510  -38.4590   12.6190 C.3   228  ALA228      0.1597
    120  C         67.2280  -37.1040   13.3410 C.2   228  ALA228      0.2287
    121  O         68.1690  -36.4590   13.0880 O.2   228  ALA228     -0.2864
    122  CB        67.7090  -39.5910   13.2470 C.3   228  ALA228      0.0319
    123  N         69.2970  -37.7890   18.2650 N.3   232  PRO232     -0.2116
    124  CA        70.4810  -36.9360   18.3090 C.3   232  PRO232      0.1372
    125  C         70.3740  -35.8550   19.3130 C.2   232  PRO232      0.2244
    126  O         71.3410  -35.5450   19.9830 O.2   232  PRO232     -0.2868
    127  CB        70.5370  -36.3180   16.8470 C.3   232  PRO232      0.0268
    128  CG        69.9490  -37.4150   16.0310 C.3   232  PRO232      0.0207
    129  CD        68.8680  -38.0650   16.8410 C.3   232  PRO232      0.0892
@<TRIPOS>BOND
     1    20    19    1
     2    20    21    2
     3    12    11    2
     4    19    22    1
     5    19    18    1
     6    22    23    1
     7   110   108    1
     8    29    30    1
     9   107   106    2
    10    31    32    2
    11    31    30    1
    12    11    18   am
    13    11    10    1
    14    28    26    1
    15    24    23    1
    16    24    25    1
    17   106   105    1
    18    30    33    1
    19   108   105    1
    20   108   109    1
    21     9    10    1
    22    10    13    1
    23    26    25    2
    24    26    27    1
    25   105   104    1
    26   111   109    1
    27    13    14    1
    28    33    34    1
    29    34    35    1
    30    50    49    2
    31    14    15    1
    32    49    48    1
    33   112   113    1
    34   103   102    2
    35    35    36    1
    36   102   101    1
    37    16    15    2
    38    51    48    1
    39    51    52    1
    40   116   117    1
    41   116   113    1
    42    36    37    2
    43    15    17   am
    44   113   114    1
    45    48    47    1
    46    37    39    1
    47    37    38    1
    48    52    54   am
    49    52    53    2
    50   101   100    1
    51   114   115    2
    52   114   118   am
    53    93    92    2
    54    55    56    1
    55   118   119    1
    56    92    91    1
    57    56    57    1
    58    56    59    1
    59   119   122    1
    60   119   120    1
    61    97    99   ar
    62    97    95   ar
    63    57    58    2
    64    91    90    1
    65    91    94    1
    66    99    98   ar
    67   121   120    2
    68    43    42    2
    69    95    94    1
    70    95    96   ar
    71    59    60    1
    72    98    96   ar
    73    88    87    1
    74    42    41    1
    75    89    87    1
    76     8     6    1
    77    87    86    2
    78     6     5    1
    79     1     2    1
    80    60    61    1
    81    60    62    1
    82    41    44    1
    83    41    40    1
    84    86    85    1
    85     5     2    1
    86     5     7    1
    87    45    44    1
    88    85    84    1
    89    44    46    1
    90     2     3    1
    91    78    76    1
    92   128   129    1
    93   128   127    1
    94    84    83    1
    95   129   123    1
    96   127   124    1
    97     3     4    2
    98    83    80    1
    99    76    77    1
   100    76    75    1
   101    66    65    2
   102    70    69    1
   103    75    72    1
   104   123   124    1
   105   124   125    1
   106    80    81    1
   107    80    79    1
   108    65    64    1
   109    81    82    2
   110    74    73    2
   111    73    72    1
   112    69    68    1
   113    63    64    1
   114    72    71    1
   115   125   126    2
   116    64    67    1
   117    68    67    1
