@<TRIPOS>MOLECULE
tmp/5nfrC00.pdb
 129 117 0 0 0
SMALL
GASTEIGER

@<TRIPOS>ATOM
      1  N         29.4030  -23.3250  -59.3240 N.3    12  ILE12      -0.1245
      2  CA        29.5170  -22.5200  -58.1290 C.3    12  ILE12       0.1561
      3  C         28.2630  -22.5220  -57.2910 C.2    12  ILE12       0.2260
      4  O         28.2940  -22.7800  -56.1150 O.2    12  ILE12      -0.2867
      5  CB        30.0060  -21.0790  -58.4250 C.3    12  ILE12       0.0252
      6  CG1       31.4430  -21.1450  -58.9670 C.3    12  ILE12       0.0019
      7  CG2       30.0420  -20.2550  -57.0990 C.3    12  ILE12       0.0019
      8  CD1       31.9760  -19.8150  -59.4240 C.3    12  ILE12       0.0001
      9  N         30.9930  -17.8970  -68.2660 N.3    80  GLN80      -0.1231
     10  CA        32.3430  -17.8830  -67.7480 C.3    80  GLN80       0.1698
     11  C         33.3790  -17.7690  -68.8630 C.2    80  GLN80       0.2592
     12  O         33.1350  -18.1570  -70.0210 O.2    80  GLN80      -0.2718
     13  CB        32.5840  -19.1300  -66.8960 C.3    80  GLN80       0.0381
     14  CG        31.6830  -19.1140  -65.6790 C.3    80  GLN80       0.0905
     15  CD        32.0280  -20.2440  -64.7440 C.2    80  GLN80       0.2608
     16  OE1       31.8590  -21.4150  -65.0920 O.2    80  GLN80      -0.2717
     17  NE2       32.5010  -19.9070  -63.5450 N.am   80  GLN80      -0.0878
     18  N         34.5530  -17.2490  -68.5200 N.am   81  ARG81      -0.1980
     19  CA        35.6210  -17.1070  -69.4950 C.3    81  ARG81       0.1597
     20  C         36.3710  -18.4080  -69.7290 C.2    81  ARG81       0.2287
     21  O         36.4760  -19.2240  -68.8190 O.2    81  ARG81      -0.2864
     22  CB        36.5870  -15.9960  -69.0950 C.3    81  ARG81       0.0334
     23  CG        37.2880  -16.1260  -67.7430 C.3    81  ARG81       0.0492
     24  CD        38.5810  -15.3200  -67.7380 C.3    81  ARG81       0.2205
     25  NE        39.2950  -15.3840  -66.4600 N.pl3  81  ARG81      -0.0865
     26  CZ        40.5260  -14.9410  -66.2590 C.cat  81  ARG81       0.5346
     27  NH1       41.0600  -15.0280  -65.0600 N.pl3  81  ARG81       0.1354
     28  NH2       41.2360  -14.3900  -67.2660 N.pl3  81  ARG81       0.1354
     29  N         38.5460  -11.6010  -68.0050 N.3    87  ARG87      -0.1245
     30  CA        37.2280  -11.4570  -67.3710 C.3    87  ARG87       0.1563
     31  C         36.4380  -10.3270  -68.0300 C.2    87  ARG87       0.2260
     32  O         35.2280  -10.4520  -68.2590 O.2    87  ARG87      -0.2867
     33  CB        37.3300  -11.1410  -65.8860 C.3    87  ARG87       0.0307
     34  CG        38.0600  -12.1720  -65.0260 C.3    87  ARG87       0.0489
     35  CD        38.7340  -11.4750  -63.8310 C.3    87  ARG87       0.2205
     36  NE        39.9220  -12.1430  -63.2630 N.pl3  87  ARG87      -0.0865
     37  CZ        39.8650  -13.1800  -62.4610 C.cat  87  ARG87       0.5346
     38  NH1       38.7000  -13.6960  -62.1760 N.pl3  87  ARG87       0.1354
     39  NH2       40.9630  -13.7340  -61.9610 N.pl3  87  ARG87       0.1354
     40  N         28.3070  -12.6710  -58.2210 N.3   117  VAL117     -0.1245
     41  CA        29.5490  -13.4290  -58.5560 C.3   117  VAL117      0.1561
     42  C         29.9300  -13.4660  -60.0430 C.2   117  VAL117      0.2260
     43  O         31.1040  -13.5470  -60.3640 O.2   117  VAL117     -0.2867
     44  CB        29.4580  -14.8750  -58.0820 C.3   117  VAL117      0.0252
     45  CG1       30.8450  -15.5090  -57.9900 C.3   117  VAL117      0.0019
     46  CG2       28.7540  -14.9060  -56.7380 C.3   117  VAL117      0.0019
     47  N         31.3140  -12.5770  -63.6440 N.3   119  ASN119     -0.1240
     48  CA        32.4230  -11.7290  -64.1120 C.3   119  ASN119      0.1653
     49  C         32.1010  -10.7780  -65.2780 C.2   119  ASN119      0.2266
     50  O         31.0920  -10.9690  -65.9570 O.2   119  ASN119     -0.2867
     51  CB        33.5900  -12.5880  -64.4660 C.3   119  ASN119      0.1155
     52  CG        34.3490  -13.0310  -63.2400 C.2   119  ASN119      0.2627
     53  OD1       34.7690  -12.1950  -62.4220 O.2   119  ASN119     -0.2716
     54  ND2       34.5110  -14.3180  -63.0970 N.am  119  ASN119     -0.0877
     55  N         33.7130   -9.1630  -62.0610 N.3   121  LEU121     -0.1245
     56  CA        32.9400   -9.0660  -60.8790 C.3   121  LEU121      0.1561
     57  C         32.5330   -7.6500  -60.5470 C.2   121  LEU121      0.2260
     58  O         31.3630   -7.3560  -60.3870 O.2   121  LEU121     -0.2867
     59  CB        33.6880   -9.6850  -59.7120 C.3   121  LEU121      0.0270
     60  CG        32.8250   -9.4790  -58.4910 C.3   121  LEU121      0.0019
     61  CD1       31.9080  -10.6660  -58.3000 C.3   121  LEU121      0.0001
     62  CD2       33.6060   -9.1290  -57.2500 C.3   121  LEU121      0.0001
     63  N         31.5570  -11.0000  -54.3500 N.3   142  MET142     -0.1245
     64  CA        32.6700  -11.7050  -53.7150 C.3   142  MET142      0.1570
     65  C         33.8160  -11.7860  -54.6600 C.2   142  MET142      0.2261
     66  O         33.6080  -12.1090  -55.8400 O.2   142  MET142     -0.2867
     67  CB        32.2660  -13.0370  -53.1590 C.3   142  MET142      0.0387
     68  CG        32.7190  -14.2970  -53.7690 C.3   142  MET142      0.0595
     69  SD        34.5190  -14.5650  -53.9380 S.3   142  MET142     -0.1393
     70  CE        34.2200  -15.4280  -55.4410 C.3   142  MET142      0.0692
     71  N         38.4710  -14.5520  -52.1050 N.3   146  LEU146     -0.1245
     72  CA        39.1250  -15.5150  -52.9740 C.3   146  LEU146      0.1561
     73  C         40.5800  -15.1400  -53.3430 C.2   146  LEU146      0.2260
     74  O         41.4450  -15.9670  -53.1370 O.2   146  LEU146     -0.2867
     75  CB        38.3650  -15.6530  -54.3100 C.3   146  LEU146      0.0270
     76  CG        38.8550  -16.6350  -55.3210 C.3   146  LEU146      0.0019
     77  CD1       38.8950  -18.0670  -54.7790 C.3   146  LEU146      0.0001
     78  CD2       37.9020  -16.5580  -56.5110 C.3   146  LEU146      0.0001
     79  N         44.2280  -16.9700  -51.8960 N.3   150  ARG150     -0.1245
     80  CA        45.2730  -17.4400  -52.7900 C.3   150  ARG150      0.1563
     81  C         46.5850  -16.8370  -52.3290 C.2   150  ARG150      0.2260
     82  O         47.5240  -17.5730  -52.1510 O.2   150  ARG150     -0.2867
     83  CB        44.9050  -17.0560  -54.2250 C.3   150  ARG150      0.0307
     84  CG        43.8310  -17.9450  -54.8570 C.3   150  ARG150      0.0489
     85  CD        43.0360  -17.2380  -55.9280 C.3   150  ARG150      0.2205
     86  NE        42.1450  -18.1830  -56.6040 N.pl3 150  ARG150     -0.0865
     87  CZ        41.3420  -17.8730  -57.6320 C.cat 150  ARG150      0.5346
     88  NH1       41.3610  -16.6540  -58.1310 N.pl3 150  ARG150      0.1354
     89  NH2       40.5290  -18.7920  -58.1420 N.pl3 150  ARG150      0.1354
     90  N         38.7710   -7.1780  -58.9460 N.3   174  HIS174     -0.1241
     91  CA        39.1110   -8.5890  -59.1330 C.3   174  HIS174      0.1621
     92  C         39.7450   -8.7690  -60.5660 C.2   174  HIS174      0.2264
     93  O         39.0370   -9.0760  -61.5630 O.2   174  HIS174     -0.2867
     94  CB        37.8380   -9.4220  -58.9360 C.3   174  HIS174      0.0745
     95  CG        38.0660  -10.9150  -58.9420 C.ar  174  HIS174      0.0817
     96  ND1       39.0640  -11.5250  -58.2130 N.ar  174  HIS174     -0.2268
     97  CD2       37.4100  -11.9100  -59.5980 C.ar  174  HIS174      0.1154
     98  CE1       39.0180  -12.8290  -58.4270 C.ar  174  HIS174      0.1986
     99  NE2       38.0300  -13.0860  -59.2660 N.ar  174  HIS174     -0.2212
    100  N         43.4150  -17.1520  -61.2080 N.3   217  GLY217     -0.1225
    101  CA        42.1670  -17.4450  -61.9190 C.3   217  GLY217      0.1811
    102  C         42.4290  -18.0900  -63.2570 C.2   217  GLY217      0.2280
    103  O         41.7620  -19.0470  -63.6240 O.2   217  GLY217     -0.2866
    104  N         41.9420  -22.1110  -64.8430 N.3   221  ILE221     -0.1245
    105  CA        41.3250  -22.3250  -66.1800 C.3   221  ILE221      0.1561
    106  C         42.2050  -23.1440  -67.1320 C.2   221  ILE221      0.2260
    107  O         41.7550  -24.1290  -67.7050 O.2   221  ILE221     -0.2867
    108  CB        40.8770  -21.0110  -66.8330 C.3   221  ILE221      0.0252
    109  CG1       39.6710  -20.4400  -66.0520 C.3   221  ILE221      0.0019
    110  CG2       40.4160  -21.2470  -68.2810 C.3   221  ILE221      0.0019
    111  CD1       39.3870  -18.9620  -66.2560 C.3   221  ILE221      0.0001
    112  N         36.7370  -23.0700  -64.7740 N.3   227  SER227     -0.1202
    113  CA        37.1100  -22.0200  -63.8130 C.3   227  SER227      0.2020
    114  C         36.8890  -22.5480  -62.3980 C.2   227  SER227      0.2618
    115  O         36.1990  -23.5300  -62.1820 O.2   227  SER227     -0.2717
    116  CB        36.4050  -20.6890  -64.0460 C.3   227  SER227      0.2103
    117  OG        35.0360  -20.8730  -64.2270 O.3   227  SER227     -0.2182
    118  N         37.6370  -21.9610  -61.4900 N.am  228  ALA228     -0.1979
    119  CA        37.6250  -22.3660  -60.0900 C.3   228  ALA228      0.1597
    120  C         36.1510  -22.3860  -59.6130 C.2   228  ALA228      0.2287
    121  O         35.3760  -21.4890  -59.9700 O.2   228  ALA228     -0.2864
    122  CB        38.4840  -21.3940  -59.2670 C.3   228  ALA228      0.0319
    123  N         35.6150  -20.2550  -54.7540 N.3   232  PRO232     -0.2116
    124  CA        34.5680  -19.2170  -54.8890 C.3   232  PRO232      0.1372
    125  C         33.3270  -19.5470  -54.0210 C.2   232  PRO232      0.2244
    126  O         32.7980  -18.6500  -53.3660 O.2   232  PRO232     -0.2868
    127  CB        34.2210  -19.2760  -56.3470 C.3   232  PRO232      0.0268
    128  CG        35.5330  -19.6670  -57.0080 C.3   232  PRO232      0.0207
    129  CD        36.2330  -20.5790  -56.0640 C.3   232  PRO232      0.0892
@<TRIPOS>BOND
     1    12    11    2
     2    20    19    1
     3    20    21    2
     4    19    22    1
     5    19    18    1
     6    22    23    1
     7    11    18   am
     8    11    10    1
     9   110   108    1
    10     9    10    1
    11    32    31    2
    12    31    30    1
    13    29    30    1
    14    10    13    1
    15    23    24    1
    16    24    25    1
    17   107   106    2
    18    30    33    1
    19    28    26    1
    20   106   105    1
    21    13    14    1
    22   108   105    1
    23   108   109    1
    24    25    26    2
    25    26    27    1
    26   111   109    1
    27   105   104    1
    28    50    49    2
    29    33    34    1
    30    14    15    1
    31    49    48    1
    32    16    15    2
    33    34    35    1
    34   112   113    1
    35    15    17   am
    36    51    48    1
    37    51    52    1
    38   117   116    1
    39    48    47    1
    40   116   113    1
    41    35    36    1
    42   113   114    1
    43   103   102    2
    44    36    37    2
    45   102   101    1
    46    52    54   am
    47    52    53    2
    48    37    38    1
    49    37    39    1
    50   114   115    2
    51   114   118   am
    52    55    56    1
    53   101   100    1
    54    93    92    2
    55   118   119    1
    56    56    57    1
    57    56    59    1
    58    92    91    1
    59    57    58    2
    60    43    42    2
    61   119   120    1
    62   119   122    1
    63    42    41    1
    64   121   120    2
    65    59    60    1
    66    97    99   ar
    67    97    95   ar
    68     8     6    1
    69     1     2    1
    70    99    98   ar
    71    91    90    1
    72    91    94    1
    73     6     5    1
    74    95    94    1
    75    95    96   ar
    76    41    40    1
    77    41    44    1
    78    60    61    1
    79    60    62    1
    80    98    96   ar
    81     5     2    1
    82     5     7    1
    83    89    87    1
    84    88    87    1
    85     2     3    1
    86    44    45    1
    87    44    46    1
    88    87    86    2
    89     3     4    2
    90   128   127    1
    91   128   129    1
    92    86    85    1
    93    78    76    1
    94   127   124    1
    95   129   123    1
    96    85    84    1
    97    66    65    2
    98    70    69    1
    99    76    77    1
   100    76    75    1
   101   124   123    1
   102   124   125    1
   103    84    83    1
   104    65    64    1
   105    63    64    1
   106    75    72    1
   107    83    80    1
   108   125   126    2
   109    69    68    1
   110    68    67    1
   111    64    67    1
   112    73    74    2
   113    73    72    1
   114    72    71    1
   115    80    81    1
   116    80    79    1
   117    81    82    2
