@<TRIPOS>MOLECULE
tmp/5nfsA00.pdb
 217 211 0 0 0
SMALL
GASTEIGER

@<TRIPOS>ATOM
      1  N        -16.1260   15.9980   -5.2320 N.3    22  TYR22      -0.1241
      2  CA       -15.7730   15.8990   -3.7910 C.3    22  TYR22       0.1605
      3  C        -14.4510   15.1420   -3.5930 C.2    22  TYR22       0.2264
      4  O        -13.9480   15.0800   -2.4750 O.2    22  TYR22      -0.2867
      5  CB       -16.9240   15.2840   -2.9810 C.3    22  TYR22       0.0534
      6  CG       -18.0160   16.2570   -2.7300 C.ar   22  TYR22      -0.0201
      7  CD1      -18.9400   16.6310   -3.7560 C.ar   22  TYR22      -0.0009
      8  CD2      -18.0710   16.9900   -1.5170 C.ar   22  TYR22      -0.0009
      9  CE1      -19.8690   17.5980   -3.5520 C.ar   22  TYR22       0.0417
     10  CE2      -19.0320   17.9710   -1.3010 C.ar   22  TYR22       0.0417
     11  CZ       -19.9100   18.2900   -2.3290 C.ar   22  TYR22       0.1957
     12  OH       -20.7920   19.2620   -2.1830 O.3    22  TYR22      -0.2866
     13  N        -11.2460   12.0760   -5.0810 N.3    24  GLU24      -0.1231
     14  CA       -10.8860   10.8560   -5.8150 C.3    24  GLU24       0.1699
     15  C        -11.0150    9.6750   -4.9190 C.2    24  GLU24       0.2592
     16  O        -10.5950    9.7210   -3.7550 O.2    24  GLU24      -0.2718
     17  CB        -9.4560   11.0330   -6.3510 C.3    24  GLU24       0.0402
     18  CG        -9.1390    9.9990   -7.4120 C.3    24  GLU24       0.1161
     19  CD        -7.7640   10.2360   -8.0110 C.2    24  GLU24       0.3649
     20  OE1       -7.6230   10.9980   -9.0060 O.co2  24  GLU24      -0.2457
     21  OE2       -6.8270    9.7930   -7.3920 O.co2  24  GLU24      -0.2457
     22  N        -11.6820    8.6260   -5.3990 N.am   25  PHE25      -0.1976
     23  CA       -12.0220    7.4730   -4.6330 C.3    25  PHE25       0.1639
     24  C        -11.7570    6.1900   -5.4410 C.2    25  PHE25       0.2290
     25  O        -11.7530    6.2140   -6.6650 O.2    25  PHE25      -0.2864
     26  CB       -13.5260    7.4420   -4.3380 C.3    25  PHE25       0.0560
     27  CG       -14.0070    8.6700   -3.6010 C.ar   25  PHE25      -0.0200
     28  CD1      -14.2680    9.8130   -4.2760 C.ar   25  PHE25      -0.0042
     29  CD2      -13.9580    8.6980   -2.2170 C.ar   25  PHE25      -0.0042
     30  CE1      -14.6280   11.0010   -3.6200 C.ar   25  PHE25      -0.0003
     31  CE2      -14.3050    9.8770   -1.5430 C.ar   25  PHE25      -0.0003
     32  CZ       -14.6390   11.0170   -2.2460 C.ar   25  PHE25      -0.0000
     33  N        -20.7300    7.1160    0.3700 N.3    39  ARG39      -0.1231
     34  CA       -21.8260    8.0850    0.1490 C.3    39  ARG39       0.1694
     35  C        -21.3160    9.5250   -0.0900 C.2    39  ARG39       0.2592
     36  O        -21.8740   10.2960   -0.9330 O.2    39  ARG39      -0.2718
     37  CB       -22.7900    8.0690    1.3500 C.3    39  ARG39       0.0321
     38  CG       -23.9500    9.0600    1.2930 C.3    39  ARG39       0.0489
     39  CD       -24.7980    9.0090    2.5700 C.3    39  ARG39       0.2205
     40  NE       -26.0860    9.6870    2.3690 N.pl3  39  ARG39      -0.0865
     41  CZ       -27.2550    9.4390    3.0140 C.cat  39  ARG39       0.5346
     42  NH1      -27.3900    8.4910    3.9680 N.pl3  39  ARG39       0.1354
     43  NH2      -28.3350   10.1610    2.6920 N.pl3  39  ARG39       0.1354
     44  N        -20.3190    9.8550    0.7080 N.am   40  HIS40      -0.1976
     45  CA       -19.6810   11.1540    0.6920 C.3    40  HIS40       0.1656
     46  C        -18.9020   11.5110   -0.5820 C.2    40  HIS40       0.2291
     47  O        -18.6530   12.7040   -0.7940 O.2    40  HIS40      -0.2864
     48  CB       -18.8060   11.4100    1.9220 C.3    40  HIS40       0.0771
     49  CG       -17.6570   10.4770    2.0910 C.ar   40  HIS40       0.0820
     50  ND1      -17.7670    9.2410    2.7150 N.ar   40  HIS40      -0.2267
     51  CD2      -16.3410   10.6280    1.7950 C.ar   40  HIS40       0.1154
     52  CE1      -16.5720    8.6670    2.7500 C.ar   40  HIS40       0.1986
     53  NE2      -15.7010    9.4700    2.1650 N.ar   40  HIS40      -0.2212
     54  N        -20.5270   11.6460   -3.2140 N.3    42  LYS42      -0.1245
     55  CA       -21.5680   12.4900   -3.7880 C.3    42  LYS42       0.1561
     56  C        -21.5100   12.6480   -5.3060 C.2    42  LYS42       0.2260
     57  O        -21.4720   13.7790   -5.8300 O.2    42  LYS42      -0.2867
     58  CB       -21.5370   13.8450   -3.1250 C.3    42  LYS42       0.0271
     59  CG       -21.7930   13.8340   -1.6300 C.3    42  LYS42       0.0035
     60  CD       -21.3540   15.1690   -1.0140 C.3    42  LYS42       0.0206
     61  CE       -20.9450   15.0210    0.4440 C.3    42  LYS42       0.1093
     62  NZ       -22.2070   15.1810    1.2770 N.3    42  LYS42      -0.1314
     63  N        -28.2990    6.0890    8.1130 N.3    69  ASN69      -0.1240
     64  CA       -27.2470    6.0530    7.1210 C.3    69  ASN69       0.1653
     65  C        -26.4440    4.7960    7.1280 C.2    69  ASN69       0.2266
     66  O        -26.0030    4.2900    8.1680 O.2    69  ASN69      -0.2867
     67  CB       -26.3710    7.2880    7.3680 C.3    69  ASN69       0.1155
     68  CG       -25.2390    7.4050    6.4190 C.2    69  ASN69       0.2627
     69  OD1      -25.4270    7.3790    5.2080 O.2    69  ASN69      -0.2716
     70  ND2      -24.0440    7.5540    6.9700 N.am   69  ASN69      -0.0877
     71  N        -23.8900    4.8300    4.5620 N.3    71  GLU71      -0.1245
     72  CA       -22.6900    5.4880    4.0010 C.3    71  GLU71       0.1567
     73  C        -22.1860    4.8050    2.7440 C.2    71  GLU71       0.2260
     74  O        -21.0200    4.8890    2.4180 O.2    71  GLU71      -0.2867
     75  CB       -21.5960    5.5910    5.0950 C.3    71  GLU71       0.0388
     76  CG       -20.4750    6.6170    4.8470 C.3    71  GLU71       0.1160
     77  CD       -21.0170    8.0110    4.5140 C.2    71  GLU71       0.3649
     78  OE1      -22.1270    8.4100    4.9590 O.co2  71  GLU71      -0.2457
     79  OE2      -20.3010    8.7170    3.7740 O.co2  71  GLU71      -0.2457
     80  N         -3.2930    8.9220   -6.1560 N.3   108  LYS108     -0.1245
     81  CA        -2.4880    9.0150   -4.9100 C.3   108  LYS108      0.1561
     82  C         -1.9700    7.6340   -4.4320 C.2   108  LYS108      0.2260
     83  O         -0.7610    7.3980   -4.4130 O.2   108  LYS108     -0.2867
     84  CB        -3.3720    9.6200   -3.8230 C.3   108  LYS108      0.0271
     85  CG        -2.7270    9.9720   -2.4860 C.3   108  LYS108      0.0035
     86  CD        -3.0650   11.4120   -2.0180 C.3   108  LYS108      0.0206
     87  CE        -4.5680   11.7090   -1.8540 C.3   108  LYS108      0.1093
     88  NZ        -4.8590   13.0910   -1.3450 N.3   108  LYS108     -0.1314
     89  N        -21.8220    4.1940   14.7110 N.3   125  LEU125     -0.1231
     90  CA       -20.7660    5.2130   14.7500 C.3   125  LEU125      0.1693
     91  C        -21.3620    6.5320   14.3770 C.2   125  LEU125      0.2592
     92  O        -22.0400    6.6320   13.3900 O.2   125  LEU125     -0.2718
     93  CB       -19.6370    4.8900   13.7440 C.3   125  LEU125      0.0284
     94  CG       -18.5570    5.9720   13.5880 C.3   125  LEU125      0.0019
     95  CD1      -17.8330    6.2220   14.9090 C.3   125  LEU125      0.0001
     96  CD2      -17.5610    5.6360   12.5000 C.3   125  LEU125      0.0001
     97  N        -21.0370    7.5630   15.1260 N.am  126  ASN126     -0.1960
     98  CA       -21.3400    8.9170   14.7060 C.3   126  ASN126      0.1819
     99  C        -20.1790    9.3830   13.7980 C.2   126  ASN126      0.2621
    100  O        -19.1150    9.7560   14.2720 O.2   126  ASN126     -0.2715
    101  CB       -21.5260    9.7880   15.9640 C.3   126  ASN126      0.1195
    102  CG       -22.1810   11.1180   15.6560 C.2   126  ASN126      0.2630
    103  OD1      -22.0840   11.6400   14.5290 O.2   126  ASN126     -0.2716
    104  ND2      -22.8430   11.6800   16.6490 N.am  126  ASN126     -0.0877
    105  N        -20.4070    9.3300   12.4930 N.am  127  LEU127     -0.1963
    106  CA       -19.3780    9.4820   11.4800 C.3   127  LEU127      0.1728
    107  C        -19.4870   10.8660   10.8850 C.2   127  LEU127      0.2617
    108  O        -20.3860   11.1410   10.0820 O.2   127  LEU127     -0.2715
    109  CB       -19.5630    8.4350   10.3770 C.3   127  LEU127      0.0311
    110  CG       -18.5690    8.4450    9.2260 C.3   127  LEU127      0.0022
    111  CD1      -17.1430    8.3600    9.7810 C.3   127  LEU127      0.0001
    112  CD2      -18.8630    7.3060    8.2570 C.3   127  LEU127      0.0001
    113  N        -18.5620   11.7380   11.2780 N.am  128  GLY128     -0.1940
    114  CA       -18.5990   13.1550   10.8910 C.3   128  GLY128      0.2014
    115  C        -19.9680   13.7950   11.0960 C.2   128  GLY128      0.2639
    116  O        -20.5900   14.2750   10.1390 O.2   128  GLY128     -0.2714
    117  N        -20.4620   13.7590   12.3260 N.am  129  GLY129     -0.1939
    118  CA       -21.8150   14.2640   12.6250 C.3   129  GLY129      0.2014
    119  C        -22.9990   13.3750   12.2240 C.2   129  GLY129      0.2639
    120  O        -24.1140   13.6780   12.6230 O.2   129  GLY129     -0.2714
    121  N        -22.7910   12.2740   11.4650 N.am  130  THR130     -0.1950
    122  CA       -23.9200   11.3990   11.0670 C.3   130  THR130      0.1897
    123  C        -24.0040   10.0310   11.7250 C.2   130  THR130      0.2313
    124  O        -23.0530    9.2570   11.6540 O.2   130  THR130     -0.2863
    125  CB       -23.9940   11.1900    9.5880 C.3   130  THR130      0.1794
    126  OG1      -23.7910   12.4570    8.9600 O.3   130  THR130     -0.2208
    127  CG2      -25.3850   10.6250    9.2290 C.3   130  THR130      0.0378
    128  N         -5.8810    4.8300    9.2060 N.3   142  THR142     -0.1203
    129  CA        -6.1760    5.1530    7.8200 C.3   142  THR142      0.1994
    130  C         -6.2090    6.6750    7.6660 C.2   142  THR142      0.2618
    131  O         -6.3710    7.4340    8.6690 O.2   142  THR142     -0.2717
    132  CB        -7.4580    4.5010    7.3510 C.3   142  THR142      0.1784
    133  OG1       -8.5280    4.8980    8.2170 O.3   142  THR142     -0.2211
    134  CG2       -7.2700    2.9990    7.3680 C.3   142  THR142      0.0376
    135  N         -5.9730    7.1210    6.4240 N.am  143  ARG143     -0.1965
    136  CA        -5.8370    8.5490    6.1340 C.3   143  ARG143      0.1729
    137  C         -6.6110    8.9120    4.8790 C.2   143  ARG143      0.2616
    138  O         -7.0930    8.0460    4.1080 O.2   143  ARG143     -0.2715
    139  CB        -4.3490    8.9690    6.0940 C.3   143  ARG143      0.0348
    140  CG        -3.6530    8.7730    7.4500 C.3   143  ARG143      0.0492
    141  CD        -2.1380    8.9370    7.4020 C.3   143  ARG143      0.2205
    142  NE        -1.7360   10.2300    6.8160 N.pl3 143  ARG143     -0.0865
    143  CZ        -1.1070   11.2510    7.4310 C.cat 143  ARG143      0.5346
    144  NH1       -0.7350   11.2140    8.7230 N.pl3 143  ARG143      0.1354
    145  NH2       -0.8270   12.3480    6.7210 N.pl3 143  ARG143      0.1354
    146  N         -6.7400   10.2160    4.7110 N.am  144  ALA144     -0.1963
    147  CA        -7.4540   10.7690    3.5910 C.3   144  ALA144      0.1728
    148  C         -6.8880   10.2400    2.2590 C.2   144  ALA144      0.2617
    149  O         -5.6650   10.2280    2.0440 O.2   144  ALA144     -0.2715
    150  CB        -7.3850   12.2760    3.6440 C.3   144  ALA144      0.0334
    151  N         -7.7900    9.7800    1.3790 N.am  145  GLY145     -0.1940
    152  CA        -7.3920    9.2150    0.0780 C.3   145  GLY145      0.2014
    153  C         -7.6330    7.7220    0.0660 C.2   145  GLY145      0.2639
    154  O         -7.4480    7.0700   -0.9460 O.2   145  GLY145     -0.2714
    155  N         -8.1040    7.1840    1.1840 N.am  146  GLN146     -0.1963
    156  CA        -8.3480    5.7430    1.2720 C.3   146  GLN146      0.1733
    157  C         -9.8180    5.4060    1.1340 C.2   146  GLN146      0.2616
    158  O        -10.2000    4.2100    1.0370 O.2   146  GLN146     -0.2715
    159  CB        -7.6950    5.2060    2.5310 C.3   146  GLN146      0.0408
    160  CG        -6.1620    5.3130    2.3930 C.3   146  GLN146      0.0908
    161  CD        -5.3940    4.9510    3.6640 C.2   146  GLN146      0.2608
    162  OE1       -5.9630    4.4940    4.6500 O.2   146  GLN146     -0.2717
    163  NE2       -4.1130    5.1760    3.6420 N.am  146  GLN146     -0.0878
    164  N        -10.6480    6.4590    1.0390 N.am  147  CYS147     -0.1968
    165  CA       -12.0460    6.2280    0.9300 C.3   147  CYS147      0.1712
    166  C        -12.3970    5.5300   -0.3700 C.2   147  CYS147      0.2296
    167  O        -11.9230    5.8970   -1.4620 O.2   147  CYS147     -0.2864
    168  CB       -12.8830    7.4930    1.0940 C.3   147  CYS147      0.0983
    169  SG       -12.9210    7.8920    2.8900 S.3   147  CYS147     -0.0798
    170  N        -14.1520    1.1250    2.6620 N.3   161  HIS161     -0.1226
    171  CA       -13.6290    2.1060    3.6300 C.3   161  HIS161      0.1752
    172  C        -14.2880    3.4690    3.5060 C.2   161  HIS161      0.2596
    173  O        -14.2910    4.0530    2.4120 O.2   161  HIS161     -0.2718
    174  CB       -12.1440    2.2780    3.4700 C.3   161  HIS161      0.0759
    175  CG       -11.5350    3.1830    4.4880 C.ar  161  HIS161      0.0818
    176  ND1      -11.1250    2.7220    5.7270 N.ar  161  HIS161     -0.2268
    177  CD2      -11.2240    4.5050    4.4410 C.ar  161  HIS161      0.1154
    178  CE1      -10.5900    3.7310    6.3940 C.ar  161  HIS161      0.1986
    179  NE2      -10.6970    4.8380    5.6680 N.ar  161  HIS161     -0.2212
    180  N        -14.8480    3.9860    4.5870 N.am  162  VAL162     -0.1966
    181  CA       -15.5830    5.2350    4.5110 C.3   162  VAL162      0.1727
    182  C        -15.1570    6.2590    5.4880 C.2   162  VAL162      0.2617
    183  O        -15.5690    7.4240    5.3530 O.2   162  VAL162     -0.2715
    184  CB       -17.1210    5.0450    4.7240 C.3   162  VAL162      0.0290
    185  CG1      -17.6690    4.2700    3.5200 C.3   162  VAL162      0.0023
    186  CG2      -17.4020    4.3650    6.0540 C.3   162  VAL162      0.0023
    187  N        -14.2680    5.9240    6.4140 N.am  163  GLY163     -0.1940
    188  CA       -13.9120    6.9320    7.3720 C.3   163  GLY163      0.2014
    189  C        -12.8460    6.4370    8.3260 C.2   163  GLY163      0.2639
    190  O        -12.4800    5.2840    8.3500 O.2   163  GLY163     -0.2714
    191  N        -12.4010    7.3620    9.1550 N.am  164  GLY164     -0.1939
    192  CA       -11.3820    7.0700   10.1310 C.3   164  GLY164      0.2014
    193  C        -11.2890    8.2130   11.0920 C.2   164  GLY164      0.2639
    194  O        -11.6870    9.3540   10.7870 O.2   164  GLY164     -0.2714
    195  N        -10.7370    7.9480   12.2660 N.am  165  ASN165     -0.1958
    196  CA       -10.5890    9.0010   13.2820 C.3   165  ASN165      0.1819
    197  C         -9.1270    9.3580   13.5040 C.2   165  ASN165      0.2621
    198  O         -8.7960   10.0640   14.4380 O.2   165  ASN165     -0.2715
    199  CB       -11.2520    8.5750   14.6100 C.3   165  ASN165      0.1195
    200  CG       -10.7920    7.1910   15.0500 C.2   165  ASN165      0.2630
    201  OD1       -9.6040    6.8290   14.8760 O.2   165  ASN165     -0.2716
    202  ND2      -11.7270    6.4060   15.6030 N.am  165  ASN165     -0.0877
    203  N         -8.2460    8.8210   12.6730 N.am  166  GLY166     -0.1954
    204  CA        -6.7960    8.9970   12.8340 C.3   166  GLY166      0.1869
    205  C         -6.0900    7.8140   13.4840 C.2   166  GLY166      0.2309
    206  O         -4.8700    7.7740   13.5510 O.2   166  GLY166     -0.2863
    207  N        -12.8120    2.6120    9.4170 N.3   170  PHE170     -0.1241
    208  CA       -14.1650    2.0500    9.3450 C.3   170  PHE170      0.1605
    209  C        -14.6450    1.8000    7.9290 C.2   170  PHE170      0.2264
    210  O        -14.5260    2.6770    7.0540 O.2   170  PHE170     -0.2867
    211  CB       -15.1460    3.0260   10.0050 C.3   170  PHE170      0.0534
    212  CG       -14.8130    3.3480   11.4200 C.ar  170  PHE170     -0.0203
    213  CD1      -15.2470    2.5350   12.4560 C.ar  170  PHE170     -0.0042
    214  CD2      -14.0550    4.4840   11.7350 C.ar  170  PHE170     -0.0042
    215  CE1      -14.9330    2.8540   13.7600 C.ar  170  PHE170     -0.0003
    216  CE2      -13.7730    4.8120   13.0530 C.ar  170  PHE170     -0.0003
    217  CZ       -14.1840    3.9570   14.0770 C.ar  170  PHE170     -0.0000
@<TRIPOS>BOND
     1    20    19   ar
     2    19    18    1
     3    19    21   ar
     4    18    17    1
     5    25    24    2
     6    17    14    1
     7    80    81    1
     8    57    56    2
     9    14    13    1
    10    14    15    1
    11    24    23    1
    12    22    15   am
    13    22    23    1
    14    56    55    1
    15     1     2    1
    16    15    16    2
    17    81    82    1
    18    81    84    1
    19    23    26    1
    20    82    83    2
    21    26    27    1
    22    28    30   ar
    23    28    27   ar
    24    84    85    1
    25     2     3    1
    26     2     5    1
    27    55    54    1
    28    55    58    1
    29     7     9   ar
    30     7     6   ar
    31    30    32   ar
    32    27    29   ar
    33     3     4    2
    34     9    11   ar
    35    58    59    1
    36     5     6    1
    37     6     8   ar
    38    85    86    1
    39    11    12    1
    40    11    10   ar
    41    32    31   ar
    42    29    31   ar
    43    86    87    1
    44    87    88    1
    45    59    60    1
    46     8    10   ar
    47   167   166    2
    48    60    61    1
    49   154   153    2
    50    36    35    2
    51    47    46    2
    52    46    45    1
    53   166   165    1
    54    35    34    1
    55    35    44   am
    56   153   152    1
    57   153   155   am
    58   152   151    1
    59    34    33    1
    60    34    37    1
    61    61    62    1
    62    45    44    1
    63    45    48    1
    64   165   164    1
    65   165   168    1
    66   158   157    2
    67   164   157   am
    68   168   169    1
    69   157   156    1
    70   155   156    1
    71   156   159    1
    72    38    37    1
    73    38    39    1
    74   151   148   am
    75    51    49   ar
    76    51    53   ar
    77    48    49    1
    78   149   148    2
    79    49    50   ar
    80    53    52   ar
    81   148   147    1
    82    40    39    1
    83    40    41    2
    84   160   159    1
    85   160   161    1
    86   173   172    2
    87    74    73    2
    88   170   171    1
    89    43    41    1
    90    50    52   ar
    91    73    72    1
    92    41    42    1
    93   174   171    1
    94   174   175    1
    95   172   171    1
    96   172   180   am
    97   185   184    1
    98   147   150    1
    99   147   146    1
   100   163   161   am
   101   161   162    2
   102    79    77   ar
   103    72    71    1
   104    72    75    1
   105   138   137    2
   106   177   175   ar
   107   177   179   ar
   108   175   176   ar
   109   181   180    1
   110   181   184    1
   111   181   182    1
   112    77    76    1
   113    77    78   ar
   114   146   137   am
   115   184   186    1
   116    76    75    1
   117   137   136    1
   118    69    68    2
   119   183   182    2
   120   182   187   am
   121   179   178   ar
   122   176   178   ar
   123   139   136    1
   124   139   140    1
   125   136   135    1
   126   187   188    1
   127    68    70   am
   128    68    67    1
   129   135   130   am
   130   145   143    1
   131   142   141    1
   132   142   143    2
   133   210   209    2
   134    64    65    1
   135    64    67    1
   136    64    63    1
   137    65    66    2
   138   132   134    1
   139   132   129    1
   140   132   133    1
   141   188   189    1
   142   141   140    1
   143   143   144    1
   144   130   129    1
   145   130   131    2
   146   129   128    1
   147   209   208    1
   148   112   110    1
   149   189   190    2
   150   189   191   am
   151   126   125    1
   152   191   192    1
   153   110   111    1
   154   110   109    1
   155   127   125    1
   156   208   207    1
   157   208   211    1
   158   125   122    1
   159   211   212    1
   160   108   107    2
   161   192   193    1
   162   116   115    2
   163   109   106    1
   164   194   193    2
   165   107   113   am
   166   107   106    1
   167   114   115    1
   168   114   113    1
   169   122   121    1
   170   122   123    1
   171   193   195   am
   172   115   117   am
   173   212   214   ar
   174   212   213   ar
   175   121   119   am
   176   106   105    1
   177   124   123    2
   178   214   216   ar
   179   119   120    2
   180   119   118    1
   181   195   196    1
   182   117   118    1
   183   213   215   ar
   184   105    99   am
   185    96    94    1
   186   203   204    1
   187   203   197   am
   188   204   205    1
   189   216   217   ar
   190   196   197    1
   191   196   199    1
   192    92    91    2
   193   205   206    2
   194   197   198    2
   195    94    93    1
   196    94    95    1
   197    93    90    1
   198   215   217   ar
   199    99   100    2
   200    99    98    1
   201    91    90    1
   202    91    97   am
   203   103   102    2
   204   199   200    1
   205    98    97    1
   206    98   101    1
   207    89    90    1
   208   201   200    2
   209   200   202   am
   210   102   101    1
   211   102   104   am
