@<TRIPOS>MOLECULE
tmp/5nftA01.pdb
 199 187 0 0 0
SMALL
GASTEIGER

@<TRIPOS>ATOM
      1  N         -4.5570  -44.6340  -14.4220 N.3    32  MET32      -0.1245
      2  CA        -4.1980  -43.2120  -14.4600 C.3    32  MET32       0.1570
      3  C         -5.3400  -42.3340  -13.9120 C.2    32  MET32       0.2261
      4  O         -5.0760  -41.4340  -13.1170 O.2    32  MET32      -0.2867
      5  CB        -3.8290  -42.7970  -15.8910 C.3    32  MET32       0.0387
      6  CG        -3.2270  -41.4110  -15.9920 C.3    32  MET32       0.0595
      7  SD        -2.3690  -41.1030  -17.5510 S.3    32  MET32      -0.1393
      8  CE        -1.1250  -42.4100  -17.5280 C.3    32  MET32       0.0692
      9  N         -5.7330  -43.0060  -10.1410 N.3    35  LEU35      -0.1231
     10  CA        -4.5950  -42.4120   -9.4420 C.3    35  LEU35       0.1693
     11  C         -4.6690  -40.8970   -9.3780 C.2    35  LEU35       0.2592
     12  O         -4.2350  -40.3220   -8.3780 O.2    35  LEU35      -0.2718
     13  CB        -3.2490  -42.8920  -10.0030 C.3    35  LEU35       0.0284
     14  CG        -2.9270  -44.3660   -9.7570 C.3    35  LEU35       0.0019
     15  CD1       -1.5570  -44.7250  -10.3140 C.3    35  LEU35       0.0001
     16  CD2       -3.0220  -44.7160   -8.2810 C.3    35  LEU35       0.0001
     17  N         -5.2690  -40.2510  -10.4030 N.am   36  ASN36      -0.1974
     18  CA        -5.4660  -38.8010  -10.3870 C.3    36  ASN36       0.1688
     19  C         -6.4750  -38.4540   -9.3250 C.2    36  ASN36       0.2292
     20  O         -6.2330  -37.5330   -8.5550 O.2    36  ASN36      -0.2864
     21  CB        -5.9410  -38.2840  -11.7480 C.3    36  ASN36       0.1181
     22  CG        -4.8400  -38.1930  -12.7540 C.2    36  ASN36       0.2629
     23  OD1       -3.6630  -38.2860  -12.4190 O.2    36  ASN36      -0.2716
     24  ND2       -5.1970  -37.9910  -14.0100 N.am   36  ASN36      -0.0877
     25  N         -7.2890  -40.2790   -6.6450 N.3    38  LEU38      -0.1231
     26  CA        -6.6220  -40.5620   -5.3740 C.3    38  LEU38       0.1693
     27  C         -5.6370  -39.4330   -5.0340 C.2    38  LEU38       0.2592
     28  O         -5.5890  -38.9980   -3.8850 O.2    38  LEU38      -0.2718
     29  CB        -5.8950  -41.9260   -5.4330 C.3    38  LEU38       0.0284
     30  CG        -5.0530  -42.3660   -4.1950 C.3    38  LEU38       0.0019
     31  CD1       -5.9090  -42.3820   -2.8950 C.3    38  LEU38       0.0001
     32  CD2       -4.3900  -43.7420   -4.4470 C.3    38  LEU38       0.0001
     33  N         -4.8920  -38.9620   -6.0450 N.am   39  GLY39      -0.1957
     34  CA        -3.9280  -37.8750   -5.9230 C.3    39  GLY39       0.1869
     35  C         -4.5100  -36.5910   -5.3670 C.2    39  GLY39       0.2309
     36  O         -3.8480  -35.9040   -4.5890 O.2    39  GLY39      -0.2863
     37  N         -4.9120  -37.1640   -1.6980 N.3    42  GLN42      -0.1245
     38  CA        -3.5710  -37.1410   -1.0830 C.3    42  GLN42       0.1566
     39  C         -3.1530  -35.6860   -0.8540 C.2    42  GLN42       0.2260
     40  O         -2.5910  -35.3670    0.1940 O.2    42  GLN42      -0.2867
     41  CB        -2.5120  -37.8160   -1.9950 C.3    42  GLN42       0.0367
     42  CG        -2.7980  -39.2760   -2.3720 C.3    42  GLN42       0.0905
     43  CD        -2.5790  -40.3100   -1.2880 C.2    42  GLN42       0.2608
     44  OE1       -2.5370  -40.0260   -0.0830 O.2    42  GLN42      -0.2717
     45  NE2       -2.4650  -41.5580   -1.7060 N.am   42  GLN42      -0.0878
     46  N          3.9000  -29.7790   -4.5280 N.3    72  TRP72      -0.1227
     47  CA         2.9100  -30.8690   -4.5730 C.3    72  TRP72       0.1737
     48  C          3.4520  -32.2180   -5.1520 C.2    72  TRP72       0.2595
     49  O          3.3800  -33.2410   -4.4710 O.2    72  TRP72      -0.2718
     50  CB         1.6260  -30.4220   -5.2970 C.3    72  TRP72       0.0564
     51  CG         1.7290  -30.3360   -6.7870 C.ar   72  TRP72       0.0003
     52  CD1        2.4180  -29.4100   -7.5080 C.ar   72  TRP72       0.0946
     53  CD2        1.1410  -31.2310   -7.7400 C.ar   72  TRP72       0.0152
     54  NE1        2.2950  -29.6680   -8.8520 N.ar   72  TRP72      -0.2442
     55  CE2        1.4990  -30.7690   -9.0250 C.ar   72  TRP72       0.0810
     56  CE3        0.3530  -32.3900   -7.6330 C.ar   72  TRP72       0.0012
     57  CZ2        1.0720  -31.4040  -10.1970 C.ar   72  TRP72       0.0191
     58  CZ3       -0.0600  -33.0250   -8.7970 C.ar   72  TRP72       0.0001
     59  CH2        0.2890  -32.5290  -10.0580 C.ar   72  TRP72       0.0015
     60  N          4.0190  -32.2070   -6.3660 N.am   73  MET73      -0.1979
     61  CA         4.5190  -33.4270   -7.0120 C.3    73  MET73       0.1605
     62  C          5.7630  -33.9910   -6.3170 C.2    73  MET73       0.2287
     63  O          5.9330  -35.2110   -6.2610 O.2    73  MET73      -0.2864
     64  CB         4.7440  -33.2230   -8.5320 C.3    73  MET73       0.0413
     65  CG         5.1120  -34.5240   -9.2850 C.3    73  MET73       0.0598
     66  SD         3.9300  -35.8790   -9.0040 S.3    73  MET73      -0.1393
     67  CE         2.7320  -35.4960  -10.2750 C.3    73  MET73       0.0692
     68  N          4.4240  -35.7930   -3.2590 N.3    76  MET76      -0.1245
     69  CA         3.7470  -37.0100   -3.6820 C.3    76  MET76       0.1570
     70  C          4.7040  -38.0910   -4.1650 C.2    76  MET76       0.2261
     71  O          4.5800  -39.2280   -3.7190 O.2    76  MET76      -0.2867
     72  CB         2.6610  -36.6920   -4.7000 C.3    76  MET76       0.0387
     73  CG         1.5110  -35.9350   -4.0400 C.3    76  MET76       0.0595
     74  SD        -0.1080  -36.4710   -4.5480 S.3    76  MET76      -0.1393
     75  CE        -0.1070  -35.8550   -6.2490 C.3    76  MET76       0.0692
     76  N          6.7570  -39.2440   -0.8800 N.3    79  ALA79      -0.1231
     77  CA         5.9210  -40.0240    0.0300 C.3    79  ALA79       0.1694
     78  C          5.6160  -41.3950   -0.5930 C.2    79  ALA79       0.2591
     79  O          5.6810  -42.4050    0.1040 O.2    79  ALA79      -0.2718
     80  CB         4.6430  -39.2640    0.3680 C.3    79  ALA79       0.0304
     81  N          5.3580  -41.4340   -1.9150 N.am   80  LEU80      -0.1980
     82  CA         5.1130  -42.6840   -2.6450 C.3    80  LEU80       0.1596
     83  C          6.3610  -43.5960   -2.6340 C.2    80  LEU80       0.2287
     84  O          6.2480  -44.8020   -2.3780 O.2    80  LEU80      -0.2864
     85  CB         4.6470  -42.4040   -4.0830 C.3    80  LEU80       0.0297
     86  CG         4.5290  -43.6280   -5.0130 C.3    80  LEU80       0.0022
     87  CD1        3.4530  -44.6170   -4.5290 C.3    80  LEU80       0.0001
     88  CD2        4.3040  -43.2030   -6.4410 C.3    80  LEU80       0.0001
     89  N          6.7530  -45.1860    0.7860 N.3    83  ARG83      -0.1245
     90  CA         5.7830  -46.2620    0.9630 C.3    83  ARG83       0.1563
     91  C          6.1210  -47.5070    0.1580 C.2    83  ARG83       0.2260
     92  O          5.9380  -48.6110    0.6610 O.2    83  ARG83      -0.2867
     93  CB         4.3500  -45.7990    0.6970 C.3    83  ARG83       0.0307
     94  CG         3.4070  -46.4780    1.6770 C.3    83  ARG83       0.0489
     95  CD         1.9950  -46.0060    1.5730 C.3    83  ARG83       0.2205
     96  NE         1.7790  -44.7040    2.1990 N.pl3  83  ARG83      -0.0865
     97  CZ         0.7020  -43.9660    1.9740 C.cat  83  ARG83       0.5346
     98  NH1        0.5560  -42.7980    2.5780 N.pl3  83  ARG83       0.1354
     99  NH2       -0.2430  -44.3940    1.1520 N.pl3  83  ARG83       0.1354
    100  N          3.5820  -48.6770   -4.5400 N.3    94  CYS94      -0.1221
    101  CA         2.4680  -48.8720   -3.6150 C.3    94  CYS94       0.1808
    102  C          1.6540  -47.5910   -3.4560 C.2    94  CYS94       0.2601
    103  O          1.7460  -46.9070   -2.4320 O.2    94  CYS94      -0.2717
    104  CB         2.9560  -49.4160   -2.2710 C.3    94  CYS94       0.0970
    105  SG         3.9380  -50.9370   -2.4020 S.3    94  CYS94      -0.0800
    106  N          0.8620  -47.2600   -4.4840 N.am   95  PHE95      -0.1976
    107  CA         0.0220  -46.0550   -4.4950 C.3    95  PHE95       0.1639
    108  C         -1.0520  -46.1230   -3.4150 C.2    95  PHE95       0.2290
    109  O         -1.3440  -45.1210   -2.7660 O.2    95  PHE95      -0.2864
    110  CB        -0.6230  -45.8570   -5.8730 C.3    95  PHE95       0.0560
    111  CG         0.2560  -45.2180   -6.9190 C.ar   95  PHE95      -0.0200
    112  CD1        0.3200  -43.8320   -7.0460 C.ar   95  PHE95      -0.0042
    113  CD2        0.9860  -46.0000   -7.8120 C.ar   95  PHE95      -0.0042
    114  CE1        1.1050  -43.2430   -8.0370 C.ar   95  PHE95      -0.0003
    115  CE2        1.7690  -45.4080   -8.8080 C.ar   95  PHE95      -0.0003
    116  CZ         1.8290  -44.0330   -8.9080 C.ar   95  PHE95      -0.0000
    117  N          2.3960  -47.2400  -19.3530 N.3   111  MET111     -0.1245
    118  CA         2.4350  -47.2220  -17.8830 C.3   111  MET111      0.1570
    119  C          3.8040  -46.8390  -17.3130 C.2   111  MET111      0.2261
    120  O          3.8790  -46.0380  -16.3800 O.2   111  MET111     -0.2867
    121  CB         1.9630  -48.5640  -17.2870 C.3   111  MET111      0.0387
    122  CG         1.7840  -48.5290  -15.7730 C.3   111  MET111      0.0595
    123  SD         0.5160  -47.3570  -15.2100 S.3   111  MET111     -0.1393
    124  CE        -0.9050  -48.3260  -15.4220 C.3   111  MET111      0.0692
    125  N          5.7270  -42.8420  -16.9710 N.3   114  GLN114     -0.1231
    126  CA         5.5080  -42.0250  -15.7870 C.3   114  GLN114      0.1698
    127  C          5.9770  -42.7350  -14.5020 C.2   114  GLN114      0.2592
    128  O          6.6050  -42.1090  -13.6450 O.2   114  GLN114     -0.2718
    129  CB         4.0400  -41.5640  -15.7150 C.3   114  GLN114      0.0381
    130  CG         3.8030  -40.3250  -14.8600 C.3   114  GLN114      0.0905
    131  CD         4.3820  -39.0210  -15.3740 C.2   114  GLN114      0.2608
    132  OE1        5.4650  -38.9560  -15.9700 O.2   114  GLN114     -0.2717
    133  NE2        3.7310  -37.9240  -15.0230 N.am  114  GLN114     -0.0878
    134  N          5.7200  -44.0520  -14.4040 N.am  115  CYS115     -0.1970
    135  CA         6.0730  -44.8880  -13.2550 C.3   115  CYS115      0.1712
    136  C          7.5820  -45.0150  -13.0020 C.2   115  CYS115      0.2296
    137  O          7.9710  -45.1960  -11.8490 O.2   115  CYS115     -0.2864
    138  CB         5.4080  -46.2550  -13.3630 C.3   115  CYS115      0.0983
    139  SG         3.6170  -46.2300  -13.0720 S.3   115  CYS115     -0.0798
    140  N          9.0220  -42.4550  -10.5400 N.3   118  MET118     -0.1245
    141  CA         8.6050  -42.8450   -9.1990 C.3   118  MET118      0.1570
    142  C          9.4760  -43.9970   -8.7060 C.2   118  MET118      0.2261
    143  O          9.8560  -44.0150   -7.5280 O.2   118  MET118     -0.2867
    144  CB         7.1110  -43.2480   -9.1790 C.3   118  MET118      0.0387
    145  CG         6.1610  -42.1470   -9.5950 C.3   118  MET118      0.0595
    146  SD         6.3060  -40.7280   -8.4970 S.3   118  MET118     -0.1393
    147  CE         4.7680  -39.8510   -8.8950 C.3   118  MET118      0.0692
    148  N          8.0880  -35.7400  -14.3520 N.3   204  LEU204     -0.1245
    149  CA         6.7040  -36.0790  -14.0030 C.3   204  LEU204      0.1561
    150  C          5.7520  -34.9820  -14.4610 C.2   204  LEU204      0.2260
    151  O          4.6970  -35.2820  -15.0180 O.2   204  LEU204     -0.2867
    152  CB         6.5510  -36.2790  -12.4850 C.3   204  LEU204      0.0270
    153  CG         7.1290  -37.5760  -11.8850 C.3   204  LEU204      0.0019
    154  CD1        7.2250  -37.4700  -10.3900 C.3   204  LEU204      0.0001
    155  CD2        6.3100  -38.8020  -12.2810 C.3   204  LEU204      0.0001
    156  N          5.0250  -34.6430  -18.4750 N.3   207  TYR207     -0.1227
    157  CA         4.0130  -35.5960  -18.9010 C.3   207  TYR207      0.1736
    158  C          2.6390  -35.2000  -18.3280 C.2   207  TYR207      0.2595
    159  O          1.6460  -35.2260  -19.0540 O.2   207  TYR207     -0.2718
    160  CB         4.4180  -36.9990  -18.4240 C.3   207  TYR207      0.0548
    161  CG         3.5180  -38.1090  -18.9130 C.ar  207  TYR207     -0.0200
    162  CD1        2.3430  -38.4300  -18.2390 C.ar  207  TYR207     -0.0009
    163  CD2        3.8630  -38.8720  -20.0250 C.ar  207  TYR207     -0.0009
    164  CE1        1.5090  -39.4510  -18.6860 C.ar  207  TYR207      0.0417
    165  CE2        3.0390  -39.9000  -20.4780 C.ar  207  TYR207      0.0417
    166  CZ         1.8660  -40.1920  -19.8000 C.ar  207  TYR207      0.1957
    167  OH         1.0500  -41.2080  -20.2340 O.3   207  TYR207     -0.2866
    168  N          2.5880  -34.8590  -17.0240 N.am  208  CYS208     -0.1970
    169  CA         1.3660  -34.4780  -16.3150 C.3   208  CYS208      0.1712
    170  C          0.6910  -33.2380  -16.9150 C.2   208  CYS208      0.2296
    171  O         -0.5300  -33.2400  -17.1040 O.2   208  CYS208     -0.2864
    172  CB         1.6340  -34.3100  -14.8230 C.3   208  CYS208      0.0983
    173  SG         0.1450  -34.0400  -13.8330 S.3   208  CYS208     -0.0798
    174  N         -0.8080  -34.1740  -20.3980 N.3   211  THR211     -0.1218
    175  CA        -1.9870  -35.0250  -20.1830 C.3   211  THR211      0.1862
    176  C         -3.1890  -34.1740  -19.7390 C.2   211  THR211      0.2287
    177  O         -4.3090  -34.4010  -20.2060 O.2   211  THR211     -0.2866
    178  CB        -1.6450  -36.1580  -19.1960 C.3   211  THR211      0.1770
    179  OG1       -0.4730  -36.8440  -19.6500 O.3   211  THR211     -0.2211
    180  CG2       -2.7580  -37.1620  -19.0520 C.3   211  THR211      0.0375
    181  N         -8.8400  -35.1310  -13.9810 N.3   221  PHE221     -0.1241
    182  CA        -8.0880  -34.6600  -12.8340 C.3   221  PHE221      0.1605
    183  C         -9.1140  -34.0590  -11.8800 C.2   221  PHE221      0.2264
    184  O         -9.9960  -33.3180  -12.3340 O.2   221  PHE221     -0.2867
    185  CB        -7.0560  -33.5980  -13.2370 C.3   221  PHE221      0.0534
    186  CG        -5.8390  -34.1450  -13.9510 C.ar  221  PHE221     -0.0203
    187  CD1       -5.8810  -34.4310  -15.3130 C.ar  221  PHE221     -0.0042
    188  CD2       -4.6440  -34.3440  -13.2680 C.ar  221  PHE221     -0.0042
    189  CE1       -4.7560  -34.9260  -15.9700 C.ar  221  PHE221     -0.0003
    190  CE2       -3.5120  -34.8180  -13.9340 C.ar  221  PHE221     -0.0003
    191  CZ        -3.5740  -35.1010  -15.2790 C.ar  221  PHE221     -0.0000
    192  N         -6.2180  -31.1490   -8.0080 N.3   225  LEU225     -0.1245
    193  CA        -5.0880  -31.2280   -8.9380 C.3   225  LEU225      0.1561
    194  C         -5.2290  -30.2690  -10.0970 C.2   225  LEU225      0.2260
    195  O         -4.2450  -29.6230  -10.4460 O.2   225  LEU225     -0.2867
    196  CB        -4.8260  -32.6760   -9.4170 C.3   225  LEU225      0.0270
    197  CG        -4.5220  -33.7170   -8.3130 C.3   225  LEU225      0.0019
    198  CD1       -4.0270  -35.0170   -8.9130 C.3   225  LEU225      0.0001
    199  CD2       -3.5040  -33.1810   -7.2860 C.3   225  LEU225      0.0001
@<TRIPOS>BOND
     1   165   163   ar
     2   165   166   ar
     3   174   175    1
     4   167   166    1
     5   177   176    2
     6   175   176    1
     7   175   178    1
     8   163   161   ar
     9   166   164   ar
    10   179   178    1
    11   117   118    1
    12   178   180    1
    13   159   158    2
    14   161   160    1
    15   161   162   ar
    16   157   156    1
    17   157   160    1
    18   157   158    1
    19   164   162   ar
    20   158   168   am
    21   118   119    1
    22   118   121    1
    23     7     8    1
    24     7     6    1
    25   119   120    2
    26   121   122    1
    27   171   170    2
    28   168   169    1
    29   125   126    1
    30   170   169    1
    31   169   172    1
    32     6     5    1
    33   189   187   ar
    34   189   191   ar
    35   132   131    2
    36     5     2    1
    37   126   129    1
    38   126   127    1
    39   122   123    1
    40   129   130    1
    41   124   123    1
    42   131   133   am
    43   131   130    1
    44   187   186   ar
    45   191   190   ar
    46   151   150    2
    47   172   173    1
    48   127   134   am
    49   127   128    2
    50   150   149    1
    51     2     1    1
    52     2     3    1
    53   134   135    1
    54   148   149    1
    55    24    22   am
    56   149   152    1
    57   181   182    1
    58   186   188   ar
    59   186   185    1
    60   190   188   ar
    61     3     4    2
    62   138   135    1
    63   138   139    1
    64   135   136    1
    65   185   182    1
    66   136   137    2
    67   182   183    1
    68    22    23    2
    69    22    21    1
    70   152   153    1
    71   184   183    2
    72   155   153    1
    73   153   154    1
    74    21    18    1
    75   140   141    1
    76   195   194    2
    77    17    18    1
    78    17    11   am
    79    18    19    1
    80    15    14    1
    81    67    66    1
    82    57    59   ar
    83    57    55   ar
    84     9    10    1
    85   194   193    1
    86    59    58   ar
    87    13    14    1
    88    13    10    1
    89    14    16    1
    90   145   144    1
    91   145   146    1
    92    10    11    1
    93   196   193    1
    94   196   197    1
    95    11    12    2
    96    19    20    2
    97    65    66    1
    98    65    64    1
    99   141   144    1
   100   141   142    1
   101    55    54   ar
   102    55    53   ar
   103   193   192    1
   104   198   197    1
   105   116   115   ar
   106   116   114   ar
   107   147   146    1
   108    54    52   ar
   109   115   113   ar
   110    58    56   ar
   111   142   143    2
   112    64    61    1
   113   197   199    1
   114   114   112   ar
   115   113   111   ar
   116    53    56   ar
   117    53    51   ar
   118    52    51   ar
   119   112   111   ar
   120    61    60    1
   121    61    62    1
   122   111   110    1
   123    51    50    1
   124    25    26    1
   125    88    86    1
   126    60    48   am
   127    62    63    2
   128    75    74    1
   129    33    34    1
   130    33    27   am
   131    34    35    1
   132   110   107    1
   133    29    26    1
   134    29    30    1
   135    26    27    1
   136    35    36    2
   137    50    47    1
   138    48    47    1
   139    48    49    2
   140    27    28    2
   141    86    87    1
   142    86    85    1
   143    72    73    1
   144    72    69    1
   145    47    46    1
   146    74    73    1
   147   100   101    1
   148   107   106    1
   149   107   108    1
   150   106   102   am
   151    32    30    1
   152    30    31    1
   153    70    71    2
   154    70    69    1
   155    85    82    1
   156    69    68    1
   157   101   102    1
   158   101   104    1
   159   102   103    2
   160   108   109    2
   161    82    83    1
   162    82    81    1
   163    83    84    2
   164   105   104    1
   165    42    41    1
   166    42    43    1
   167    41    38    1
   168    81    78   am
   169    45    43   am
   170    37    38    1
   171    43    44    2
   172    38    39    1
   173    76    77    1
   174    39    40    2
   175    78    77    1
   176    78    79    2
   177    77    80    1
   178    91    92    2
   179    91    90    1
   180    93    90    1
   181    93    94    1
   182    89    90    1
   183    99    97    1
   184    95    94    1
   185    95    96    1
   186    97    96    2
   187    97    98    1
