@<TRIPOS>MOLECULE
tmp/5nfzB00.pdb
 148 136 0 0 0
SMALL
GASTEIGER

@<TRIPOS>ATOM
      1  N         11.4370   64.4720   33.4060 N.3   235  VAL235     -0.1245
      2  CA        12.6270   64.2940   34.2290 C.3   235  VAL235      0.1561
      3  C         13.6720   65.3690   33.9770 C.2   235  VAL235      0.2260
      4  O         14.6220   65.4780   34.7490 O.2   235  VAL235     -0.2867
      5  CB        13.2710   62.8980   34.0520 C.3   235  VAL235      0.0252
      6  CG1       12.2720   61.7960   34.3260 C.3   235  VAL235      0.0019
      7  CG2       13.8840   62.7430   32.6690 C.3   235  VAL235      0.0019
      8  N         13.8060   70.3110   35.6750 N.3   238  CYS238     -0.1221
      9  CA        14.6560   71.1400   36.5310 C.3   238  CYS238      0.1808
     10  C         15.9410   71.5590   35.8440 C.2   238  CYS238      0.2601
     11  O         16.5660   72.5290   36.2790 O.2   238  CYS238     -0.2717
     12  CB        14.9950   70.4090   37.8290 C.3   238  CYS238      0.0970
     13  SG        13.5310   70.1460   38.8170 S.3   238  CYS238     -0.0800
     14  N         16.3640   70.8370   34.8020 N.am  239  LEU239     -0.1979
     15  CA        17.4630   71.3310   33.9820 C.3   239  LEU239      0.1596
     16  C         17.0160   72.4840   33.0960 C.2   239  LEU239      0.2287
     17  O         17.8070   73.3910   32.8060 O.2   239  LEU239     -0.2864
     18  CB        18.0230   70.2100   33.1100 C.3   239  LEU239      0.0297
     19  CG        18.4740   68.8980   33.7530 C.3   239  LEU239      0.0022
     20  CD1       18.5750   67.7930   32.7080 C.3   239  LEU239      0.0001
     21  CD2       19.8220   69.0930   34.4480 C.3   239  LEU239      0.0001
     22  N         15.1560   74.6950   43.4940 N.3   245  LEU245     -0.1245
     23  CA        16.2020   73.6960   43.3200 C.3   245  LEU245      0.1561
     24  C         17.2050   74.2450   42.3180 C.2   245  LEU245      0.2260
     25  O         16.8350   74.6470   41.2070 O.2   245  LEU245     -0.2867
     26  CB        15.6230   72.3620   42.8370 C.3   245  LEU245      0.0270
     27  CG        16.5570   71.1440   42.8660 C.3   245  LEU245      0.0019
     28  CD1       16.6880   70.5770   44.2640 C.3   245  LEU245      0.0001
     29  CD2       16.1230   70.0600   41.8800 C.3   245  LEU245      0.0001
     30  N         20.0260   72.7640   40.7790 N.3   247  ALA247     -0.1231
     31  CA        20.6910   71.4740   40.6780 C.3   247  ALA247      0.1694
     32  C         20.7510   70.9970   39.2310 C.2   247  ALA247      0.2592
     33  O         19.8400   71.2270   38.4320 O.2   247  ALA247     -0.2718
     34  CB        19.9880   70.4300   41.5600 C.3   247  ALA247      0.0304
     35  N         21.8490   70.3110   38.9120 N.am  248  ASP248     -0.1960
     36  CA        22.1100   69.8110   37.5690 C.3   248  ASP248      0.1840
     37  C         22.2580   68.2930   37.5910 C.2   248  ASP248      0.2621
     38  O         21.8490   67.6520   38.5610 O.2   248  ASP248     -0.2715
     39  CB        23.3630   70.4840   37.0010 C.3   248  ASP248      0.1450
     40  CG        24.5770   70.2720   37.8740 C.2   248  ASP248      0.3671
     41  OD1       24.5100   69.4180   38.7900 O.co2 248  ASP248     -0.2456
     42  OD2       25.6140   70.9220   37.6260 O.co2 248  ASP248     -0.2456
     43  N         22.8540   67.7130   36.5400 N.am  249  LEU249     -0.1977
     44  CA        22.9360   66.2560   36.4350 C.3   249  LEU249      0.1596
     45  C         23.8430   65.6480   37.5040 C.2   249  LEU249      0.2287
     46  O         23.6060   64.5160   37.9500 O.2   249  LEU249     -0.2864
     47  CB        23.4390   65.8540   35.0460 C.3   249  LEU249      0.0297
     48  CG        22.5070   66.0750   33.8570 C.3   249  LEU249      0.0022
     49  CD1       23.2840   65.8680   32.5510 C.3   249  LEU249      0.0001
     50  CD2       21.3320   65.1350   33.9260 C.3   249  LEU249      0.0001
     51  N         24.4670   66.9240   40.6520 N.3   251  LYS251     -0.1231
     52  CA        23.7050   66.9300   41.8960 C.3   251  LYS251      0.1693
     53  C         22.6360   65.8370   41.8980 C.2   251  LYS251      0.2591
     54  O         22.3650   65.2230   42.9400 O.2   251  LYS251     -0.2718
     55  CB        23.0880   68.3120   42.1320 C.3   251  LYS251      0.0285
     56  CG        24.0650   69.3050   42.7480 C.3   251  LYS251      0.0035
     57  CD        23.4430   70.6760   43.0620 C.3   251  LYS251      0.0206
     58  CE        24.4950   71.6070   43.6540 C.3   251  LYS251      0.1093
     59  NZ        23.9340   72.9280   44.0720 N.3   251  LYS251     -0.1314
     60  N         22.0140   65.5790   40.7460 N.am  252  LEU252     -0.1980
     61  CA        21.0710   64.4640   40.6660 C.3   252  LEU252      0.1596
     62  C         21.7680   63.1470   40.9840 C.2   252  LEU252      0.2287
     63  O         21.2720   62.3450   41.7820 O.2   252  LEU252     -0.2864
     64  CB        20.4250   64.4000   39.2810 C.3   252  LEU252      0.0297
     65  CG        19.3620   63.3150   39.0950 C.3   252  LEU252      0.0022
     66  CD1       18.1110   63.6090   39.9470 C.3   252  LEU252      0.0001
     67  CD2       19.0000   63.1860   37.6250 C.3   252  LEU252      0.0001
     68  N         22.7920   62.6430   44.7830 N.3   255  ASN255     -0.1225
     69  CA        21.7530   62.3920   45.7670 C.3   255  ASN255      0.1785
     70  C         20.8750   61.1970   45.4260 C.2   255  ASN255      0.2597
     71  O         20.1700   60.6990   46.3080 O.2   255  ASN255     -0.2718
     72  CB        20.8960   63.6530   45.9550 C.3   255  ASN255      0.1169
     73  CG        21.6980   64.8010   46.6010 C.2   255  ASN255      0.2627
     74  OD1       21.9770   64.7800   47.8090 O.2   255  ASN255     -0.2716
     75  ND2       22.1130   65.7720   45.7880 N.am  255  ASN255     -0.0877
     76  N         20.9130   60.7110   44.1870 N.am  256  MET256     -0.1979
     77  CA        20.1060   59.5600   43.8210 C.3   256  MET256      0.1605
     78  C         20.8620   58.2440   43.9050 C.2   256  MET256      0.2287
     79  O         20.2230   57.2040   43.9910 O.2   256  MET256     -0.2864
     80  CB        19.5510   59.7290   42.3970 C.3   256  MET256      0.0413
     81  CG        18.4920   60.8230   42.2760 C.3   256  MET256      0.0598
     82  SD        16.9790   60.4400   43.2070 S.3   256  MET256     -0.1393
     83  CE        16.3360   59.0480   42.2700 C.3   256  MET256      0.0692
     84  N         16.1030   55.9180   46.9910 N.3   307  THR307     -0.1203
     85  CA        15.9510   57.3620   46.8240 C.3   307  THR307      0.1994
     86  C         14.8120   57.5830   45.8390 C.2   307  THR307      0.2618
     87  O         14.5790   56.7500   44.9540 O.2   307  THR307     -0.2717
     88  CB        17.2100   58.0480   46.2430 C.3   307  THR307      0.1784
     89  OG1       17.6020   57.3460   45.0580 O.3   307  THR307     -0.2211
     90  CG2       18.4030   58.0440   47.2070 C.3   307  THR307      0.0376
     91  N         14.1180   58.7090   45.9780 N.am  308  VAL308     -0.1965
     92  CA        13.0530   59.0850   45.0530 C.3   308  VAL308      0.1727
     93  C         13.1680   60.5760   44.7650 C.2   308  VAL308      0.2616
     94  O         13.3960   61.3790   45.6760 O.2   308  VAL308     -0.2715
     95  CB        11.6450   58.7600   45.6160 C.3   308  VAL308      0.0290
     96  CG1       10.5550   59.3730   44.7300 C.3   308  VAL308      0.0023
     97  CG2       11.4210   57.2570   45.7570 C.3   308  VAL308      0.0023
     98  N         13.0050   60.9490   43.4990 N.am  309  ALA309     -0.1977
     99  CA        12.7840   62.3340   43.1110 C.3   309  ALA309      0.1597
    100  C         11.3970   62.4480   42.4970 C.2   309  ALA309      0.2287
    101  O         11.0160   61.6180   41.6670 O.2   309  ALA309     -0.2864
    102  CB        13.8440   62.8250   42.1240 C.3   309  ALA309      0.0319
    103  N          8.8020   65.4410   40.7130 N.3   311  ILE311     -0.1245
    104  CA         8.7530   66.7770   40.1220 C.3   311  ILE311      0.1561
    105  C          7.3130   67.0900   39.7590 C.2   311  ILE311      0.2260
    106  O          6.7170   66.3880   38.9340 O.2   311  ILE311     -0.2867
    107  CB         9.6400   66.9040   38.8760 C.3   311  ILE311      0.0252
    108  CG1       11.0910   66.5840   39.2060 C.3   311  ILE311      0.0019
    109  CG2        9.5350   68.3120   38.2910 C.3   311  ILE311      0.0019
    110  CD1       11.9980   66.9120   38.0430 C.3   311  ILE311      0.0001
    111  N         15.3920   61.3780   54.7240 N.3   342  ASN342     -0.1225
    112  CA        14.9060   62.3580   53.7590 C.3   342  ASN342      0.1785
    113  C         15.2330   61.9380   52.3260 C.2   342  ASN342      0.2597
    114  O         15.6100   62.7520   51.4830 O.2   342  ASN342     -0.2718
    115  CB        15.4730   63.7350   54.0880 C.3   342  ASN342      0.1169
    116  CG        15.2860   64.0740   55.5280 C.2   342  ASN342      0.2627
    117  OD1       16.2520   64.2600   56.2710 O.2   342  ASN342     -0.2716
    118  ND2       14.0310   64.1090   55.9570 N.am  342  ASN342     -0.0877
    119  N         15.0680   60.6510   52.0420 N.am  343  ASN343     -0.1974
    120  CA        15.4220   60.1160   50.7290 C.3   343  ASN343      0.1688
    121  C         14.3470   60.3590   49.6640 C.2   343  ASN343      0.2292
    122  O         14.5080   59.8700   48.5460 O.2   343  ASN343     -0.2864
    123  CB        15.7560   58.6150   50.8180 C.3   343  ASN343      0.1181
    124  CG        14.6350   57.7810   51.4400 C.2   343  ASN343      0.2629
    125  OD1       13.7060   58.3130   52.0550 O.2   343  ASN343     -0.2716
    126  ND2       14.7430   56.4540   51.3110 N.am  343  ASN343     -0.0877
    127  N         12.7120   63.4620   47.5750 N.3   345  LYS345     -0.1245
    128  CA        12.9010   64.8730   47.2680 C.3   345  LYS345      0.1561
    129  C         11.8230   65.3590   46.3040 C.2   345  LYS345      0.2260
    130  O         11.5880   64.7480   45.2520 O.2   345  LYS345     -0.2867
    131  CB        14.2890   65.1000   46.6600 C.3   345  LYS345      0.0271
    132  CG        14.5560   66.5060   46.2110 C.3   345  LYS345      0.0035
    133  CD        14.8060   67.4310   47.4020 C.3   345  LYS345      0.0206
    134  CE        15.2440   68.8080   46.9280 C.3   345  LYS345      0.1093
    135  NZ        15.3150   69.8330   48.0100 N.3   345  LYS345     -0.1314
    136  N         10.3330   68.5380   43.9560 N.3   347  ALA347     -0.1245
    137  CA        10.6460   69.7720   43.2510 C.3   347  ALA347      0.1562
    138  C          9.4150   70.2320   42.4860 C.2   347  ALA347      0.2260
    139  O          8.5380   69.4370   42.1500 O.2   347  ALA347     -0.2867
    140  CB        11.8350   69.6000   42.2940 C.3   347  ALA347      0.0290
    141  N         10.8360   59.6450   39.6190 N.3   363  ILE363     -0.1245
    142  CA        12.1150   58.9820   39.3800 C.3   363  ILE363      0.1561
    143  C         12.4420   58.1610   40.6220 C.2   363  ILE363      0.2260
    144  O         12.7670   58.7310   41.6680 O.2   363  ILE363     -0.2867
    145  CB        13.2460   59.9710   39.1030 C.3   363  ILE363      0.0252
    146  CG1       12.8790   60.9340   37.9720 C.3   363  ILE363      0.0019
    147  CG2       14.5470   59.2110   38.8230 C.3   363  ILE363      0.0019
    148  CD1       13.8800   62.1160   37.8210 C.3   363  ILE363      0.0001
@<TRIPOS>BOND
     1    49    48    1
     2     7     5    1
     3    20    19    1
     4    17    16    2
     5    16    15    1
     6    18    19    1
     7    18    15    1
     8     1     2    1
     9    19    21    1
    10    48    50    1
    11    48    47    1
    12     3     2    1
    13     3     4    2
    14    15    14    1
    15     5     2    1
    16     5     6    1
    17    14    10   am
    18    47    44    1
    19     8     9    1
    20    10    11    2
    21    10     9    1
    22    44    43    1
    23    44    45    1
    24     9    12    1
    25    43    37   am
    26    39    36    1
    27    39    40    1
    28    45    46    2
    29    36    37    1
    30    36    35    1
    31    37    38    2
    32    67    65    1
    33    42    40   ar
    34   148   146    1
    35    12    13    1
    36    40    41   ar
    37   146   145    1
    38   110   108    1
    39   109   107    1
    40    33    32    2
    41   147   145    1
    42   107   108    1
    43   107   104    1
    44    35    32   am
    45   106   105    2
    46    65    64    1
    47    65    66    1
    48   145   142    1
    49    32    31    1
    50    64    61    1
    51   142   141    1
    52   142   143    1
    53   105   104    1
    54   104   103    1
    55   143   144    2
    56    51    52    1
    57    61    60    1
    58    61    62    1
    59    31    30    1
    60    31    34    1
    61    60    53   am
    62    62    63    2
    63    25    24    2
    64   101   100    2
    65    29    27    1
    66    52    53    1
    67    52    55    1
    68    53    54    2
    69   102    99    1
    70    55    56    1
    71   139   138    2
    72    83    82    1
    73    81    80    1
    74    81    82    1
    75   140   137    1
    76    24    23    1
    77    80    77    1
    78   138   137    1
    79   100    99    1
    80    56    57    1
    81    26    27    1
    82    26    23    1
    83    27    28    1
    84    57    58    1
    85    99    98    1
    86   137   136    1
    87    23    22    1
    88    98    93   am
    89    58    59    1
    90    77    78    1
    91    77    76    1
    92    78    79    2
    93    76    70   am
    94    96    95    1
    95    93    92    1
    96    93    94    2
    97    68    69    1
    98    87    86    2
    99    92    95    1
   100    92    91    1
   101    89    88    1
   102   130   129    2
   103    70    69    1
   104    70    71    2
   105    95    97    1
   106    69    72    1
   107    75    73   am
   108    86    91   am
   109    86    85    1
   110    72    73    1
   111   132   131    1
   112   132   133    1
   113    88    85    1
   114    88    90    1
   115   129   128    1
   116    73    74    2
   117   131   128    1
   118    85    84    1
   119   134   133    1
   120   134   135    1
   121   128   127    1
   122   122   121    2
   123   121   120    1
   124   120   123    1
   125   120   119    1
   126   123   124    1
   127   126   124   am
   128   124   125    2
   129   114   113    2
   130   119   113   am
   131   113   112    1
   132   112   115    1
   133   112   111    1
   134   115   116    1
   135   116   118   am
   136   116   117    2
