@<TRIPOS>MOLECULE
tmp/5ng2A00.pdb
 164 153 0 0 0
SMALL
GASTEIGER

@<TRIPOS>ATOM
      1  N         34.4770   80.5440   11.0010 N.3    20  LEU20      -0.1231
      2  CA        33.8730   81.2850    9.8850 C.3    20  LEU20       0.1693
      3  C         33.4800   80.3620    8.7230 C.2    20  LEU20       0.2592
      4  O         32.4820   80.6100    8.0360 O.2    20  LEU20      -0.2718
      5  CB        34.8160   82.3820    9.3710 C.3    20  LEU20       0.0284
      6  CG        35.1290   83.6430   10.1840 C.3    20  LEU20       0.0019
      7  CD1       36.2930   84.3720    9.5320 C.3    20  LEU20       0.0001
      8  CD2       33.9370   84.5830   10.3260 C.3    20  LEU20       0.0001
      9  N         34.2890   79.3210    8.5060 N.am   21  SER21      -0.1952
     10  CA        34.0550   78.2920    7.4890 C.3    21  SER21       0.1924
     11  C         34.8730   77.0480    7.8180 C.2    21  SER21       0.2314
     12  O         36.0050   77.1510    8.2970 O.2    21  SER21      -0.2863
     13  CB        34.4320   78.8030    6.0930 C.3    21  SER21       0.2116
     14  OG        34.1490   77.8460    5.0880 O.3    21  SER21      -0.2180
     15  N         40.8780   72.9250    4.5320 N.3    26  GLY26      -0.1225
     16  CA        40.8950   74.3240    4.9900 C.3    26  GLY26       0.1811
     17  C         39.7300   74.7510    5.8660 C.2    26  GLY26       0.2280
     18  O         38.5630   74.6690    5.4630 O.2    26  GLY26      -0.2866
     19  N         38.6020   78.1320    8.3550 N.3    28  VAL28      -0.1245
     20  CA        38.8700   79.5550    8.6100 C.3    28  VAL28       0.1561
     21  C         38.1880   80.0100    9.9030 C.2    28  VAL28       0.2260
     22  O         36.9820   79.8140   10.0860 O.2    28  VAL28      -0.2867
     23  CB        38.4740   80.4650    7.4080 C.3    28  VAL28       0.0252
     24  CG1       38.7090   81.9400    7.7190 C.3    28  VAL28       0.0019
     25  CG2       39.2530   80.0840    6.1570 C.3    28  VAL28       0.0019
     26  N         41.8500   87.1010   10.5360 N.3    41  ALA41      -0.1245
     27  CA        41.3660   85.8000   10.0980 C.3    41  ALA41       0.1562
     28  C         42.5250   84.8150   10.0890 C.2    41  ALA41       0.2260
     29  O         43.6680   85.1850    9.7860 O.2    41  ALA41      -0.2867
     30  CB        40.7210   85.8920    8.7350 C.3    41  ALA41       0.0290
     31  N         43.4350   81.0630    8.5900 N.3    43  LYS43      -0.1245
     32  CA        43.1830   79.8770    7.7750 C.3    43  LYS43       0.1561
     33  C         44.0930   78.7650    8.2820 C.2    43  LYS43       0.2260
     34  O         45.3120   78.8170    8.1000 O.2    43  LYS43      -0.2867
     35  CB        43.4110   80.1500    6.2800 C.3    43  LYS43       0.0271
     36  CG        42.8460   79.0570    5.3820 C.3    43  LYS43       0.0035
     37  CD        43.5790   78.9270    4.0620 C.3    43  LYS43       0.0206
     38  CE        43.1240   77.6750    3.3270 C.3    43  LYS43       0.1093
     39  NZ        43.6190   77.6300    1.9240 N.3    43  LYS43      -0.1314
     40  N         51.5160   78.1440    0.4110 N.3    62  GLU62      -0.1245
     41  CA        50.4230   79.1070    0.2330 C.3    62  GLU62       0.1567
     42  C         50.7430   80.4450    0.9110 C.2    62  GLU62       0.2260
     43  O         50.4360   81.5090    0.3650 O.2    62  GLU62      -0.2867
     44  CB        49.1050   78.5250    0.7660 C.3    62  GLU62       0.0388
     45  CG        47.8430   79.2740    0.3340 C.3    62  GLU62       0.1160
     46  CD        46.5570   78.7890    1.0060 C.2    62  GLU62       0.3649
     47  OE1       46.5020   77.6370    1.5050 O.co2  62  GLU62      -0.2457
     48  OE2       45.5790   79.5750    1.0300 O.co2  62  GLU62      -0.2457
     49  N         44.4830   89.5760   -1.0280 N.3    75  LEU75      -0.1245
     50  CA        44.3290   89.4070    0.4190 C.3    75  LEU75       0.1561
     51  C         45.6860   89.5690    1.1170 C.2    75  LEU75       0.2260
     52  O         46.6290   88.8470    0.7790 O.2    75  LEU75      -0.2867
     53  CB        43.7020   88.0350    0.7300 C.3    75  LEU75       0.0270
     54  CG        43.5710   87.5310    2.1710 C.3    75  LEU75       0.0019
     55  CD1       42.4720   88.2590    2.9290 C.3    75  LEU75       0.0001
     56  CD2       43.3200   86.0310    2.1810 C.3    75  LEU75       0.0001
     57  N         45.6600   86.2910    8.2270 N.3    91  THR91      -0.1203
     58  CA        45.3930   87.3380    7.2370 C.3    91  THR91       0.1994
     59  C         44.4940   88.4200    7.8190 C.2    91  THR91       0.2618
     60  O         43.9430   88.2500    8.9150 O.2    91  THR91      -0.2717
     61  CB        44.7210   86.7750    5.9670 C.3    91  THR91       0.1784
     62  OG1       43.5140   86.0900    6.3190 O.3    91  THR91      -0.2211
     63  CG2       45.6530   85.8240    5.2260 C.3    91  THR91       0.0376
     64  N         44.3640   89.5300    7.0860 N.am   92  GLU92      -0.1965
     65  CA        43.3920   90.5800    7.3850 C.3    92  GLU92       0.1733
     66  C         41.9770   90.0190    7.3940 C.2    92  GLU92       0.2616
     67  O         41.6550   89.1060    6.6240 O.2    92  GLU92      -0.2715
     68  CB        43.4770   91.6950    6.3480 C.3    92  GLU92       0.0429
     69  CG        44.2690   92.9140    6.7850 C.3    92  GLU92       0.1163
     70  CD        44.2080   94.0600    5.7820 C.2    92  GLU92       0.3649
     71  OE1       43.1520   94.2560    5.1340 O.co2  92  GLU92      -0.2457
     72  OE2       45.2230   94.7800    5.6460 O.co2  92  GLU92      -0.2457
     73  N         41.1460   90.5580    8.2780 N.am   93  TYR93      -0.1960
     74  CA        39.7510   90.1530    8.3740 C.3    93  TYR93       0.1771
     75  C         38.8900   90.9760    7.4180 C.2    93  TYR93       0.2619
     76  O         39.0110   92.2010    7.3570 O.2    93  TYR93      -0.2715
     77  CB        39.2430   90.2550    9.8200 C.3    93  TYR93       0.0574
     78  CG        37.7720   89.9510    9.9670 C.ar   93  TYR93      -0.0198
     79  CD1       37.2970   88.6350    9.8610 C.ar   93  TYR93      -0.0009
     80  CD2       36.8470   90.9770   10.1930 C.ar   93  TYR93      -0.0009
     81  CE1       35.9440   88.3480    9.9830 C.ar   93  TYR93       0.0417
     82  CE2       35.4910   90.7060   10.3140 C.ar   93  TYR93       0.0417
     83  CZ        35.0450   89.3940   10.2080 C.ar   93  TYR93       0.1957
     84  OH        33.7050   89.1170   10.3280 O.3    93  TYR93      -0.2866
     85  N         38.0250   90.2860    6.6760 N.am   94  MET94      -0.1964
     86  CA        37.1460   90.9110    5.6870 C.3    94  MET94       0.1722
     87  C         35.7030   90.9050    6.1860 C.2    94  MET94       0.2458
     88  O         35.0460   89.8580    6.1530 O.2    94  MET94      -0.2730
     89  CB        37.2630   90.2050    4.3310 C.3    94  MET94       0.0427
     90  CG        38.6660   90.2060    3.7440 C.3    94  MET94       0.0599
     91  SD        39.2470   91.8630    3.3500 S.3    94  MET94      -0.1393
     92  CE        40.9930   91.6750    3.6890 C.3    94  MET94       0.0692
     93  N         35.2030   92.0740    6.6530 N.am   95  PRO95      -0.2727
     94  CA        33.8980   92.1470    7.3310 C.3    95  PRO95       0.1402
     95  C         32.7090   91.7690    6.4370 C.2    95  PRO95       0.2269
     96  O         31.7030   91.2660    6.9450 O.2    95  PRO95      -0.2865
     97  CB        33.7930   93.6240    7.7510 C.3    95  PRO95       0.0296
     98  CG        35.1620   94.1990    7.5910 C.3    95  PRO95       0.0237
     99  CD        35.8010   93.4140    6.4890 C.3    95  PRO95       0.0939
    100  N         32.6720   89.5200    3.8720 N.3    97  GLY97      -0.1210
    101  CA        32.7420   88.1490    3.3570 C.3    97  GLY97       0.1956
    102  C         33.0780   88.0420    1.8800 C.2    97  GLY97       0.2612
    103  O         33.7760   88.8990    1.3240 O.2    97  GLY97      -0.2717
    104  N         32.5680   86.9860    1.2460 N.am   98  SER98      -0.1952
    105  CA        32.8350   86.6990   -0.1680 C.3    98  SER98       0.1924
    106  C         31.8100   87.3280   -1.1200 C.2    98  SER98       0.2314
    107  O         30.6990   87.6720   -0.7090 O.2    98  SER98      -0.2863
    108  CB        32.9710   85.1890   -0.4070 C.3    98  SER98       0.2116
    109  OG        31.8200   84.4850    0.0160 O.3    98  SER98      -0.2180
    110  N         30.0430   86.1420   -3.6140 N.3   100  ASN100     -0.1225
    111  CA        28.8180   85.3860   -3.8750 C.3   100  ASN100      0.1785
    112  C         27.7000   85.7590   -2.8930 C.2   100  ASN100      0.2597
    113  O         26.5270   85.7790   -3.2720 O.2   100  ASN100     -0.2718
    114  CB        29.0800   83.8730   -3.8990 C.3   100  ASN100      0.1169
    115  CG        29.2600   83.2820   -2.5160 C.2   100  ASN100      0.2627
    116  OD1       30.1890   83.6300   -1.7860 O.2   100  ASN100     -0.2716
    117  ND2       28.3600   82.3790   -2.1460 N.am  100  ASN100     -0.0877
    118  N         28.0820   86.0760   -1.6530 N.am  101  GLU101     -0.1979
    119  CA        27.1510   86.5420   -0.6250 C.3   101  GLU101      0.1602
    120  C         26.4600   87.8340   -1.0640 C.2   101  GLU101      0.2287
    121  O         25.2480   87.9600   -0.9100 O.2   101  GLU101     -0.2864
    122  CB        27.8580   86.7200    0.7270 C.3   101  GLU101      0.0415
    123  CG        28.2010   85.4100    1.4380 C.3   101  GLU101      0.1163
    124  CD        29.1660   85.5760    2.6130 C.2   101  GLU101      0.3649
    125  OE1       29.0070   86.5300    3.4120 O.co2 101  GLU101     -0.2457
    126  OE2       30.0840   84.7320    2.7520 O.co2 101  GLU101     -0.2457
    127  N         33.0260   82.8190   -4.8240 N.3   146  GLN146     -0.1231
    128  CA        33.2340   82.3480   -3.4560 C.3   146  GLN146      0.1698
    129  C         34.6160   82.7050   -2.9000 C.2   146  GLN146      0.2592
    130  O         34.8050   82.6950   -1.6880 O.2   146  GLN146     -0.2718
    131  CB        33.0300   80.8260   -3.3660 C.3   146  GLN146      0.0381
    132  CG        31.6270   80.3310   -3.6970 C.3   146  GLN146      0.0905
    133  CD        31.4860   79.8840   -5.1470 C.2   146  GLN146      0.2608
    134  OE1       31.9000   78.7820   -5.5050 O.2   146  GLN146     -0.2717
    135  NE2       30.8940   80.7360   -5.9850 N.am  146  GLN146     -0.0878
    136  N         35.5690   83.0090   -3.7850 N.am  147  ASN147     -0.1974
    137  CA        36.9650   83.2880   -3.4080 C.3   147  ASN147      0.1688
    138  C         37.3700   84.7600   -3.4910 C.2   147  ASN147      0.2292
    139  O         38.4960   85.1160   -3.1410 O.2   147  ASN147     -0.2864
    140  CB        37.9220   82.4380   -4.2500 C.3   147  ASN147      0.1181
    141  CG        37.9130   80.9760   -3.8480 C.2   147  ASN147      0.2629
    142  OD1       37.8440   80.6400   -2.6660 O.2   147  ASN147     -0.2716
    143  ND2       37.9940   80.0950   -4.8350 N.am  147  ASN147     -0.0877
    144  N         36.9970   88.0650   -1.8510 N.3   149  LEU149     -0.1245
    145  CA        36.5900   88.6840   -0.5860 C.3   149  LEU149      0.1561
    146  C         36.3750   90.1830   -0.7280 C.2   149  LEU149      0.2260
    147  O         36.9930   90.8270   -1.5830 O.2   149  LEU149     -0.2867
    148  CB        37.6230   88.4130    0.5040 C.3   149  LEU149      0.0270
    149  CG        37.7460   86.9940    1.0540 C.3   149  LEU149      0.0019
    150  CD1       39.0890   86.8820    1.7470 C.3   149  LEU149      0.0001
    151  CD2       36.6170   86.6420    2.0110 C.3   149  LEU149      0.0001
    152  N         41.4330   85.8580   -2.7970 N.3   159  ALA159     -0.1231
    153  CA        41.8560   84.8830   -1.7970 C.3   159  ALA159      0.1694
    154  C         41.9620   83.4590   -2.3570 C.2   159  ALA159      0.2592
    155  O         41.6660   83.2150   -3.5340 O.2   159  ALA159     -0.2718
    156  CB        40.9000   84.9180   -0.6190 C.3   159  ALA159      0.0304
    157  N         42.3830   82.5390   -1.4850 N.am  160  ASP160     -0.1974
    158  CA        42.4900   81.0960   -1.7500 C.3   160  ASP160      0.1709
    159  C         43.4640   80.7570   -2.8710 C.2   160  ASP160      0.2293
    160  O         43.0730   80.5080   -4.0200 O.2   160  ASP160     -0.2864
    161  CB        41.1160   80.4290   -1.9500 C.3   160  ASP160      0.1436
    162  CG        41.1430   78.9260   -1.6950 C.2   160  ASP160      0.3671
    163  OD1       42.1660   78.3730   -1.2190 O.co2 160  ASP160     -0.2456
    164  OD2       40.1070   78.2800   -1.9670 O.co2 160  ASP160     -0.2456
@<TRIPOS>BOND
     1   135   133   am
     2   134   133    2
     3   133   132    1
     4   143   141   am
     5   127   128    1
     6   140   141    1
     7   140   137    1
     8   160   159    2
     9   114   111    1
    10   114   115    1
    11   111   110    1
    12   111   112    1
    13   141   142    2
    14   136   137    1
    15   136   129   am
    16   132   131    1
    17   155   154    2
    18   138   137    1
    19   138   139    2
    20   128   131    1
    21   128   129    1
    22   113   112    2
    23   129   130    2
    24   112   118   am
    25   159   158    1
    26   152   153    1
    27   115   117   am
    28   115   116    2
    29   154   153    1
    30   154   157   am
    31   164   162   ar
    32   161   158    1
    33   161   162    1
    34   144   145    1
    35   153   156    1
    36   158   157    1
    37   162   163   ar
    38   118   119    1
    39   147   146    2
    40   106   107    2
    41   106   105    1
    42   120   121    2
    43   120   119    1
    44    49    50    1
    45   146   145    1
    46   119   122    1
    47   145   148    1
    48   108   105    1
    49   108   109    1
    50   105   104    1
    51    41    40    1
    52    41    44    1
    53    41    42    1
    54    45    44    1
    55    45    46    1
    56    43    42    2
    57    50    53    1
    58    50    51    1
    59   148   149    1
    60   122   123    1
    61    53    54    1
    62    52    51    2
    63    46    48   ar
    64    46    47   ar
    65   149   150    1
    66   149   151    1
    67   104   102   am
    68   103   102    2
    69   123   124    1
    70   102   101    1
    71    39    38    1
    72    54    56    1
    73    54    55    1
    74   124   126   ar
    75   124   125   ar
    76    38    37    1
    77    91    92    1
    78    91    90    1
    79   101   100    1
    80    90    89    1
    81    37    36    1
    82    89    86    1
    83    15    16    1
    84    16    17    1
    85    14    13    1
    86    71    70   ar
    87    63    61    1
    88    36    35    1
    89    18    17    2
    90    72    70   ar
    91    86    87    1
    92    86    85    1
    93    70    69    1
    94    61    62    1
    95    61    58    1
    96    13    10    1
    97    88    87    2
    98    25    23    1
    99    87    93   am
   100    35    32    1
   101    68    69    1
   102    68    65    1
   103    95    96    2
   104    95    94    1
   105    99    93    1
   106    99    98    1
   107    67    66    2
   108    93    94    1
   109    85    75   am
   110    64    65    1
   111    64    59   am
   112    58    59    1
   113    58    57    1
   114    94    97    1
   115    76    75    2
   116    65    66    1
   117    66    73   am
   118    23    24    1
   119    23    20    1
   120    75    74    1
   121    10    11    1
   122    10     9    1
   123    98    97    1
   124    32    33    1
   125    32    31    1
   126    11    12    2
   127    59    60    2
   128     4     3    2
   129    34    33    2
   130    73    74    1
   131    19    20    1
   132    74    77    1
   133     9     3   am
   134    20    21    1
   135     3     2    1
   136    30    27    1
   137     5     2    1
   138     5     6    1
   139     7     6    1
   140    29    28    2
   141    77    78    1
   142    79    78   ar
   143    79    81   ar
   144     2     1    1
   145    21    22    2
   146    78    80   ar
   147    81    83   ar
   148    28    27    1
   149    27    26    1
   150     6     8    1
   151    80    82   ar
   152    83    82   ar
   153    83    84    1
