@<TRIPOS>MOLECULE
tmp/5ng7B00.pdb
 126 122 0 0 0
SMALL
GASTEIGER

@<TRIPOS>ATOM
      1  N         51.7890   48.3080   18.5250 N.3   100  ASP100     -0.1225
      2  CA        50.6180   47.4760   18.2290 C.3   100  ASP100      0.1805
      3  C         50.8990   46.0400   18.7500 C.2   100  ASP100      0.2597
      4  O         51.3530   45.9170   19.9000 O.2   100  ASP100     -0.2718
      5  CB        50.3150   47.6150   16.7130 C.3   100  ASP100      0.1424
      6  CG        49.0160   46.9380   16.2900 C.2   100  ASP100      0.3668
      7  OD1       48.9750   45.7480   15.9400 O.co2 100  ASP100     -0.2456
      8  OD2       47.9690   47.6480   16.2760 O.co2 100  ASP100     -0.2456
      9  N         50.6450   44.9930   17.9710 N.am  101  TRP101     -0.1976
     10  CA        50.9250   43.6380   18.4990 C.3   101  TRP101      0.1640
     11  C         52.3720   43.4840   18.9390 C.2   101  TRP101      0.2290
     12  O         52.6510   42.7710   19.9080 O.2   101  TRP101     -0.2864
     13  CB        50.6570   42.5350   17.4660 C.3   101  TRP101      0.0576
     14  CG        49.2440   42.2280   17.3610 C.ar  101  TRP101      0.0006
     15  CD1       48.3890   42.5890   16.3320 C.ar  101  TRP101      0.0946
     16  CD2       48.4610   41.5170   18.2860 C.ar  101  TRP101      0.0152
     17  NE1       47.1270   42.1300   16.5790 N.ar  101  TRP101     -0.2442
     18  CE2       47.1120   41.4890   17.7780 C.ar  101  TRP101      0.0810
     19  CE3       48.7360   40.8960   19.5100 C.ar  101  TRP101      0.0012
     20  CZ2       46.0850   40.8390   18.4450 C.ar  101  TRP101      0.0191
     21  CZ3       47.6840   40.2500   20.1840 C.ar  101  TRP101      0.0001
     22  CH2       46.3740   40.2620   19.6440 C.ar  101  TRP101      0.0015
     23  N         52.3610   44.6220   22.4160 N.3   104  ILE104     -0.1245
     24  CA        51.7490   43.6400   23.3260 C.3   104  ILE104      0.1561
     25  C         52.7660   42.5240   23.6250 C.2   104  ILE104      0.2260
     26  O         52.9210   42.1040   24.7810 O.2   104  ILE104     -0.2867
     27  CB        50.4370   43.0880   22.7510 C.3   104  ILE104      0.0252
     28  CG1       49.4300   44.2380   22.5170 C.3   104  ILE104      0.0019
     29  CG2       49.8570   42.0280   23.6820 C.3   104  ILE104      0.0019
     30  CD1       48.0910   43.8580   21.8880 C.3   104  ILE104      0.0001
     31  N         48.3560   48.5190   24.1280 N.3   126  PRO126     -0.2116
     32  CA        47.8960   48.3900   25.5070 C.3   126  PRO126      0.1372
     33  C         48.5960   47.2610   26.2480 C.2   126  PRO126      0.2244
     34  O         48.9470   46.2660   25.6650 O.2   126  PRO126     -0.2868
     35  CB        46.3860   48.0770   25.3500 C.3   126  PRO126      0.0268
     36  CG        46.3250   47.3360   24.0320 C.3   126  PRO126      0.0207
     37  CD        47.3810   47.9670   23.1420 C.3   126  PRO126      0.0892
     38  N         44.0870   45.8730   28.8440 N.3   131  TYR131     -0.1241
     39  CA        43.0430   45.5340   27.8780 C.3   131  TYR131      0.1605
     40  C         42.0840   44.4980   28.4520 C.2   131  TYR131      0.2264
     41  O         40.8730   44.6250   28.2760 O.2   131  TYR131     -0.2867
     42  CB        43.6050   45.0870   26.5150 C.3   131  TYR131      0.0534
     43  CG        42.5840   44.9980   25.3840 C.ar  131  TYR131     -0.0201
     44  CD1       41.6790   43.9540   25.3240 C.ar  131  TYR131     -0.0009
     45  CD2       42.5450   45.9470   24.3760 C.ar  131  TYR131     -0.0009
     46  CE1       40.7670   43.8580   24.3190 C.ar  131  TYR131      0.0417
     47  CE2       41.6200   45.8640   23.3590 C.ar  131  TYR131      0.0417
     48  CZ        40.7330   44.8200   23.3430 C.ar  131  TYR131      0.1957
     49  OH        39.8180   44.7100   22.3220 O.3   131  TYR131     -0.2866
     50  N         35.9910   51.6070   23.8770 N.3   141  GLN141     -0.1245
     51  CA        36.9560   50.6010   23.4340 C.3   141  GLN141      0.1566
     52  C         36.2370   49.4490   22.7180 C.2   141  GLN141      0.2260
     53  O         36.7490   48.9630   21.7240 O.2   141  GLN141     -0.2867
     54  CB        37.8280   50.0240   24.5790 C.3   141  GLN141      0.0367
     55  CG        38.8640   49.0180   24.0930 C.3   141  GLN141      0.0905
     56  CD        39.8520   49.6830   23.1530 C.2   141  GLN141      0.2608
     57  OE1       40.5210   50.6530   23.5350 O.2   141  GLN141     -0.2717
     58  NE2       39.9470   49.1990   21.9090 N.am  141  GLN141     -0.0878
     59  N         36.9890   48.3530   18.9530 N.3   145  SER145     -0.1217
     60  CA        37.4260   46.9850   18.7140 C.3   145  SER145      0.1889
     61  C         36.4040   46.1570   17.9400 C.2   145  SER145      0.2288
     62  O         36.5030   44.9270   17.9160 O.2   145  SER145     -0.2866
     63  CB        37.7480   46.2770   20.0340 C.3   145  SER145      0.2089
     64  OG        38.9410   46.8780   20.6100 O.3   145  SER145     -0.2183
     65  N         36.3360   45.3590   14.9940 N.3   147  TYR147     -0.1227
     66  CA        36.9640   44.4930   13.9820 C.3   147  TYR147      0.1736
     67  C         37.6570   43.3080   14.6970 C.2   147  TYR147      0.2595
     68  O         37.8420   42.2750   14.0770 O.2   147  TYR147     -0.2718
     69  CB        37.9530   45.2910   13.1010 C.3   147  TYR147      0.0548
     70  CG        39.1340   45.8050   13.9000 C.ar  147  TYR147     -0.0200
     71  CD1       39.0720   47.0290   14.5990 C.ar  147  TYR147     -0.0009
     72  CD2       40.3010   45.0550   14.0120 C.ar  147  TYR147     -0.0009
     73  CE1       40.1200   47.4400   15.3590 C.ar  147  TYR147      0.0417
     74  CE2       41.3710   45.4730   14.7640 C.ar  147  TYR147      0.0417
     75  CZ        41.2800   46.6730   15.4440 C.ar  147  TYR147      0.1957
     76  OH        42.3290   47.1140   16.2190 O.3   147  TYR147     -0.2866
     77  N         38.0180   43.4620   15.9690 N.am  148  VAL148     -0.1980
     78  CA        38.5500   42.3330   16.7530 C.3   148  VAL148      0.1595
     79  C         37.5010   41.2050   16.8340 C.2   148  VAL148      0.2287
     80  O         37.8260   40.0030   16.6760 O.2   148  VAL148     -0.2864
     81  CB        38.9340   42.7860   18.1800 C.3   148  VAL148      0.0276
     82  CG1       39.3650   41.6110   19.0440 C.3   148  VAL148      0.0022
     83  CG2       40.0350   43.8700   18.0840 C.3   148  VAL148      0.0022
     84  N         44.4710   37.6040   16.8340 N.3   208  TYR208     -0.1241
     85  CA        43.2150   38.0680   17.4460 C.3   208  TYR208      0.1605
     86  C         42.4150   36.9020   17.9600 C.2   208  TYR208      0.2264
     87  O         41.8210   37.0160   19.0440 O.2   208  TYR208     -0.2867
     88  CB        42.3990   38.8500   16.4110 C.3   208  TYR208      0.0534
     89  CG        43.0490   40.1040   15.9710 C.ar  208  TYR208     -0.0201
     90  CD1       43.9530   40.0970   14.8910 C.ar  208  TYR208     -0.0009
     91  CD2       42.8070   41.3120   16.6360 C.ar  208  TYR208     -0.0009
     92  CE1       44.5780   41.2470   14.4740 C.ar  208  TYR208      0.0417
     93  CE2       43.4400   42.5020   16.2140 C.ar  208  TYR208      0.0417
     94  CZ        44.3350   42.4410   15.1410 C.ar  208  TYR208      0.1957
     95  OH        44.9750   43.5730   14.7420 O.3   208  TYR208     -0.2866
     96  N         42.6420   37.6100   21.7360 N.3   212  LEU212     -0.1245
     97  CA        41.5850   38.6300   21.9550 C.3   212  LEU212      0.1561
     98  C         40.2300   38.1020   21.6450 C.2   212  LEU212      0.2260
     99  O         39.3390   38.8680   21.2460 O.2   212  LEU212     -0.2867
    100  CB        41.8850   39.8840   21.1450 C.3   212  LEU212      0.0270
    101  CG        43.0890   40.7010   21.5840 C.3   212  LEU212      0.0019
    102  CD1       43.2640   41.8310   20.5700 C.3   212  LEU212      0.0001
    103  CD2       42.8670   41.2830   22.9670 C.3   212  LEU212      0.0001
    104  N         41.8550   52.7830   16.9710 N.3   242  ALA242     -0.1231
    105  CA        41.7300   51.4080   17.4610 C.3   242  ALA242      0.1694
    106  C         41.7890   51.2730   18.9850 C.2   242  ALA242      0.2591
    107  O         41.3640   50.2760   19.5190 O.2   242  ALA242     -0.2718
    108  CB        42.8240   50.5390   16.8330 C.3   242  ALA242      0.0304
    109  N         42.3930   52.2350   19.6720 N.am  243  ILE243     -0.1980
    110  CA        42.6390   52.1190   21.1160 C.3   243  ILE243      0.1595
    111  C         42.1830   53.3800   21.8220 C.2   243  ILE243      0.2287
    112  O         42.5950   54.4800   21.4620 O.2   243  ILE243     -0.2864
    113  CB        44.1360   51.8510   21.4630 C.3   243  ILE243      0.0276
    114  CG1       44.7320   50.7740   20.5350 C.3   243  ILE243      0.0022
    115  CG2       44.2550   51.4600   22.9410 C.3   243  ILE243      0.0022
    116  CD1       46.2290   50.5130   20.7070 C.3   243  ILE243      0.0001
    117  N         47.2830   56.1160   15.5370 N.3   269  HIS269     -0.1241
    118  CA        47.8650   54.8130   15.9250 C.3   269  HIS269      0.1621
    119  C         49.2880   54.6630   15.3770 C.2   269  HIS269      0.2264
    120  O         50.1550   54.0890   16.0510 O.2   269  HIS269     -0.2867
    121  CB        46.9890   53.7160   15.3490 C.3   269  HIS269      0.0745
    122  CG        47.3690   52.3340   15.8090 C.ar  269  HIS269      0.0817
    123  ND1       47.2550   51.9410   17.1230 N.ar  269  HIS269     -0.2268
    124  CD2       47.8300   51.2640   15.1320 C.ar  269  HIS269      0.1154
    125  CE1       47.6370   50.6830   17.2370 C.ar  269  HIS269      0.1986
    126  NE2       47.9790   50.2520   16.0410 N.ar  269  HIS269     -0.2212
@<TRIPOS>BOND
     1    69    70    1
     2    69    66    1
     3    70    72   ar
     4    70    71   ar
     5    66    67    1
     6    66    65    1
     7    72    74   ar
     8    68    67    2
     9    92    90   ar
    10    92    94   ar
    11    71    73   ar
    12    67    77   am
    13    95    94    1
    14    74    75   ar
    15    90    89   ar
    16   124   122   ar
    17   124   126   ar
    18    94    93   ar
    19   121   122    1
    20   121   118    1
    21    73    75   ar
    22   119   118    1
    23   119   120    2
    24    75    76    1
    25   117   118    1
    26   122   123   ar
    27     7     6   ar
    28    77    78    1
    29    89    88    1
    30    89    91   ar
    31   126   125   ar
    32    93    91   ar
    33     8     6   ar
    34     6     5    1
    35    15    17   ar
    36    15    14   ar
    37    88    85    1
    38    17    18   ar
    39    80    79    2
    40     5     2    1
    41    78    79    1
    42    78    81    1
    43   108   105    1
    44    84    85    1
    45   104   105    1
    46   123   125   ar
    47    14    13    1
    48    14    16   ar
    49    85    86    1
    50   105   106    1
    51    13    10    1
    52    18    16   ar
    53    18    20   ar
    54    62    61    2
    55    61    60    1
    56    86    87    2
    57     9    10    1
    58     9     3   am
    59    83    81    1
    60    81    82    1
    61     2     1    1
    62     2     3    1
    63    16    19   ar
    64    20    22   ar
    65    10    11    1
    66    60    59    1
    67    60    63    1
    68     3     4    2
    69    11    12    2
    70   106   107    2
    71   106   109   am
    72    19    21   ar
    73    22    21   ar
    74   109   110    1
    75    63    64    1
    76   114   116    1
    77   114   113    1
    78   102   101    1
    79   110   113    1
    80   110   111    1
    81   100   101    1
    82   100    97    1
    83    99    98    2
    84   112   111    2
    85   113   115    1
    86   101   103    1
    87    98    97    1
    88    53    52    2
    89    96    97    1
    90    30    28    1
    91    58    56   am
    92    49    48    1
    93    23    24    1
    94    28    27    1
    95    52    51    1
    96    27    24    1
    97    27    29    1
    98    37    36    1
    99    37    31    1
   100    56    57    2
   101    56    55    1
   102    24    25    1
   103    48    47   ar
   104    48    46   ar
   105    47    45   ar
   106    51    50    1
   107    51    54    1
   108    25    26    2
   109    36    35    1
   110    55    54    1
   111    31    32    1
   112    46    44   ar
   113    45    43   ar
   114    44    43   ar
   115    35    32    1
   116    43    42    1
   117    32    33    1
   118    34    33    2
   119    42    39    1
   120    39    40    1
   121    39    38    1
   122    41    40    2
