@<TRIPOS>MOLECULE
tmp/5ng9A02.pdb
 128 123 0 0 0
SMALL
GASTEIGER

@<TRIPOS>ATOM
      1  N         81.6940   93.2320   69.6350 N.3    61  TYR61      -0.1241
      2  CA        80.2890   92.9350   69.9080 C.3    61  TYR61       0.1605
      3  C         80.0910   92.2410   71.2480 C.2    61  TYR61       0.2264
      4  O         79.2870   92.6930   72.0640 O.2    61  TYR61      -0.2867
      5  CB        79.6850   92.0990   68.7760 C.3    61  TYR61       0.0534
      6  CG        79.3000   92.9630   67.5900 C.ar   61  TYR61      -0.0201
      7  CD1       78.0700   93.5810   67.5620 C.ar   61  TYR61      -0.0009
      8  CD2       80.1730   93.2070   66.5580 C.ar   61  TYR61      -0.0009
      9  CE1       77.6980   94.4060   66.5410 C.ar   61  TYR61       0.0417
     10  CE2       79.8090   94.0520   65.5070 C.ar   61  TYR61       0.0417
     11  CZ        78.5690   94.6440   65.5120 C.ar   61  TYR61       0.1957
     12  OH        78.1610   95.4720   64.5130 O.3    61  TYR61      -0.2866
     13  N         73.5230   96.4250   66.5020 N.3    89  PRO89      -0.2102
     14  CA        73.0860   95.2080   65.7790 C.3    89  PRO89       0.1504
     15  C         73.6540   93.9430   66.4260 C.2    89  PRO89       0.2576
     16  O         74.4240   93.1880   65.8280 O.2    89  PRO89      -0.2718
     17  CB        73.5920   95.4680   64.3490 C.3    89  PRO89       0.0282
     18  CG        74.7940   96.3390   64.5440 C.3    89  PRO89       0.0208
     19  CD        74.4540   97.2520   65.7100 C.3    89  PRO89       0.0893
     20  N         73.2370   93.7120   67.6720 N.am   90  LEU90      -0.1966
     21  CA        73.6750   92.5930   68.4920 C.3    90  LEU90       0.1728
     22  C         72.7120   91.4280   68.2950 C.2    90  LEU90       0.2616
     23  O         71.5440   91.4810   68.7080 O.2    90  LEU90      -0.2715
     24  CB        73.7160   93.0300   69.9490 C.3    90  LEU90       0.0311
     25  CG        74.3960   92.1100   70.9380 C.3    90  LEU90       0.0022
     26  CD1       75.8980   91.9740   70.6410 C.3    90  LEU90       0.0001
     27  CD2       74.2140   92.6620   72.3140 C.3    90  LEU90       0.0001
     28  N         73.1810   90.3810   67.6140 N.am   91  THR91      -0.1951
     29  CA        72.3230   89.2480   67.3250 C.3    91  THR91       0.1897
     30  C         71.9760   88.5110   68.6060 C.2    91  THR91       0.2313
     31  O         72.8290   88.2360   69.4570 O.2    91  THR91      -0.2863
     32  CB        73.0020   88.3330   66.3250 C.3    91  THR91       0.1794
     33  OG1       73.3260   89.1540   65.2100 O.3    91  THR91      -0.2208
     34  CG2       72.1100   87.1840   65.8990 C.3    91  THR91       0.0378
     35  N         74.6520   84.4200   74.5430 N.3    96  ARG96      -0.1245
     36  CA        74.4700   85.7720   75.0780 C.3    96  ARG96       0.1563
     37  C         73.2170   85.8790   75.9420 C.2    96  ARG96       0.2260
     38  O         73.2280   86.5430   76.9850 O.2    96  ARG96      -0.2867
     39  CB        74.4130   86.7900   73.9380 C.3    96  ARG96       0.0307
     40  CG        75.7300   86.9890   73.2260 C.3    96  ARG96       0.0489
     41  CD        75.5390   87.8540   72.0140 C.3    96  ARG96       0.2205
     42  NE        76.7800   88.1460   71.3090 N.pl3  96  ARG96      -0.0865
     43  CZ        76.8460   88.5690   70.0480 C.cat  96  ARG96       0.5346
     44  NH1       75.7530   88.7020   69.3100 N.pl3  96  ARG96       0.1354
     45  NH2       78.0250   88.8720   69.5310 N.pl3  96  ARG96       0.1354
     46  N         82.6650   86.7830   59.2770 N.3   138  LEU138     -0.1245
     47  CA        83.2710   87.5070   60.3750 C.3   138  LEU138      0.1561
     48  C         83.8550   86.4940   61.3600 C.2   138  LEU138      0.2260
     49  O         83.2500   85.4500   61.6420 O.2   138  LEU138     -0.2867
     50  CB        82.1710   88.3550   61.0300 C.3   138  LEU138      0.0270
     51  CG        82.5580   89.3710   62.0750 C.3   138  LEU138      0.0019
     52  CD1       83.4140   90.4550   61.4770 C.3   138  LEU138      0.0001
     53  CD2       81.3030   89.9610   62.6970 C.3   138  LEU138      0.0001
     54  N         84.4160   86.5160   64.5940 N.3   140  SER140     -0.1202
     55  CA        83.7130   86.3600   65.8680 C.3   140  SER140      0.2020
     56  C         82.2750   86.8060   65.6620 C.2   140  SER140      0.2619
     57  O         82.0080   88.0110   65.5920 O.2   140  SER140     -0.2717
     58  CB        84.3600   87.2100   66.9490 C.3   140  SER140      0.2103
     59  OG        85.7120   86.8630   67.1190 O.3   140  SER140     -0.2182
     60  N         81.3540   85.8610   65.5660 N.am  141  GLY141     -0.1942
     61  CA        79.9770   86.2500   65.3630 C.3   141  GLY141      0.2014
     62  C         79.0710   85.0700   65.1250 C.2   141  GLY141      0.2640
     63  O         79.4960   83.9170   65.0520 O.2   141  GLY141     -0.2714
     64  N         77.7980   85.4040   64.9570 N.am  142  SER142     -0.1935
     65  CA        76.7720   84.3860   64.8480 C.3   142  SER142      0.2055
     66  C         76.7690   83.7070   63.4880 C.2   142  SER142      0.2643
     67  O         76.2870   82.5730   63.3750 O.2   142  SER142     -0.2714
     68  CB        75.4090   84.9900   65.1820 C.3   142  SER142      0.2130
     69  OG        75.1910   86.2000   64.4880 O.3   142  SER142     -0.2179
     70  N         77.2640   84.3750   62.4500 N.am  143  THR143     -0.1950
     71  CA        77.2570   83.7400   61.1390 C.3   143  THR143      0.1897
     72  C         78.1830   82.5220   61.1250 C.2   143  THR143      0.2313
     73  O         77.8050   81.4450   60.6360 O.2   143  THR143     -0.2863
     74  CB        77.6150   84.7700   60.0650 C.3   143  THR143      0.1794
     75  OG1       76.5950   85.7720   60.0630 O.3   143  THR143     -0.2208
     76  CG2       77.7280   84.1130   58.7050 C.3   143  THR143      0.0378
     77  N         83.0490   93.8620   59.4240 N.3   174  THR174     -0.1218
     78  CA        82.2900   93.9350   58.1790 C.3   174  THR174      0.1862
     79  C         83.0520   94.7170   57.1310 C.2   174  THR174      0.2287
     80  O         83.1260   94.3100   55.9680 O.2   174  THR174     -0.2866
     81  CB        80.9580   94.6390   58.4190 C.3   174  THR174      0.1770
     82  OG1       80.2690   93.9870   59.4700 O.3   174  THR174     -0.2211
     83  CG2       80.1070   94.6370   57.1590 C.3   174  THR174      0.0375
     84  N         81.6200   86.8470   50.6210 N.3   190  TYR190     -0.1227
     85  CA        81.4990   87.0970   52.0490 C.3   190  TYR190      0.1736
     86  C         80.1110   86.7140   52.5370 C.2   190  TYR190      0.2595
     87  O         79.1050   87.1230   51.9580 O.2   190  TYR190     -0.2718
     88  CB        81.8270   88.5720   52.3200 C.3   190  TYR190      0.0548
     89  CG        81.8860   88.9730   53.7810 C.ar  190  TYR190     -0.0200
     90  CD1       82.5300   88.1840   54.7300 C.ar  190  TYR190     -0.0009
     91  CD2       81.2930   90.1460   54.2180 C.ar  190  TYR190     -0.0009
     92  CE1       82.5660   88.5510   56.0580 C.ar  190  TYR190      0.0417
     93  CE2       81.3450   90.5220   55.5500 C.ar  190  TYR190      0.0417
     94  CZ        81.9610   89.7010   56.4590 C.ar  190  TYR190      0.1957
     95  OH        81.9970   89.9910   57.8010 O.3   190  TYR190     -0.2866
     96  N         80.0630   85.9220   53.6000 N.am  191  LEU191     -0.1966
     97  CA        78.8320   85.4920   54.2440 C.3   191  LEU191      0.1728
     98  C         78.5960   86.4210   55.4250 C.2   191  LEU191      0.2616
     99  O         79.4460   86.5130   56.3080 O.2   191  LEU191     -0.2715
    100  CB        78.9780   84.0380   54.7100 C.3   191  LEU191      0.0311
    101  CG        79.0730   83.0120   53.5830 C.3   191  LEU191      0.0022
    102  CD1       79.8290   81.7740   54.0060 C.3   191  LEU191      0.0001
    103  CD2       77.6650   82.6510   53.1050 C.3   191  LEU191      0.0001
    104  N         77.4560   87.1150   55.4250 N.am  192  LEU192     -0.1963
    105  CA        77.1910   88.1530   56.4180 C.3   192  LEU192      0.1728
    106  C         75.6950   88.3500   56.5630 C.2   192  LEU192      0.2616
    107  O         74.8900   87.8120   55.7960 O.2   192  LEU192     -0.2715
    108  CB        77.8880   89.4870   56.0870 C.3   192  LEU192      0.0311
    109  CG        77.2280   90.3710   55.0340 C.3   192  LEU192      0.0022
    110  CD1       77.8860   91.7330   54.9960 C.3   192  LEU192      0.0001
    111  CD2       77.2340   89.7290   53.6380 C.3   192  LEU192      0.0001
    112  N         75.3180   89.1580   57.5440 N.am  193  GLU193     -0.1977
    113  CA        73.9060   89.3620   57.7820 C.3   193  GLU193      0.1602
    114  C         73.2750   90.2020   56.6710 C.2   193  GLU193      0.2287
    115  O         73.8740   91.1520   56.1600 O.2   193  GLU193     -0.2864
    116  CB        73.7140   89.9510   59.1790 C.3   193  GLU193      0.0415
    117  CG        74.1110   88.8970   60.2230 C.3   193  GLU193      0.1163
    118  CD        74.1720   89.3510   61.6610 C.2   193  GLU193      0.3649
    119  OE1       74.3500   90.5650   61.9210 O.co2 193  GLU193     -0.2457
    120  OE2       74.0890   88.4460   62.5290 O.co2 193  GLU193     -0.2457
    121  N         73.4030   94.1130   56.7640 N.3   196  MET196     -0.1245
    122  CA        74.6340   94.7530   56.2860 C.3   196  MET196      0.1570
    123  C         74.7720   94.6070   54.7760 C.2   196  MET196      0.2261
    124  O         75.1830   95.5430   54.0830 O.2   196  MET196     -0.2867
    125  CB        75.8790   94.1710   56.9620 C.3   196  MET196      0.0387
    126  CG        76.1790   94.6430   58.3960 C.3   196  MET196      0.0595
    127  SD        74.9780   93.9510   59.5730 S.3   196  MET196     -0.1393
    128  CE        75.8440   94.1790   61.1230 C.3   196  MET196      0.0692
@<TRIPOS>BOND
     1    84    85    1
     2    87    86    2
     3    85    88    1
     4    85    86    1
     5    88    89    1
     6    86    96   am
     7   103   101    1
     8   101   102    1
     9   101   100    1
    10    96    97    1
    11   111   109    1
    12    89    91   ar
    13    89    90   ar
    14   124   123    2
    15    91    93   ar
    16    97   100    1
    17    97    98    1
    18    90    92   ar
    19   123   122    1
    20   110   109    1
    21   109   108    1
    22    98   104   am
    23    98    99    2
    24   104   105    1
    25    93    94   ar
    26   107   106    2
    27    80    79    2
    28    92    94   ar
    29   108   105    1
    30   115   114    2
    31   122   121    1
    32   122   125    1
    33   105   106    1
    34    94    95    1
    35   106   112   am
    36   114   113    1
    37   125   126    1
    38    79    78    1
    39    83    81    1
    40   112   113    1
    41   113   116    1
    42    78    81    1
    43    78    77    1
    44   126   127    1
    45    81    82    1
    46    76    74    1
    47   116   117    1
    48    46    47    1
    49   127   128    1
    50    75    74    1
    51    74    71    1
    52   117   118    1
    53    47    50    1
    54    47    48    1
    55    73    72    2
    56    50    51    1
    57    72    71    1
    58    71    70    1
    59    48    49    2
    60    52    51    1
    61   118   119   ar
    62   118   120   ar
    63    51    53    1
    64    70    66   am
    65    67    66    2
    66    66    65    1
    67    17    18    1
    68    17    14    1
    69    69    68    1
    70    12    11    1
    71    18    19    1
    72    54    55    1
    73    65    64    1
    74    65    68    1
    75    64    62   am
    76    63    62    2
    77    62    61    1
    78    33    32    1
    79    61    60    1
    80    10    11   ar
    81    10     8   ar
    82    11     9   ar
    83    60    56   am
    84    57    56    2
    85    56    55    1
    86    19    13    1
    87    14    15    1
    88    14    13    1
    89    16    15    2
    90    55    58    1
    91    34    32    1
    92    32    29    1
    93    15    20   am
    94     9     7   ar
    95     8     6   ar
    96    58    59    1
    97    29    28    1
    98    29    30    1
    99     7     6   ar
   100     6     5    1
   101    28    22   am
   102    20    21    1
   103    22    21    1
   104    22    23    2
   105    21    24    1
   106    30    31    2
   107     5     2    1
   108    44    43    1
   109    45    43    1
   110     1     2    1
   111     2     3    1
   112    24    25    1
   113    43    42    2
   114    26    25    1
   115    25    27    1
   116     3     4    2
   117    42    41    1
   118    41    40    1
   119    40    39    1
   120    39    36    1
   121    35    36    1
   122    36    37    1
   123    37    38    2
