@<TRIPOS>MOLECULE
tmp/5ng9A03.pdb
 146 140 0 0 0
SMALL
GASTEIGER

@<TRIPOS>ATOM
      1  N         79.4000  100.7380   63.4180 N.3    13  GLU13      -0.1245
      2  CA        79.0150   99.7780   62.3940 C.3    13  GLU13       0.1567
      3  C         78.0230  100.5340   61.5290 C.2    13  GLU13       0.2260
      4  O         76.9990  100.9880   62.0340 O.2    13  GLU13      -0.2867
      5  CB        78.3470   98.5510   63.0100 C.3    13  GLU13       0.0388
      6  CG        77.8860   97.4980   61.9820 C.3    13  GLU13       0.1160
      7  CD        78.9740   96.5320   61.5630 C.2    13  GLU13       0.3649
      8  OE1       79.7360   96.0880   62.4730 O.co2  13  GLU13      -0.2457
      9  OE2       79.0460   96.2080   60.3500 O.co2  13  GLU13      -0.2457
     10  N         81.6940   93.2320   69.6350 N.3    61  TYR61      -0.1241
     11  CA        80.2890   92.9350   69.9080 C.3    61  TYR61       0.1605
     12  C         80.0910   92.2410   71.2480 C.2    61  TYR61       0.2264
     13  O         79.2870   92.6930   72.0640 O.2    61  TYR61      -0.2867
     14  CB        79.6850   92.0990   68.7760 C.3    61  TYR61       0.0534
     15  CG        79.3000   92.9630   67.5900 C.ar   61  TYR61      -0.0201
     16  CD1       78.0700   93.5810   67.5620 C.ar   61  TYR61      -0.0009
     17  CD2       80.1730   93.2070   66.5580 C.ar   61  TYR61      -0.0009
     18  CE1       77.6980   94.4060   66.5410 C.ar   61  TYR61       0.0417
     19  CE2       79.8090   94.0520   65.5070 C.ar   61  TYR61       0.0417
     20  CZ        78.5690   94.6440   65.5120 C.ar   61  TYR61       0.1957
     21  OH        78.1610   95.4720   64.5130 O.3    61  TYR61      -0.2866
     22  N         73.5230   96.4250   66.5020 N.3    89  PRO89      -0.2102
     23  CA        73.0860   95.2080   65.7790 C.3    89  PRO89       0.1504
     24  C         73.6540   93.9430   66.4260 C.2    89  PRO89       0.2576
     25  O         74.4240   93.1880   65.8280 O.2    89  PRO89      -0.2718
     26  CB        73.5920   95.4680   64.3490 C.3    89  PRO89       0.0282
     27  CG        74.7940   96.3390   64.5440 C.3    89  PRO89       0.0208
     28  CD        74.4540   97.2520   65.7100 C.3    89  PRO89       0.0893
     29  N         73.2370   93.7120   67.6720 N.am   90  LEU90      -0.1966
     30  CA        73.6750   92.5930   68.4920 C.3    90  LEU90       0.1728
     31  C         72.7120   91.4280   68.2950 C.2    90  LEU90       0.2616
     32  O         71.5440   91.4810   68.7080 O.2    90  LEU90      -0.2715
     33  CB        73.7160   93.0300   69.9490 C.3    90  LEU90       0.0311
     34  CG        74.3960   92.1100   70.9380 C.3    90  LEU90       0.0022
     35  CD1       75.8980   91.9740   70.6410 C.3    90  LEU90       0.0001
     36  CD2       74.2140   92.6620   72.3140 C.3    90  LEU90       0.0001
     37  N         73.1810   90.3810   67.6140 N.am   91  THR91      -0.1951
     38  CA        72.3230   89.2480   67.3250 C.3    91  THR91       0.1897
     39  C         71.9760   88.5110   68.6060 C.2    91  THR91       0.2313
     40  O         72.8290   88.2360   69.4570 O.2    91  THR91      -0.2863
     41  CB        73.0020   88.3330   66.3250 C.3    91  THR91       0.1794
     42  OG1       73.3260   89.1540   65.2100 O.3    91  THR91      -0.2208
     43  CG2       72.1100   87.1840   65.8990 C.3    91  THR91       0.0378
     44  N         74.6520   84.4200   74.5430 N.3    96  ARG96      -0.1245
     45  CA        74.4700   85.7720   75.0780 C.3    96  ARG96       0.1563
     46  C         73.2170   85.8790   75.9420 C.2    96  ARG96       0.2260
     47  O         73.2280   86.5430   76.9850 O.2    96  ARG96      -0.2867
     48  CB        74.4130   86.7900   73.9380 C.3    96  ARG96       0.0307
     49  CG        75.7300   86.9890   73.2260 C.3    96  ARG96       0.0489
     50  CD        75.5390   87.8540   72.0140 C.3    96  ARG96       0.2205
     51  NE        76.7800   88.1460   71.3090 N.pl3  96  ARG96      -0.0865
     52  CZ        76.8460   88.5690   70.0480 C.cat  96  ARG96       0.5346
     53  NH1       75.7530   88.7020   69.3100 N.pl3  96  ARG96       0.1354
     54  NH2       78.0250   88.8720   69.5310 N.pl3  96  ARG96       0.1354
     55  N         82.6650   86.7830   59.2770 N.3   138  LEU138     -0.1245
     56  CA        83.2710   87.5070   60.3750 C.3   138  LEU138      0.1561
     57  C         83.8550   86.4940   61.3600 C.2   138  LEU138      0.2260
     58  O         83.2500   85.4500   61.6420 O.2   138  LEU138     -0.2867
     59  CB        82.1710   88.3550   61.0300 C.3   138  LEU138      0.0270
     60  CG        82.5580   89.3710   62.0750 C.3   138  LEU138      0.0019
     61  CD1       83.4140   90.4550   61.4770 C.3   138  LEU138      0.0001
     62  CD2       81.3030   89.9610   62.6970 C.3   138  LEU138      0.0001
     63  N         84.4160   86.5160   64.5940 N.3   140  SER140     -0.1202
     64  CA        83.7130   86.3600   65.8680 C.3   140  SER140      0.2020
     65  C         82.2750   86.8060   65.6620 C.2   140  SER140      0.2619
     66  O         82.0080   88.0110   65.5920 O.2   140  SER140     -0.2717
     67  CB        84.3600   87.2100   66.9490 C.3   140  SER140      0.2103
     68  OG        85.7120   86.8630   67.1190 O.3   140  SER140     -0.2182
     69  N         81.3540   85.8610   65.5660 N.am  141  GLY141     -0.1942
     70  CA        79.9770   86.2500   65.3630 C.3   141  GLY141      0.2014
     71  C         79.0710   85.0700   65.1250 C.2   141  GLY141      0.2640
     72  O         79.4960   83.9170   65.0520 O.2   141  GLY141     -0.2714
     73  N         77.7980   85.4040   64.9570 N.am  142  SER142     -0.1935
     74  CA        76.7720   84.3860   64.8480 C.3   142  SER142      0.2055
     75  C         76.7690   83.7070   63.4880 C.2   142  SER142      0.2644
     76  O         76.2870   82.5730   63.3750 O.2   142  SER142     -0.2714
     77  CB        75.4090   84.9900   65.1820 C.3   142  SER142      0.2130
     78  OG        75.1910   86.2000   64.4880 O.3   142  SER142     -0.2179
     79  N         77.2640   84.3750   62.4500 N.am  143  THR143     -0.1936
     80  CA        77.2570   83.7400   61.1390 C.3   143  THR143      0.2028
     81  C         78.1830   82.5220   61.1250 C.2   143  THR143      0.2642
     82  O         77.8050   81.4450   60.6360 O.2   143  THR143     -0.2714
     83  CB        77.6150   84.7700   60.0650 C.3   143  THR143      0.1808
     84  OG1       76.5950   85.7720   60.0630 O.3   143  THR143     -0.2208
     85  CG2       77.7280   84.1130   58.7050 C.3   143  THR143      0.0379
     86  N         79.3780   82.6640   61.6870 N.am  144  LYS144     -0.1977
     87  CA        80.2840   81.5300   61.7570 C.3   144  LYS144      0.1596
     88  C         79.6280   80.3750   62.4950 C.2   144  LYS144      0.2287
     89  O         79.7410   79.2080   62.0950 O.2   144  LYS144     -0.2864
     90  CB        81.5660   81.9430   62.4640 C.3   144  LYS144      0.0298
     91  CG        82.5530   80.8030   62.5330 C.3   144  LYS144      0.0038
     92  CD        83.6910   81.0500   63.4950 C.3   144  LYS144      0.0206
     93  CE        84.7050   81.8710   62.8750 C.3   144  LYS144      0.1093
     94  NZ        85.9650   81.8820   63.7230 N.3   144  LYS144     -0.1314
     95  N         83.0490   93.8620   59.4240 N.3   174  THR174     -0.1218
     96  CA        82.2900   93.9350   58.1790 C.3   174  THR174      0.1862
     97  C         83.0520   94.7170   57.1310 C.2   174  THR174      0.2287
     98  O         83.1260   94.3100   55.9680 O.2   174  THR174     -0.2866
     99  CB        80.9580   94.6390   58.4190 C.3   174  THR174      0.1770
    100  OG1       80.2690   93.9870   59.4700 O.3   174  THR174     -0.2211
    101  CG2       80.1070   94.6370   57.1590 C.3   174  THR174      0.0375
    102  N         81.6200   86.8470   50.6210 N.3   190  TYR190     -0.1227
    103  CA        81.4990   87.0970   52.0490 C.3   190  TYR190      0.1736
    104  C         80.1110   86.7140   52.5370 C.2   190  TYR190      0.2595
    105  O         79.1050   87.1230   51.9580 O.2   190  TYR190     -0.2718
    106  CB        81.8270   88.5720   52.3200 C.3   190  TYR190      0.0548
    107  CG        81.8860   88.9730   53.7810 C.ar  190  TYR190     -0.0200
    108  CD1       82.5300   88.1840   54.7300 C.ar  190  TYR190     -0.0009
    109  CD2       81.2930   90.1460   54.2180 C.ar  190  TYR190     -0.0009
    110  CE1       82.5660   88.5510   56.0580 C.ar  190  TYR190      0.0417
    111  CE2       81.3450   90.5220   55.5500 C.ar  190  TYR190      0.0417
    112  CZ        81.9610   89.7010   56.4590 C.ar  190  TYR190      0.1957
    113  OH        81.9970   89.9910   57.8010 O.3   190  TYR190     -0.2866
    114  N         80.0630   85.9220   53.6000 N.am  191  LEU191     -0.1966
    115  CA        78.8320   85.4920   54.2440 C.3   191  LEU191      0.1728
    116  C         78.5960   86.4210   55.4250 C.2   191  LEU191      0.2616
    117  O         79.4460   86.5130   56.3080 O.2   191  LEU191     -0.2715
    118  CB        78.9780   84.0380   54.7100 C.3   191  LEU191      0.0311
    119  CG        79.0730   83.0120   53.5830 C.3   191  LEU191      0.0022
    120  CD1       79.8290   81.7740   54.0060 C.3   191  LEU191      0.0001
    121  CD2       77.6650   82.6510   53.1050 C.3   191  LEU191      0.0001
    122  N         77.4560   87.1150   55.4250 N.am  192  LEU192     -0.1963
    123  CA        77.1910   88.1530   56.4180 C.3   192  LEU192      0.1728
    124  C         75.6950   88.3500   56.5630 C.2   192  LEU192      0.2616
    125  O         74.8900   87.8120   55.7960 O.2   192  LEU192     -0.2715
    126  CB        77.8880   89.4870   56.0870 C.3   192  LEU192      0.0311
    127  CG        77.2280   90.3710   55.0340 C.3   192  LEU192      0.0022
    128  CD1       77.8860   91.7330   54.9960 C.3   192  LEU192      0.0001
    129  CD2       77.2340   89.7290   53.6380 C.3   192  LEU192      0.0001
    130  N         75.3180   89.1580   57.5440 N.am  193  GLU193     -0.1977
    131  CA        73.9060   89.3620   57.7820 C.3   193  GLU193      0.1602
    132  C         73.2750   90.2020   56.6710 C.2   193  GLU193      0.2287
    133  O         73.8740   91.1520   56.1600 O.2   193  GLU193     -0.2864
    134  CB        73.7140   89.9510   59.1790 C.3   193  GLU193      0.0415
    135  CG        74.1110   88.8970   60.2230 C.3   193  GLU193      0.1163
    136  CD        74.1720   89.3510   61.6610 C.2   193  GLU193      0.3649
    137  OE1       74.3500   90.5650   61.9210 O.co2 193  GLU193     -0.2457
    138  OE2       74.0890   88.4460   62.5290 O.co2 193  GLU193     -0.2457
    139  N         73.4030   94.1130   56.7640 N.3   196  MET196     -0.1245
    140  CA        74.6340   94.7530   56.2860 C.3   196  MET196      0.1570
    141  C         74.7720   94.6070   54.7760 C.2   196  MET196      0.2261
    142  O         75.1830   95.5430   54.0830 O.2   196  MET196     -0.2867
    143  CB        75.8790   94.1710   56.9620 C.3   196  MET196      0.0387
    144  CG        76.1790   94.6430   58.3960 C.3   196  MET196      0.0595
    145  SD        74.9780   93.9510   59.5730 S.3   196  MET196     -0.1393
    146  CE        75.8440   94.1790   61.1230 C.3   196  MET196      0.0692
@<TRIPOS>BOND
     1   102   103    1
     2   105   104    2
     3   103   106    1
     4   103   104    1
     5   106   107    1
     6   104   114   am
     7   121   119    1
     8   119   120    1
     9   119   118    1
    10   114   115    1
    11   129   127    1
    12   107   109   ar
    13   107   108   ar
    14   142   141    2
    15   109   111   ar
    16   115   118    1
    17   115   116    1
    18   108   110   ar
    19   141   140    1
    20   128   127    1
    21   127   126    1
    22   122   116   am
    23   122   123    1
    24   116   117    2
    25   111   112   ar
    26   125   124    2
    27    98    97    2
    28   110   112   ar
    29   126   123    1
    30   133   132    2
    31   140   139    1
    32   140   143    1
    33   123   124    1
    34   112   113    1
    35   124   130   am
    36   132   131    1
    37   143   144    1
    38    97    96    1
    39   101    99    1
    40   130   131    1
    41   131   134    1
    42    96    99    1
    43    96    95    1
    44   144   145    1
    45    99   100    1
    46    85    83    1
    47   134   135    1
    48    55    56    1
    49   145   146    1
    50    84    83    1
    51    83    80    1
    52   135   136    1
    53     9     7   ar
    54    56    59    1
    55    56    57    1
    56    82    81    2
    57    59    60    1
    58    81    80    1
    59    81    86   am
    60    80    79    1
    61    57    58    2
    62    61    60    1
    63     3     4    2
    64     3     2    1
    65     7     6    1
    66     7     8   ar
    67   136   137   ar
    68   136   138   ar
    69    86    87    1
    70    87    90    1
    71    87    88    1
    72     6     5    1
    73    60    62    1
    74    89    88    2
    75     2     5    1
    76     2     1    1
    77    79    75   am
    78    90    91    1
    79    91    92    1
    80    93    92    1
    81    93    94    1
    82    76    75    2
    83    75    74    1
    84    26    27    1
    85    26    23    1
    86    78    77    1
    87    21    20    1
    88    27    28    1
    89    63    64    1
    90    74    73    1
    91    74    77    1
    92    73    71   am
    93    72    71    2
    94    71    70    1
    95    42    41    1
    96    70    69    1
    97    19    20   ar
    98    19    17   ar
    99    20    18   ar
   100    69    65   am
   101    66    65    2
   102    65    64    1
   103    28    22    1
   104    23    24    1
   105    23    22    1
   106    25    24    2
   107    64    67    1
   108    43    41    1
   109    41    38    1
   110    24    29   am
   111    18    16   ar
   112    17    15   ar
   113    67    68    1
   114    38    37    1
   115    38    39    1
   116    16    15   ar
   117    15    14    1
   118    37    31   am
   119    29    30    1
   120    31    30    1
   121    31    32    2
   122    30    33    1
   123    39    40    2
   124    14    11    1
   125    53    52    1
   126    54    52    1
   127    10    11    1
   128    11    12    1
   129    33    34    1
   130    52    51    2
   131    35    34    1
   132    34    36    1
   133    12    13    2
   134    51    50    1
   135    50    49    1
   136    49    48    1
   137    48    45    1
   138    44    45    1
   139    45    46    1
   140    46    47    2
