@<TRIPOS>MOLECULE
tmp/5ngbA00.pdb
 210 201 0 0 0
SMALL
GASTEIGER

@<TRIPOS>ATOM
      1  N         19.5590   -2.0800    8.0570 N.3   512  LYS512     -0.1245
      2  CA        18.4170   -1.9070    8.9450 C.3   512  LYS512      0.1561
      3  C         17.8480   -0.4840    8.8940 C.2   512  LYS512      0.2260
      4  O         16.6270   -0.3180    8.9290 O.2   512  LYS512     -0.2867
      5  CB        18.7620   -2.3110   10.3800 C.3   512  LYS512      0.0271
      6  CG        17.7370   -1.8320   11.3910 C.3   512  LYS512      0.0035
      7  CD        17.6000   -2.7190   12.6060 C.3   512  LYS512      0.0206
      8  CE        16.4000   -2.2660   13.4050 C.3   512  LYS512      0.1093
      9  NZ        16.6810   -2.4210   14.8330 N.3   512  LYS512     -0.1314
     10  N          9.7810    0.1710   14.9810 N.3   554  THR554     -0.1203
     11  CA        10.9090   -0.4820   14.3570 C.3   554  THR554      0.1994
     12  C         10.6810   -1.9830   14.3530 C.2   554  THR554      0.2618
     13  O          9.5780   -2.4460   14.5250 O.2   554  THR554     -0.2717
     14  CB        12.2200   -0.0980   15.0550 C.3   554  THR554      0.1784
     15  OG1       13.2920   -0.9060   14.5300 O.3   554  THR554     -0.2211
     16  CG2       12.1030   -0.2910   16.5250 C.3   554  THR554      0.0376
     17  N         11.7350   -2.7450   14.1580 N.am  555  PHE555     -0.1961
     18  CA        11.6380   -4.1630   14.2260 C.3   555  PHE555      0.1771
     19  C         12.8950   -4.7320   14.7950 C.2   555  PHE555      0.2619
     20  O         13.9340   -4.1600   14.6410 O.2   555  PHE555     -0.2715
     21  CB        11.4290   -4.6960   12.8270 C.3   555  PHE555      0.0574
     22  CG        12.5430   -4.3830   11.8670 C.ar  555  PHE555     -0.0200
     23  CD1       13.6410   -5.2200   11.7590 C.ar  555  PHE555     -0.0042
     24  CD2       12.4620   -3.2860   11.0290 C.ar  555  PHE555     -0.0042
     25  CE1       14.6620   -4.9610   10.8590 C.ar  555  PHE555     -0.0003
     26  CE2       13.4860   -3.0180   10.1360 C.ar  555  PHE555     -0.0003
     27  CZ        14.5800   -3.8590   10.0430 C.ar  555  PHE555     -0.0000
     28  N         12.8400   -5.9110   15.3720 N.am  556  MET556     -0.1963
     29  CA        14.0560   -6.4470   15.9940 C.3   556  MET556      0.1736
     30  C         14.8990   -7.1440   14.9580 C.2   556  MET556      0.2616
     31  O         14.4260   -7.5400   13.8960 O.2   556  MET556     -0.2715
     32  CB        13.7910   -7.4390   17.0970 C.3   556  MET556      0.0427
     33  CG        12.4170   -7.4310   17.6920 C.3   556  MET556      0.0599
     34  SD        12.2950   -6.3850   19.1190 S.3   556  MET556     -0.1393
     35  CE        11.2080   -7.5010   20.0000 C.3   556  MET556      0.0692
     36  N         16.1440   -7.3590   15.3360 N.am  557  ASP557     -0.1957
     37  CA        17.1510   -7.9360   14.4520 C.3   557  ASP557      0.1840
     38  C         17.1710   -9.4360   14.4090 C.2   557  ASP557      0.2622
     39  O         18.1510   -9.9910   13.9780 O.2   557  ASP557     -0.2715
     40  CB        18.5480   -7.5190   14.9230 C.3   557  ASP557      0.1450
     41  CG        18.9090   -6.1640   14.4800 C.2   557  ASP557      0.3671
     42  OD1       18.5960   -5.8300   13.3310 O.co2 557  ASP557     -0.2456
     43  OD2       19.5310   -5.4380   15.2700 O.co2 557  ASP557     -0.2456
     44  N         16.1050  -10.1180   14.8000 N.am  558  SER558     -0.1950
     45  CA        16.2180  -11.5270   15.1250 C.3   558  SER558      0.1924
     46  C         15.3320  -12.4550   14.3440 C.2   558  SER558      0.2314
     47  O         14.2390  -12.7950   14.7830 O.2   558  SER558     -0.2863
     48  CB        15.9430  -11.6850   16.5990 C.3   558  SER558      0.2116
     49  OG        16.9320  -10.9810   17.3170 O.3   558  SER558     -0.2180
     50  N         10.6480   -9.4370   14.4380 N.3   562  PRO562     -0.2116
     51  CA         9.4870   -9.0140   15.1910 C.3   562  PRO562      0.1372
     52  C          9.3110   -7.5230   15.1490 C.2   562  PRO562      0.2244
     53  O         10.2490   -6.7950   15.3710 O.2   562  PRO562     -0.2868
     54  CB         9.8130   -9.4460   16.6190 C.3   562  PRO562      0.0268
     55  CG        10.7100  -10.6040   16.4420 C.3   562  PRO562      0.0207
     56  CD        11.5560  -10.2400   15.2670 C.3   562  PRO562      0.0892
     57  N          7.8490   -3.8380   16.3220 N.3   564  TRP564     -0.1241
     58  CA         7.6710   -3.0760   17.5510 C.3   564  TRP564      0.1605
     59  C          6.7890   -1.8850   17.2230 C.2   564  TRP564      0.2264
     60  O          7.2640   -0.9480   16.6710 O.2   564  TRP564     -0.2867
     61  CB         9.0540   -2.6160   18.0150 C.3   564  TRP564      0.0550
     62  CG         9.1120   -1.9720   19.3880 C.ar  564  TRP564      0.0003
     63  CD1        8.7850   -0.6850   19.7070 C.ar  564  TRP564      0.0946
     64  CD2        9.5570   -2.5950   20.6060 C.ar  564  TRP564      0.0152
     65  NE1        8.9730   -0.4810   21.0510 N.ar  564  TRP564     -0.2442
     66  CE2        9.4460   -1.6310   21.6270 C.ar  564  TRP564      0.0810
     67  CE3       10.0430   -3.8750   20.9260 C.ar  564  TRP564      0.0012
     68  CZ2        9.8090   -1.8890   22.9420 C.ar  564  TRP564      0.0191
     69  CZ3       10.3940   -4.1350   22.2490 C.ar  564  TRP564      0.0001
     70  CH2       10.2700   -3.1400   23.2410 C.ar  564  TRP564      0.0015
     71  N          4.2110   -5.7390   20.2860 N.3   581  ILE581     -0.1245
     72  CA         5.1490   -6.4820   19.4780 C.3   581  ILE581      0.1561
     73  C          4.3490   -7.4650   18.6400 C.2   581  ILE581      0.2260
     74  O          3.5790   -8.2160   19.1960 O.2   581  ILE581     -0.2867
     75  CB         6.1310   -7.2480   20.3480 C.3   581  ILE581      0.0252
     76  CG1        7.0230   -6.2570   21.0860 C.3   581  ILE581      0.0019
     77  CG2        6.9810   -8.1730   19.5050 C.3   581  ILE581      0.0019
     78  CD1        7.8110   -6.8500   22.2370 C.3   581  ILE581      0.0001
     79  N          4.7040  -10.6390   16.1570 N.3   583  LYS583     -0.1245
     80  CA         5.6580  -11.6750   15.8780 C.3   583  LYS583      0.1561
     81  C          5.0400  -12.6930   14.9330 C.2   583  LYS583      0.2260
     82  O          3.9040  -13.1050   15.1200 O.2   583  LYS583     -0.2867
     83  CB         6.1090  -12.2980   17.1980 C.3   583  LYS583      0.0271
     84  CG         7.4360  -12.9810   17.0810 C.3   583  LYS583      0.0035
     85  CD         8.3280  -12.6970   18.2860 C.3   583  LYS583      0.0206
     86  CE         8.0570  -13.6240   19.4310 C.3   583  LYS583      0.1093
     87  NZ         9.2820  -13.6360   20.2580 N.3   583  LYS583     -0.1314
     88  N          4.7340  -19.0970   25.5310 N.3   591  ASP591     -0.1239
     89  CA         4.8930  -17.8750   26.2960 C.3   591  ASP591      0.1674
     90  C          3.5800  -17.5390   26.9400 C.2   591  ASP591      0.2266
     91  O          3.5570  -16.9820   28.0360 O.2   591  ASP591     -0.2867
     92  CB         5.3520  -16.7060   25.4260 C.3   591  ASP591      0.1410
     93  CG         6.7420  -16.9020   24.8980 C.2   591  ASP591      0.3668
     94  OD1        6.9150  -17.8100   24.0590 O.co2 591  ASP591     -0.2456
     95  OD2        7.6540  -16.1670   25.3380 O.co2 591  ASP591     -0.2456
     96  N          2.8660   -9.5390   31.6720 N.3   617  TYR617     -0.1241
     97  CA         2.4990   -8.7760   30.4660 C.3   617  TYR617      0.1605
     98  C          1.7380   -9.6520   29.4930 C.2   617  TYR617      0.2264
     99  O          1.9180  -10.8760   29.4650 O.2   617  TYR617     -0.2867
    100  CB         3.7170   -8.1400   29.7530 C.3   617  TYR617      0.0534
    101  CG         4.7720   -9.1360   29.3190 C.ar  617  TYR617     -0.0201
    102  CD1        4.6530   -9.8420   28.1260 C.ar  617  TYR617     -0.0009
    103  CD2        5.8830   -9.3930   30.1210 C.ar  617  TYR617     -0.0009
    104  CE1        5.6190  -10.7660   27.7450 C.ar  617  TYR617      0.0417
    105  CE2        6.8400  -10.3050   29.7430 C.ar  617  TYR617      0.0417
    106  CZ         6.6840  -10.9960   28.5640 C.ar  617  TYR617      0.1957
    107  OH         7.5740  -11.8960   28.1590 O.3   617  TYR617     -0.2866
    108  N          2.6730   -9.5220   21.6450 N.3   629  ILE629     -0.1231
    109  CA         3.0970   -9.3580   23.0200 C.3   629  ILE629      0.1692
    110  C          2.9410   -7.8790   23.4030 C.2   629  ILE629      0.2592
    111  O          3.2340   -6.9860   22.6290 O.2   629  ILE629     -0.2718
    112  CB         4.5540   -9.7820   23.2140 C.3   629  ILE629      0.0266
    113  CG1        4.7710  -11.2410   22.8040 C.3   629  ILE629      0.0019
    114  CG2        4.9750   -9.6560   24.6570 C.3   629  ILE629      0.0020
    115  CD1        5.4510  -11.3400   21.4710 C.3   629  ILE629      0.0001
    116  N          2.4670   -7.6320   24.6130 N.am  630  GLU630     -0.1966
    117  CA         2.3470   -6.2820   25.1520 C.3   630  GLU630      0.1733
    118  C          3.7270   -5.7420   25.4440 C.2   630  GLU630      0.2616
    119  O          4.5120   -6.4140   26.1120 O.2   630  GLU630     -0.2715
    120  CB         1.5650   -6.3210   26.4720 C.3   630  GLU630      0.0429
    121  CG         1.3100   -4.9620   27.1060 C.3   630  GLU630      0.1163
    122  CD         0.8990   -5.0410   28.5640 C.2   630  GLU630      0.3649
    123  OE1        1.0470   -6.0960   29.1560 O.co2 630  GLU630     -0.2457
    124  OE2        0.4260   -4.0430   29.1410 O.co2 630  GLU630     -0.2457
    125  N          4.0140   -4.5250   24.9960 N.am  631  VAL631     -0.1963
    126  CA         5.2600   -3.8800   25.3930 C.3   631  VAL631      0.1727
    127  C          5.1290   -3.3860   26.8270 C.2   631  VAL631      0.2616
    128  O          4.1720   -2.7340   27.1650 O.2   631  VAL631     -0.2715
    129  CB         5.6350   -2.7110   24.4610 C.3   631  VAL631      0.0290
    130  CG1        6.7420   -1.8490   25.0850 C.3   631  VAL631      0.0023
    131  CG2        6.0470   -3.2420   23.0920 C.3   631  VAL631      0.0023
    132  N          6.1070   -3.6940   27.6630 N.am  632  VAL632     -0.1977
    133  CA         6.2500   -3.0420   28.9690 C.3   632  VAL632      0.1596
    134  C          7.1970   -1.8660   28.7510 C.2   632  VAL632      0.2287
    135  O          8.3720   -2.0890   28.5130 O.2   632  VAL632     -0.2864
    136  CB         6.8160   -4.0240   30.0110 C.3   632  VAL632      0.0276
    137  CG1        7.1100   -3.3330   31.3440 C.3   632  VAL632      0.0022
    138  CG2        5.8640   -5.2040   30.2010 C.3   632  VAL632      0.0022
    139  N         11.5300    0.0390   30.2200 N.3   635  SER635     -0.1202
    140  CA        12.2280   -1.1200   30.6780 C.3   635  SER635      0.2020
    141  C         13.2650   -1.4290   29.6410 C.2   635  SER635      0.2619
    142  O         13.1120   -1.0940   28.4600 O.2   635  SER635     -0.2717
    143  CB        11.2590   -2.3020   30.8700 C.3   635  SER635      0.2103
    144  OG        10.6240   -2.7450   29.6810 O.3   635  SER635     -0.2182
    145  N         14.3450   -2.0380   30.0860 N.am  636  ASP636     -0.1959
    146  CA        15.3570   -2.4970   29.1560 C.3   636  ASP636      0.1840
    147  C         15.9030   -3.8170   29.6440 C.2   636  ASP636      0.2622
    148  O         15.6630   -4.2030   30.7870 O.2   636  ASP636     -0.2715
    149  CB        16.4760   -1.4580   28.9850 C.3   636  ASP636      0.1450
    150  CG        17.0820   -1.4840   27.5850 C.2   636  ASP636      0.3671
    151  OD1       16.9710   -2.5160   26.8940 O.co2 636  ASP636     -0.2456
    152  OD2       17.6680   -0.4790   27.1560 O.co2 636  ASP636     -0.2456
    153  N         16.6080   -4.5130   28.7540 N.am  637  THR637     -0.1951
    154  CA        17.2210   -5.7820   29.0910 C.3   637  THR637      0.1897
    155  C         18.4200   -5.5320   30.0020 C.2   637  THR637      0.2313
    156  O         19.0810   -4.4900   29.8970 O.2   637  THR637     -0.2863
    157  CB        17.6250   -6.5550   27.8370 C.3   637  THR637      0.1794
    158  OG1       18.6250   -5.8470   27.1370 O.3   637  THR637     -0.2208
    159  CG2       16.4420   -6.7050   26.8580 C.3   637  THR637      0.0378
    160  N         21.4260   -5.0530   27.9380 N.3   640  ASN640     -0.1240
    161  CA        21.5490   -3.6980   27.4340 C.3   640  ASN640      0.1653
    162  C         22.1250   -2.7100   28.4120 C.2   640  ASN640      0.2266
    163  O         22.8430   -1.8200   28.0360 O.2   640  ASN640     -0.2867
    164  CB        20.1900   -3.1720   27.0340 C.3   640  ASN640      0.1155
    165  CG        20.1520   -2.8120   25.6060 C.2   640  ASN640      0.2627
    166  OD1       20.5140   -3.6110   24.7390 O.2   640  ASN640     -0.2716
    167  ND2       19.7420   -1.5890   25.3360 N.am  640  ASN640     -0.0877
    168  N         19.9190  -11.3250   28.1580 N.3   694  ASP694     -0.1239
    169  CA        19.0520  -10.8230   27.0860 C.3   694  ASP694      0.1674
    170  C         17.5900  -11.0830   27.2910 C.2   694  ASP694      0.2266
    171  O         16.7890  -10.4490   26.6100 O.2   694  ASP694     -0.2867
    172  CB        19.4530  -11.3700   25.7120 C.3   694  ASP694      0.1410
    173  CG        20.5610  -10.5660   25.0850 C.2   694  ASP694      0.3668
    174  OD1       20.4040   -9.3240   24.9130 O.co2 694  ASP694     -0.2456
    175  OD2       21.6010  -11.1800   24.7890 O.co2 694  ASP694     -0.2456
    176  N         14.6990   -8.4960   32.0160 N.3   697  MET697     -0.1245
    177  CA        14.5890   -7.0610   31.8460 C.3   697  MET697      0.1570
    178  C         14.3750   -6.4560   33.2090 C.2   697  MET697      0.2261
    179  O         14.0490   -7.1630   34.1490 O.2   697  MET697     -0.2867
    180  CB        13.4240   -6.7220   30.9240 C.3   697  MET697      0.0387
    181  CG        13.5940   -7.2920   29.5330 C.3   697  MET697      0.0595
    182  SD        12.4660   -6.6930   28.2520 S.3   697  MET697     -0.1393
    183  CE        12.8240   -4.9240   28.2220 C.3   697  MET697      0.0692
    184  N         11.9120   -8.5600   35.4660 N.3   705  PHE705     -0.1241
    185  CA        11.0020   -9.5330   34.8430 C.3   705  PHE705      0.1605
    186  C         11.6340  -10.2830   33.7020 C.2   705  PHE705      0.2264
    187  O         12.7300   -9.9330   33.2710 O.2   705  PHE705     -0.2867
    188  CB         9.6910   -8.8870   34.4120 C.3   705  PHE705      0.0534
    189  CG         9.7910   -7.9130   33.2830 C.ar  705  PHE705     -0.0203
    190  CD1       10.1160   -6.5790   33.5140 C.ar  705  PHE705     -0.0042
    191  CD2        9.4160   -8.2820   32.0130 C.ar  705  PHE705     -0.0042
    192  CE1       10.1410   -5.6370   32.4710 C.ar  705  PHE705     -0.0003
    193  CE2        9.4290   -7.3550   30.9730 C.ar  705  PHE705     -0.0003
    194  CZ         9.7900   -6.0250   31.1970 C.ar  705  PHE705     -0.0000
    195  N         11.2900  -12.3750   29.8380 N.3   707  ILE707     -0.1231
    196  CA        10.7430  -12.3500   28.5000 C.3   707  ILE707      0.1692
    197  C         11.2290  -13.6170   27.7920 C.2   707  ILE707      0.2592
    198  O         12.0750  -14.2920   28.3350 O.2   707  ILE707     -0.2718
    199  CB        11.1630  -11.0430   27.8030 C.3   707  ILE707      0.0266
    200  CG1       12.6830  -10.9190   27.6260 C.3   707  ILE707      0.0019
    201  CG2       10.6910   -9.8410   28.6090 C.3   707  ILE707      0.0020
    202  CD1       13.0620   -9.9810   26.4940 C.3   707  ILE707      0.0001
    203  N         10.6860  -13.9780   26.6280 N.am  708  ASP708     -0.1974
    204  CA        11.2170  -15.0870   25.8550 C.3   708  ASP708      0.1709
    205  C         11.2340  -16.4330   26.5770 C.2   708  ASP708      0.2293
    206  O         12.2850  -17.0520   26.7400 O.2   708  ASP708     -0.2864
    207  CB        12.6400  -14.7300   25.4200 C.3   708  ASP708      0.1436
    208  CG        12.8440  -14.9040   23.9500 C.2   708  ASP708      0.3671
    209  OD1       11.9280  -15.4370   23.2770 O.co2 708  ASP708     -0.2456
    210  OD2       13.9340  -14.5140   23.4770 O.co2 708  ASP708     -0.2456
@<TRIPOS>BOND
     1     1     2    1
     2     3     4    2
     3     3     2    1
     4     2     5    1
     5    27    26   ar
     6    27    25   ar
     7    26    24   ar
     8     5     6    1
     9    25    23   ar
    10    24    22   ar
    11     6     7    1
    12    23    22   ar
    13    22    21    1
    14     7     8    1
    15    21    18    1
    16    42    41   ar
    17     8     9    1
    18    31    30    2
    19    39    38    2
    20    17    18    1
    21    17    12   am
    22    18    19    1
    23    46    47    2
    24    46    45    1
    25    12    11    1
    26    12    13    2
    27    11    10    1
    28    11    14    1
    29    38    37    1
    30    38    44   am
    31    50    51    1
    32    50    56    1
    33    37    40    1
    34    37    36    1
    35    41    40    1
    36    41    43   ar
    37    15    14    1
    38    20    19    2
    39    19    28   am
    40    44    45    1
    41    81    82    2
    42    81    80    1
    43    30    36   am
    44    30    29    1
    45    14    16    1
    46    45    48    1
    47    52    51    1
    48    52    53    2
    49    51    54    1
    50    56    55    1
    51    28    29    1
    52    80    79    1
    53    80    83    1
    54    29    32    1
    55    57    58    1
    56    55    54    1
    57    48    49    1
    58    60    59    2
    59    84    83    1
    60    84    85    1
    61    32    33    1
    62    59    58    1
    63    58    61    1
    64    33    34    1
    65    61    62    1
    66    85    86    1
    67    73    74    2
    68    73    72    1
    69    34    35    1
    70    62    63   ar
    71    62    64   ar
    72    86    87    1
    73    72    71    1
    74    72    75    1
    75    77    75    1
    76    63    65   ar
    77    75    76    1
    78    64    67   ar
    79    64    66   ar
    80    67    69   ar
    81    65    66   ar
    82    76    78    1
    83   115   113    1
    84    66    68   ar
    85   108   109    1
    86    69    70   ar
    87   111   110    2
    88   113   112    1
    89    68    70   ar
    90   109   112    1
    91   109   110    1
    92   131   129    1
    93   112   114    1
    94   209   208   ar
    95   110   116   am
    96   210   208   ar
    97   208   207    1
    98    94    93   ar
    99   129   130    1
   100   129   126    1
   101   116   117    1
   102   166   165    2
   103   175   173   ar
   104    93    95   ar
   105    93    92    1
   106   174   173   ar
   107   125   126    1
   108   125   118   am
   109   173   172    1
   110   117   118    1
   111   117   120    1
   112   167   165   am
   113   126   127    1
   114   207   204    1
   115    92    89    1
   116   118   119    2
   117    88    89    1
   118   165   164    1
   119   172   169    1
   120   204   205    1
   121   204   203    1
   122    89    90    1
   123   120   121    1
   124   202   200    1
   125   205   206    2
   126   171   170    2
   127   203   197   am
   128   127   128    2
   129   127   132   am
   130   159   157    1
   131   151   150   ar
   132    90    91    2
   133   164   161    1
   134   169   170    1
   135   169   168    1
   136   121   122    1
   137   158   157    1
   138   152   150   ar
   139   161   160    1
   140   161   162    1
   141   150   149    1
   142   200   199    1
   143   132   133    1
   144   104   102   ar
   145   104   106   ar
   146   197   198    2
   147   197   196    1
   148   199   196    1
   149   199   201    1
   150   157   154    1
   151   163   162    2
   152   102   101   ar
   153   107   106    1
   154   183   182    1
   155   182   181    1
   156   142   141    2
   157   196   195    1
   158   135   134    2
   159   106   105   ar
   160   122   124   ar
   161   122   123   ar
   162   134   133    1
   163   153   154    1
   164   153   147   am
   165   133   136    1
   166   149   146    1
   167   154   155    1
   168   146   147    1
   169   146   145    1
   170   101   100    1
   171   101   103   ar
   172    99    98    2
   173    98    97    1
   174   181   180    1
   175   141   145   am
   176   141   140    1
   177   147   148    2
   178   144   143    1
   179   105   103   ar
   180   100    97    1
   181   156   155    2
   182   136   138    1
   183   136   137    1
   184   139   140    1
   185    97    96    1
   186   140   143    1
   187   180   177    1
   188   193   194   ar
   189   193   191   ar
   190   194   192   ar
   191   177   176    1
   192   177   178    1
   193   191   189   ar
   194   192   190   ar
   195   178   179    2
   196   187   186    2
   197   189   190   ar
   198   189   188    1
   199   186   185    1
   200   188   185    1
   201   185   184    1
