@<TRIPOS>MOLECULE
tmp/5ngeB00.pdb
 190 187 0 0 0
SMALL
GASTEIGER

@<TRIPOS>ATOM
      1  N         90.1700  -45.4250   32.3890 N.3    15  TYR15      -0.1241
      2  CA        90.1730  -45.8800   33.7950 C.3    15  TYR15       0.1605
      3  C         89.2670  -45.0790   34.7390 C.2    15  TYR15       0.2264
      4  O         89.2320  -45.3590   35.9430 O.2    15  TYR15      -0.2867
      5  CB        91.6100  -45.7840   34.3320 C.3    15  TYR15       0.0534
      6  CG        92.2880  -44.5300   33.9010 C.ar   15  TYR15      -0.0201
      7  CD1       91.9650  -43.3270   34.4780 C.ar   15  TYR15      -0.0009
      8  CD2       93.2080  -44.5400   32.8760 C.ar   15  TYR15      -0.0009
      9  CE1       92.5350  -42.1610   34.0330 C.ar   15  TYR15       0.0417
     10  CE2       93.8190  -43.3920   32.4580 C.ar   15  TYR15       0.0417
     11  CZ        93.4900  -42.1880   33.0350 C.ar   15  TYR15       0.1957
     12  OH        94.0960  -41.0010   32.5950 O.3    15  TYR15      -0.2866
     13  N         97.5840  -38.9590   30.5630 N.3    85  HIS85      -0.1226
     14  CA        97.7670  -39.1000   32.0130 C.3    85  HIS85       0.1752
     15  C         97.7010  -40.5250   32.5660 C.2    85  HIS85       0.2596
     16  O         96.9850  -41.3850   32.0590 O.2    85  HIS85      -0.2718
     17  CB        96.6950  -38.3330   32.7580 C.3    85  HIS85       0.0759
     18  CG        96.7190  -36.8700   32.5020 C.ar   85  HIS85       0.0818
     19  ND1       96.0000  -36.2910   31.4870 N.ar   85  HIS85      -0.2268
     20  CD2       97.3390  -35.8600   33.1530 C.ar   85  HIS85       0.1154
     21  CE1       96.1850  -34.9810   31.5090 C.ar   85  HIS85       0.1986
     22  NE2       96.9860  -34.6910   32.5200 N.ar   85  HIS85      -0.2212
     23  N         98.4260  -40.7330   33.6530 N.am   86  ASP86      -0.1960
     24  CA        98.3340  -41.9540   34.4570 C.3    86  ASP86       0.1840
     25  C         97.1110  -41.9500   35.3590 C.2    86  ASP86       0.2622
     26  O         96.5790  -40.8960   35.7080 O.2    86  ASP86      -0.2715
     27  CB        99.5930  -42.0900   35.3270 C.3    86  ASP86       0.1450
     28  CG       100.7870  -42.6650   34.5640 C.2    86  ASP86       0.3671
     29  OD1      100.6900  -43.8030   34.0290 O.co2  86  ASP86      -0.2456
     30  OD2      101.8230  -41.9800   34.5210 O.co2  86  ASP86      -0.2456
     31  N         96.6670  -43.1260   35.7710 N.am   87  VAL87      -0.1963
     32  CA        95.4820  -43.2040   36.6260 C.3    87  VAL87       0.1727
     33  C         95.6430  -42.4040   37.9240 C.2    87  VAL87       0.2616
     34  O         94.6990  -41.7010   38.3860 O.2    87  VAL87      -0.2715
     35  CB        95.0990  -44.6450   36.9750 C.3    87  VAL87       0.0290
     36  CG1       96.2310  -45.3590   37.7070 C.3    87  VAL87       0.0023
     37  CG2       93.8370  -44.6870   37.8190 C.3    87  VAL87       0.0023
     38  N         96.8370  -42.4690   38.5060 N.am   88  GLN88      -0.1977
     39  CA        97.0580  -41.7840   39.7830 C.3    88  GLN88       0.1601
     40  C         96.9980  -40.2980   39.5970 C.2    88  GLN88       0.2287
     41  O         96.8300  -39.5750   40.5760 O.2    88  GLN88      -0.2864
     42  CB        98.3660  -42.1910   40.4740 C.3    88  GLN88       0.0394
     43  CG        99.6580  -41.8290   39.7470 C.3    88  GLN88       0.0908
     44  CD       100.1650  -42.9200   38.8420 C.2    88  GLN88       0.2608
     45  OE1       99.4130  -43.8190   38.4380 O.2    88  GLN88      -0.2717
     46  NE2      101.4590  -42.8640   38.5170 N.am   88  GLN88      -0.0878
     47  N         94.7920  -37.7790   41.9100 N.3    92  ARG92      -0.1245
     48  CA        95.2930  -36.5260   42.4930 C.3    92  ARG92       0.1563
     49  C         94.4400  -35.3370   42.1500 C.2    92  ARG92       0.2260
     50  O         94.1780  -34.5020   43.0180 O.2    92  ARG92      -0.2867
     51  CB        96.7010  -36.2330   42.0240 C.3    92  ARG92       0.0307
     52  CG        97.7100  -37.1420   42.7490 C.3    92  ARG92       0.0489
     53  CD        98.9430  -37.3980   41.8910 C.3    92  ARG92       0.2205
     54  NE        99.9040  -38.3720   42.3950 N.pl3  92  ARG92      -0.0865
     55  CZ       100.9700  -38.7850   41.6990 C.cat  92  ARG92       0.5346
     56  NH1      101.1930  -38.2920   40.4690 N.pl3  92  ARG92       0.1354
     57  NH2      101.8340  -39.6710   42.2210 N.pl3  92  ARG92       0.1354
     58  N        104.0550  -46.3040   43.0400 N.3   133  GLN133     -0.1245
     59  CA       104.2430  -46.9440   41.7370 C.3   133  GLN133      0.1566
     60  C        105.2020  -48.0830   41.9460 C.2   133  GLN133      0.2260
     61  O        106.3270  -47.8730   42.3520 O.2   133  GLN133     -0.2867
     62  CB       104.8190  -45.9740   40.7200 C.3   133  GLN133      0.0367
     63  CG       103.8340  -44.8890   40.2990 C.3   133  GLN133      0.0905
     64  CD       103.6640  -43.8370   41.3680 C.2   133  GLN133      0.2608
     65  OE1      104.6010  -43.0720   41.6400 O.2   133  GLN133     -0.2717
     66  NE2      102.4810  -43.7820   41.9840 N.am  133  GLN133     -0.0878
     67  N         99.9010  -48.5000   42.1300 N.3   168  GLN168     -0.1231
     68  CA        99.9030  -48.6560   40.6640 C.3   168  GLN168      0.1698
     69  C        101.0160  -49.5840   40.2860 C.2   168  GLN168      0.2592
     70  O        102.1250  -49.4840   40.8290 O.2   168  GLN168     -0.2718
     71  CB       100.0990  -47.3460   39.9300 C.3   168  GLN168      0.0381
     72  CG        98.9540  -46.3650   40.0290 C.3   168  GLN168      0.0905
     73  CD        98.9530  -45.6650   41.3500 C.2   168  GLN168      0.2608
     74  OE1      100.0080  -45.2170   41.8410 O.2   168  GLN168     -0.2717
     75  NE2       97.7970  -45.5680   41.9550 N.am  168  GLN168     -0.0878
     76  N        100.7140  -50.4790   39.3500 N.am  169  LEU169     -0.1966
     77  CA       101.6840  -51.4240   38.8060 C.3   169  LEU169      0.1728
     78  C        102.2110  -50.8770   37.4950 C.2   169  LEU169      0.2616
     79  O        101.4450  -50.5050   36.6310 O.2   169  LEU169     -0.2715
     80  CB       101.0180  -52.7860   38.6090 C.3   169  LEU169      0.0311
     81  CG       100.2130  -53.2810   39.8220 C.3   169  LEU169      0.0022
     82  CD1       99.6290  -54.6420   39.5220 C.3   169  LEU169      0.0001
     83  CD2      101.0800  -53.3610   41.0680 C.3   169  LEU169      0.0001
     84  N        103.5330  -50.8060   37.3600 N.am  170  MET170     -0.1963
     85  CA       104.1670  -50.2020   36.1800 C.3   170  MET170      0.1736
     86  C        104.1610  -51.1410   34.9490 C.2   170  MET170      0.2616
     87  O        105.2020  -51.6280   34.4900 O.2   170  MET170     -0.2715
     88  CB       105.5730  -49.7430   36.5330 C.3   170  MET170      0.0427
     89  CG       105.5590  -48.6110   37.5560 C.3   170  MET170      0.0599
     90  SD       107.1520  -48.2790   38.3740 S.3   170  MET170     -0.1393
     91  CE       108.2800  -48.1660   36.9950 C.3   170  MET170      0.0692
     92  N        102.9560  -51.3630   34.4270 N.am  171  ARG171     -0.1963
     93  CA       102.7300  -52.1950   33.2570 C.3   171  ARG171      0.1729
     94  C        102.9350  -51.4370   31.9170 C.2   171  ARG171      0.2616
     95  O        103.1270  -52.0760   30.8790 O.2   171  ARG171     -0.2715
     96  CB       101.3060  -52.7930   33.3180 C.3   171  ARG171      0.0348
     97  CG       101.1150  -53.9090   34.3590 C.3   171  ARG171      0.0492
     98  CD        99.9050  -54.7750   34.0450 C.3   171  ARG171      0.2205
     99  NE        99.7610  -55.9410   34.9190 N.pl3 171  ARG171     -0.0865
    100  CZ       100.3480  -57.1340   34.7440 C.cat 171  ARG171      0.5346
    101  NH1      101.1990  -57.3920   33.7220 N.pl3 171  ARG171      0.1354
    102  NH2      100.0810  -58.1030   35.6160 N.pl3 171  ARG171      0.1354
    103  N        102.9180  -50.1030   31.9520 N.am  172  PHE172     -0.1960
    104  CA       103.0040  -49.2840   30.7460 C.3   172  PHE172      0.1771
    105  C        104.3380  -48.5410   30.7140 C.2   172  PHE172      0.2619
    106  O        104.5190  -47.5410   31.4300 O.2   172  PHE172     -0.2715
    107  CB       101.8230  -48.2930   30.6870 C.3   172  PHE172      0.0574
    108  CG       101.4430  -47.8650   29.2910 C.ar  172  PHE172     -0.0200
    109  CD1      101.4070  -48.7830   28.2260 C.ar  172  PHE172     -0.0042
    110  CD2      101.1020  -46.5360   29.0280 C.ar  172  PHE172     -0.0042
    111  CE1      101.0300  -48.3820   26.9460 C.ar  172  PHE172     -0.0003
    112  CE2      100.7280  -46.1380   27.7550 C.ar  172  PHE172     -0.0003
    113  CZ       100.6770  -47.0560   26.7210 C.ar  172  PHE172     -0.0000
    114  N        105.2550  -49.0310   29.8700 N.am  173  MET173     -0.1977
    115  CA       106.6500  -48.5970   29.8930 C.3   173  MET173      0.1605
    116  C        107.1920  -48.2300   28.5090 C.2   173  MET173      0.2287
    117  O        106.8900  -48.8860   27.5040 O.2   173  MET173     -0.2864
    118  CB       107.5470  -49.6800   30.5240 C.3   173  MET173      0.0413
    119  CG       107.2210  -49.9890   31.9890 C.3   173  MET173      0.0598
    120  SD       108.5920  -49.8360   33.1640 S.3   173  MET173     -0.1393
    121  CE       108.4100  -48.1230   33.6850 C.3   173  MET173      0.0692
    122  N        102.5220  -52.0400   26.6550 N.3   183  LYS183     -0.1245
    123  CA       101.9920  -52.7540   27.7930 C.3   183  LYS183      0.1561
    124  C        102.7210  -54.0560   28.0070 C.2   183  LYS183      0.2260
    125  O        102.9070  -54.8380   27.0780 O.2   183  LYS183     -0.2867
    126  CB       100.5110  -53.0410   27.6410 C.3   183  LYS183      0.0271
    127  CG        99.8580  -53.2560   28.9990 C.3   183  LYS183      0.0035
    128  CD        98.5670  -54.0290   28.8510 C.3   183  LYS183      0.0206
    129  CE        97.8380  -54.1450   30.1570 C.3   183  LYS183      0.1093
    130  NZ        96.7370  -55.1220   30.0000 N.3   183  LYS183     -0.1314
    131  N         92.5420  -54.2080   33.2350 N.3   219  HIS219     -0.1241
    132  CA        92.5150  -53.7730   31.8520 C.3   219  HIS219      0.1621
    133  C         92.8520  -54.9330   30.9480 C.2   219  HIS219      0.2264
    134  O         93.7990  -55.6620   31.2160 O.2   219  HIS219     -0.2867
    135  CB        93.5110  -52.6260   31.6510 C.3   219  HIS219      0.0745
    136  CG        93.6870  -52.2240   30.2250 C.ar  219  HIS219      0.0817
    137  ND1       94.5800  -52.8460   29.3790 N.ar  219  HIS219     -0.2268
    138  CD2       93.0680  -51.2830   29.4800 C.ar  219  HIS219      0.1154
    139  CE1       94.5200  -52.2910   28.1820 C.ar  219  HIS219      0.1986
    140  NE2       93.6040  -51.3450   28.2140 N.ar  219  HIS219     -0.2212
    141  N         95.9920  -54.1060   24.5770 N.3   222  ASP222     -0.1225
    142  CA        97.3300  -53.5330   24.4710 C.3   222  ASP222      0.1805
    143  C         97.3520  -51.9930   24.4580 C.2   222  ASP222      0.2598
    144  O         98.4510  -51.4100   24.4520 O.2   222  ASP222     -0.2718
    145  CB        98.0360  -54.0880   23.2210 C.3   222  ASP222      0.1424
    146  CG        98.7130  -55.4020   23.4000 C.2   222  ASP222      0.3668
    147  OD1       98.7760  -55.9260   24.4920 O.co2 222  ASP222     -0.2456
    148  OD2       99.2610  -55.8870   22.3290 O.co2 222  ASP222     -0.2456
    149  N         96.1810  -51.3360   24.5030 N.am  223  ASN223     -0.1960
    150  CA        96.1270  -49.8810   24.3370 C.3   223  ASN223      0.1819
    151  C         94.9740  -49.1810   25.1010 C.2   223  ASN223      0.2621
    152  O         94.1960  -49.8120   25.8300 O.2   223  ASN223     -0.2715
    153  CB        96.1450  -49.5080   22.8300 C.3   223  ASN223      0.1195
    154  CG        94.9510  -50.0640   22.0450 C.2   223  ASN223      0.2630
    155  OD1       93.7910  -49.8190   22.3600 O.2   223  ASN223     -0.2716
    156  ND2       95.2430  -50.7900   20.9960 N.am  223  ASN223     -0.0877
    157  N         94.8830  -47.8640   24.9410 N.am  224  HIS224     -0.1973
    158  CA        93.8130  -47.0850   25.5750 C.3   224  HIS224      0.1656
    159  C         92.4140  -47.3900   24.9860 C.2   224  HIS224      0.2291
    160  O         91.4010  -47.0490   25.5850 O.2   224  HIS224     -0.2864
    161  CB        94.1280  -45.6020   25.4700 C.3   224  HIS224      0.0771
    162  CG        95.2320  -45.1500   26.3790 C.ar  224  HIS224      0.0820
    163  ND1       96.5510  -45.0810   25.9800 N.ar  224  HIS224     -0.2267
    164  CD2       95.2040  -44.7150   27.6640 C.ar  224  HIS224      0.1154
    165  CE1       97.2860  -44.6220   26.9760 C.ar  224  HIS224      0.1986
    166  NE2       96.4920  -44.3840   28.0060 N.ar  224  HIS224     -0.2212
    167  N         88.3320  -51.6800   30.3050 N.3   228  TYR228     -0.1241
    168  CA        88.6490  -51.3300   31.6940 C.3   228  TYR228      0.1605
    169  C         87.5360  -51.7290   32.6670 C.2   228  TYR228      0.2264
    170  O         86.3990  -51.2460   32.5420 O.2   228  TYR228     -0.2867
    171  CB        88.8120  -49.8310   31.8140 C.3   228  TYR228      0.0534
    172  CG        90.0480  -49.2770   31.1810 C.ar  228  TYR228     -0.0201
    173  CD1       90.0650  -48.9720   29.8240 C.ar  228  TYR228     -0.0009
    174  CD2       91.1980  -48.9930   31.9400 C.ar  228  TYR228     -0.0009
    175  CE1       91.1780  -48.4190   29.2350 C.ar  228  TYR228      0.0417
    176  CE2       92.3210  -48.4340   31.3430 C.ar  228  TYR228      0.0417
    177  CZ        92.2910  -48.1530   29.9790 C.ar  228  TYR228      0.1957
    178  OH        93.3610  -47.6030   29.3060 O.3   228  TYR228     -0.2866
    179  N         96.3220  -53.2350   36.7990 N.3   273  TYR273     -0.1241
    180  CA        97.3180  -52.1650   36.8190 C.3   273  TYR273      0.1605
    181  C         97.2810  -51.2640   38.0870 C.2   273  TYR273      0.2264
    182  O         98.0850  -50.3360   38.2090 O.2   273  TYR273     -0.2867
    183  CB        97.1140  -51.2760   35.5740 C.3   273  TYR273      0.0534
    184  CG        95.7700  -50.5680   35.5750 C.ar  273  TYR273     -0.0201
    185  CD1       94.6640  -51.1390   34.9400 C.ar  273  TYR273     -0.0009
    186  CD2       95.5980  -49.3340   36.2180 C.ar  273  TYR273     -0.0009
    187  CE1       93.4280  -50.5170   34.9460 C.ar  273  TYR273      0.0417
    188  CE2       94.3510  -48.6980   36.2270 C.ar  273  TYR273      0.0417
    189  CZ        93.2860  -49.2960   35.5860 C.ar  273  TYR273      0.1957
    190  OH        92.0520  -48.7480   35.5970 O.3   273  TYR273     -0.2866
@<TRIPOS>BOND
     1   156   154   am
     2   154   155    2
     3   154   153    1
     4   148   146   ar
     5   153   150    1
     6   145   146    1
     7   145   142    1
     8   146   147   ar
     9   150   149    1
    10   150   151    1
    11   144   143    2
    12   143   142    1
    13   143   149   am
    14   142   141    1
    15   157   151   am
    16   157   158    1
    17   159   158    1
    18   159   160    2
    19   151   152    2
    20   161   158    1
    21   161   162    1
    22   163   162   ar
    23   163   165   ar
    24   162   164   ar
    25   122   123    1
    26   113   111   ar
    27   113   112   ar
    28   111   109   ar
    29   165   166   ar
    30   125   124    2
    31   117   116    2
    32   126   123    1
    33   126   127    1
    34   164   166   ar
    35   112   110   ar
    36   123   124    1
    37   139   140   ar
    38   139   137   ar
    39   140   138   ar
    40   109   108   ar
    41   116   115    1
    42   128   127    1
    43   128   129    1
    44   110   108   ar
    45   175   173   ar
    46   175   177   ar
    47   108   107    1
    48   178   177    1
    49   137   136   ar
    50   138   136   ar
    51   173   172   ar
    52   114   115    1
    53   114   105   am
    54   115   118    1
    55   177   176   ar
    56   130   129    1
    57   136   135    1
    58   167   168    1
    59   118   119    1
    60    13    14    1
    61   107   104    1
    62   105   104    1
    63   105   106    2
    64   104   103    1
    65    95    94    2
    66   133   134    2
    67   133   132    1
    68   172   171    1
    69   172   174   ar
    70   176   174   ar
    71    19    21   ar
    72    19    18   ar
    73    21    22   ar
    74   135   132    1
    75   168   171    1
    76   168   169    1
    77   132   131    1
    78    94   103   am
    79    94    93    1
    80   119   120    1
    81    14    15    1
    82    14    17    1
    83    16    15    2
    84     1     2    1
    85    10     8   ar
    86    10    11   ar
    87    18    17    1
    88    18    20   ar
    89    22    20   ar
    90   170   169    2
    91    15    23   am
    92    12    11    1
    93     8     6   ar
    94    11     9   ar
    95   120   121    1
    96    93    96    1
    97    93    92    1
    98    96    97    1
    99    23    24    1
   100   101   100    1
   101     2     5    1
   102     2     3    1
   103     6     5    1
   104     6     7   ar
   105    29    28   ar
   106     9     7   ar
   107    98    97    1
   108    98    99    1
   109    92    86   am
   110    24    27    1
   111    24    25    1
   112    87    86    2
   113    30    28   ar
   114    28    27    1
   115     3     4    2
   116   100    99    2
   117   100   102    1
   118   185   187   ar
   119   185   184   ar
   120   187   189   ar
   121    86    85    1
   122    25    26    2
   123    25    31   am
   124   183   184    1
   125   183   180    1
   126   184   186   ar
   127   189   190    1
   128   189   188   ar
   129    31    32    1
   130    85    88    1
   131    85    84    1
   132   186   188   ar
   133    88    89    1
   134    32    35    1
   135    32    33    1
   136    79    78    2
   137   179   180    1
   138   180   181    1
   139    35    36    1
   140    35    37    1
   141    91    90    1
   142    84    78   am
   143    78    77    1
   144    89    90    1
   145    33    34    2
   146    33    38   am
   147   181   182    2
   148    45    44    2
   149    38    39    1
   150    46    44   am
   151    80    77    1
   152    80    81    1
   153    77    76    1
   154    44    43    1
   155    76    69   am
   156    82    81    1
   157    40    39    1
   158    40    41    2
   159    43    42    1
   160    39    42    1
   161    81    83    1
   162    71    72    1
   163    71    68    1
   164    72    73    1
   165    69    68    1
   166    69    70    2
   167    63    62    1
   168    63    64    1
   169    56    55    1
   170    68    67    1
   171    62    59    1
   172    73    74    2
   173    73    75   am
   174    64    65    2
   175    64    66   am
   176    55    57    1
   177    55    54    2
   178    59    60    1
   179    59    58    1
   180    53    54    1
   181    53    52    1
   182    47    48    1
   183    60    61    2
   184    51    48    1
   185    51    52    1
   186    49    48    1
   187    49    50    2
