@<TRIPOS>MOLECULE
tmp/5ngeA00.pdb
 179 177 0 0 0
SMALL
GASTEIGER

@<TRIPOS>ATOM
      1  N         75.3710  -44.3350   92.7110 N.3    13  TYR13      -0.1241
      2  CA        75.4420  -44.8650   91.2980 C.3    13  TYR13       0.1605
      3  C         76.4210  -44.0980   90.3800 C.2    13  TYR13       0.2264
      4  O         76.5180  -44.4180   89.1840 O.2    13  TYR13      -0.2867
      5  CB        74.0530  -44.7630   90.6720 C.3    13  TYR13       0.0534
      6  CG        73.3860  -43.4590   91.0420 C.ar   13  TYR13      -0.0201
      7  CD1       73.7940  -42.2660   90.4690 C.ar   13  TYR13      -0.0009
      8  CD2       72.4150  -43.4090   92.0520 C.ar   13  TYR13      -0.0009
      9  CE1       73.2150  -41.0820   90.8420 C.ar   13  TYR13       0.0417
     10  CE2       71.8160  -42.2230   92.4330 C.ar   13  TYR13       0.0417
     11  CZ        72.2330  -41.0520   91.8320 C.ar   13  TYR13       0.1957
     12  OH        71.6790  -39.8260   92.1990 O.3    13  TYR13      -0.2866
     13  N         68.1040  -37.7480   93.9520 N.3    83  HIS83      -0.1226
     14  CA        68.0160  -37.9040   92.4910 C.3    83  HIS83       0.1752
     15  C         68.0970  -39.3250   91.9510 C.2    83  HIS83       0.2596
     16  O         68.7960  -40.1680   92.4970 O.2    83  HIS83      -0.2718
     17  CB        69.1430  -37.1420   91.8040 C.3    83  HIS83       0.0759
     18  CG        69.1060  -35.6690   92.0250 C.ar   83  HIS83       0.0818
     19  ND1       69.7560  -35.0640   93.0740 N.ar   83  HIS83      -0.2268
     20  CD2       68.5180  -34.6770   91.3140 C.ar   83  HIS83       0.1154
     21  CE1       69.5740  -33.7600   92.9980 C.ar   83  HIS83       0.1986
     22  NE2       68.8160  -33.5010   91.9500 N.ar   83  HIS83      -0.2212
     23  N         67.4280  -39.5370   90.8220 N.am   84  ASP84      -0.1960
     24  CA        67.5170  -40.7750   90.0490 C.3    84  ASP84       0.1840
     25  C         68.7820  -40.8030   89.1850 C.2    84  ASP84       0.2622
     26  O         69.3420  -39.7680   88.8550 O.2    84  ASP84      -0.2715
     27  CB        66.2930  -40.9240   89.1300 C.3    84  ASP84       0.1450
     28  CG        65.0730  -41.4380   89.8630 C.2    84  ASP84       0.3671
     29  OD1       65.1280  -42.5080   90.5230 O.co2  84  ASP84      -0.2456
     30  OD2       64.0370  -40.7710   89.7590 O.co2  84  ASP84      -0.2456
     31  N         69.2170  -41.9940   88.8190 N.am   85  VAL85      -0.1963
     32  CA        70.4410  -42.1360   88.0350 C.3    85  VAL85       0.1727
     33  C         70.3730  -41.3530   86.7260 C.2    85  VAL85       0.2616
     34  O         71.3520  -40.6910   86.3430 O.2    85  VAL85      -0.2715
     35  CB        70.7920  -43.6060   87.7320 C.3    85  VAL85       0.0290
     36  CG1       69.6810  -44.3060   86.9350 C.3    85  VAL85       0.0023
     37  CG2       72.0850  -43.6880   86.9770 C.3    85  VAL85       0.0023
     38  N         69.2240  -41.4180   86.0510 N.am   86  GLN86      -0.1977
     39  CA        69.1080  -40.7440   84.7680 C.3    86  GLN86       0.1601
     40  C         69.2120  -39.2400   84.9290 C.2    86  GLN86       0.2287
     41  O         69.4220  -38.5550   83.9470 O.2    86  GLN86      -0.2864
     42  CB        67.8370  -41.1410   83.9800 C.3    86  GLN86       0.0394
     43  CG        66.4940  -40.7400   84.5890 C.3    86  GLN86       0.0908
     44  CD        65.9010  -41.8220   85.5100 C.2    86  GLN86       0.2608
     45  OE1       66.6150  -42.7250   85.9780 O.2    86  GLN86      -0.2717
     46  NE2       64.6070  -41.7360   85.7600 N.am   86  GLN86      -0.0878
     47  N         62.2020  -45.2850   81.1160 N.3   140  GLN140     -0.1245
     48  CA        61.9410  -45.8570   82.4240 C.3   140  GLN140      0.1566
     49  C         60.9730  -46.9980   82.1950 C.2   140  GLN140      0.2260
     50  O         59.8890  -46.7690   81.7240 O.2   140  GLN140     -0.2867
     51  CB        61.3210  -44.8340   83.3840 C.3   140  GLN140      0.0367
     52  CG        62.2790  -43.7440   83.8410 C.3   140  GLN140      0.0905
     53  CD        62.5410  -42.7240   82.7590 C.2   140  GLN140      0.2608
     54  OE1       61.6460  -41.9750   82.3890 O.2   140  GLN140     -0.2717
     55  NE2       63.7900  -42.7010   82.2210 N.am  140  GLN140     -0.0878
     56  N         66.3060  -47.4400   82.3460 N.3   194  GLN194     -0.1231
     57  CA        66.1740  -47.6010   83.8010 C.3   194  GLN194      0.1698
     58  C         65.0080  -48.5170   84.1290 C.2   194  GLN194      0.2592
     59  O         63.9340  -48.4100   83.5470 O.2   194  GLN194     -0.2718
     60  CB        65.9350  -46.2830   84.5090 C.3   194  GLN194      0.0381
     61  CG        67.1010  -45.3310   84.4460 C.3   194  GLN194      0.0905
     62  CD        67.1790  -44.6510   83.1080 C.2   194  GLN194      0.2608
     63  OE1       66.1680  -44.1890   82.5810 O.2   194  GLN194     -0.2717
     64  NE2       68.3780  -44.5700   82.5540 N.am  194  GLN194     -0.0878
     65  N         65.2200  -49.3830   85.1030 N.am  195  LEU195     -0.1966
     66  CA        64.2020  -50.3020   85.6180 C.3   195  LEU195      0.1728
     67  C         63.5950  -49.7420   86.8960 C.2   195  LEU195      0.2616
     68  O         64.3030  -49.4090   87.7960 O.2   195  LEU195     -0.2715
     69  CB        64.8360  -51.6680   85.8830 C.3   195  LEU195      0.0311
     70  CG        65.7010  -52.2050   84.7400 C.3   195  LEU195      0.0022
     71  CD1       66.2370  -53.5690   85.1090 C.3   195  LEU195      0.0001
     72  CD2       64.9180  -52.3130   83.4450 C.3   195  LEU195      0.0001
     73  N         62.2740  -49.6230   86.9510 N.am  196  MET196     -0.1963
     74  CA        61.5890  -48.9820   88.0750 C.3   196  MET196      0.1736
     75  C         61.5190  -49.8850   89.3220 C.2   196  MET196      0.2616
     76  O         60.4450  -50.3370   89.7270 O.2   196  MET196     -0.2715
     77  CB        60.2030  -48.5150   87.6200 C.3   196  MET196      0.0427
     78  CG        60.3070  -47.3900   86.5940 C.3   196  MET196      0.0599
     79  SD        58.8270  -46.9850   85.6540 S.3   196  MET196     -0.1393
     80  CE        57.5660  -46.8850   86.9420 C.3   196  MET196      0.0692
     81  N         62.6890  -50.1190   89.9250 N.am  197  ARG197     -0.1963
     82  CA        62.8300  -50.9360   91.1370 C.3   197  ARG197      0.1729
     83  C         62.5870  -50.1520   92.4430 C.2   197  ARG197      0.2616
     84  O         62.3110  -50.7540   93.4940 O.2   197  ARG197     -0.2715
     85  CB        64.2210  -51.5830   91.1800 C.3   197  ARG197      0.0348
     86  CG        64.4360  -52.7350   90.1850 C.3   197  ARG197      0.0492
     87  CD        65.6200  -53.6190   90.5860 C.3   197  ARG197      0.2205
     88  NE        65.8090  -54.7970   89.7460 N.pl3 197  ARG197     -0.0865
     89  CZ        65.1960  -55.9770   89.9060 C.cat 197  ARG197      0.5346
     90  NH1       64.2910  -56.1980   90.8940 N.pl3 197  ARG197      0.1354
     91  NH2       65.4900  -56.9790   89.0690 N.pl3 197  ARG197      0.1354
     92  N         62.6670  -48.8260   92.3820 N.am  198  PHE198     -0.1960
     93  CA        62.5540  -47.9690   93.5620 C.3   198  PHE198      0.1771
     94  C         61.2540  -47.1970   93.4760 C.2   198  PHE198      0.2619
     95  O         61.1560  -46.2200   92.7290 O.2   198  PHE198     -0.2715
     96  CB        63.7620  -47.0080   93.6640 C.3   198  PHE198      0.0574
     97  CG        64.0870  -46.5540   95.0600 C.ar  198  PHE198     -0.0200
     98  CD1       64.0300  -47.4360   96.1380 C.ar  198  PHE198     -0.0042
     99  CD2       64.4520  -45.2370   95.3080 C.ar  198  PHE198     -0.0042
    100  CE1       64.3150  -47.0070   97.4320 C.ar  198  PHE198     -0.0003
    101  CE2       64.7680  -44.8100   96.5840 C.ar  198  PHE198     -0.0003
    102  CZ        64.6990  -45.6970   97.6530 C.ar  198  PHE198     -0.0000
    103  N         60.2690  -47.6220   94.2640 N.am  199  MET199     -0.1977
    104  CA        58.9130  -47.1120   94.1230 C.3   199  MET199      0.1605
    105  C         58.3580  -46.6010   95.4440 C.2   199  MET199      0.2287
    106  O         58.5720  -47.2020   96.4970 O.2   199  MET199     -0.2864
    107  CB        57.9850  -48.1780   93.5150 C.3   199  MET199      0.0413
    108  CG        58.3540  -48.5520   92.0690 C.3   199  MET199      0.0598
    109  SD        57.0030  -48.4570   90.8640 S.3   199  MET199     -0.1393
    110  CE        57.2090  -46.7950   90.2430 C.3   199  MET199      0.0692
    111  N         62.6590  -50.6230   97.7310 N.3   209  LYS209     -0.1245
    112  CA        63.2340  -51.3930   96.6550 C.3   209  LYS209      0.1561
    113  C         62.5030  -52.6860   96.4280 C.2   209  LYS209      0.2260
    114  O         62.2780  -53.4400   97.3540 O.2   209  LYS209     -0.2867
    115  CB        64.7020  -51.7030   96.8990 C.3   209  LYS209      0.0271
    116  CG        65.4280  -51.9720   95.5890 C.3   209  LYS209      0.0035
    117  CD        66.6710  -52.7830   95.8270 C.3   209  LYS209      0.0206
    118  CE        67.4540  -52.9410   94.5480 C.3   209  LYS209      0.1093
    119  NZ        68.5050  -53.9440   94.8080 N.3   209  LYS209     -0.1314
    120  N         72.8940  -53.1330   91.8140 N.3   245  HIS245     -0.1241
    121  CA        72.8470  -52.6900   93.2010 C.3   245  HIS245      0.1621
    122  C         72.4190  -53.8240   94.1170 C.2   245  HIS245      0.2264
    123  O         71.4950  -54.5550   93.7870 O.2   245  HIS245     -0.2867
    124  CB        71.8750  -51.5270   93.3300 C.3   245  HIS245      0.0745
    125  CG        71.6340  -51.1010   94.7360 C.ar  245  HIS245      0.0817
    126  ND1       70.6910  -51.7010   95.5390 N.ar  245  HIS245     -0.2268
    127  CD2       72.2150  -50.1450   95.4900 C.ar  245  HIS245      0.1154
    128  CE1       70.6810  -51.1170   96.7200 C.ar  245  HIS245      0.1986
    129  NE2       71.6020  -50.1720   96.7180 N.ar  245  HIS245     -0.2212
    130  N         68.9650  -52.8470  100.2190 N.3   248  ASP248     -0.1225
    131  CA        67.6470  -52.2150  100.2120 C.3   248  ASP248      0.1805
    132  C         67.6770  -50.6670  100.1470 C.2   248  ASP248      0.2598
    133  O         66.6250  -50.0440  100.0730 O.2   248  ASP248     -0.2718
    134  CB        66.8760  -52.6760  101.4640 C.3   248  ASP248      0.1424
    135  CG        66.1660  -53.9780  101.3340 C.2   248  ASP248      0.3668
    136  OD1       66.1290  -54.5630  100.2720 O.co2 248  ASP248     -0.2456
    137  OD2       65.5630  -54.3840  102.4080 O.co2 248  ASP248     -0.2456
    138  N         68.8550  -50.0440  100.2010 N.am  249  ASN249     -0.1960
    139  CA        68.9260  -48.5870  100.4150 C.3   249  ASN249      0.1819
    140  C         70.1650  -47.9240   99.8000 C.2   249  ASN249      0.2621
    141  O         70.9610  -48.5870   99.1070 O.2   249  ASN249     -0.2715
    142  CB        68.8160  -48.2540  101.9160 C.3   249  ASN249      0.1195
    143  CG        69.9240  -48.9040  102.7530 C.2   249  ASN249      0.2630
    144  OD1       71.1290  -48.6460  102.5760 O.2   249  ASN249     -0.2716
    145  ND2       69.5210  -49.7290  103.6780 N.am  249  ASN249     -0.0877
    146  N         70.2910  -46.6040   99.9980 N.am  250  HIS250     -0.1973
    147  CA        71.3930  -45.8360   99.4180 C.3   250  HIS250      0.1656
    148  C         72.7440  -46.1970  100.0620 C.2   250  HIS250      0.2291
    149  O         73.7970  -45.8800   99.5160 O.2   250  HIS250     -0.2864
    150  CB        71.1220  -44.3240   99.4990 C.3   250  HIS250      0.0771
    151  CG        70.0880  -43.8260   98.5290 C.ar  250  HIS250      0.0820
    152  ND1       68.7530  -43.7060   98.8570 N.ar  250  HIS250     -0.2267
    153  CD2       70.2030  -43.3820   97.2460 C.ar  250  HIS250      0.1154
    154  CE1       68.0850  -43.2390   97.8100 C.ar  250  HIS250      0.1986
    155  NE2       68.9430  -43.0360   96.8180 N.ar  250  HIS250     -0.2212
    156  N         76.9370  -50.6920   94.9480 N.3   254  TYR254     -0.1241
    157  CA        76.7290  -50.3550   93.5620 C.3   254  TYR254      0.1605
    158  C         77.9010  -50.8190   92.6900 C.2   254  TYR254      0.2264
    159  O         79.0300  -50.3610   92.8850 O.2   254  TYR254     -0.2867
    160  CB        76.6260  -48.8390   93.4200 C.3   254  TYR254      0.0534
    161  CG        75.3620  -48.2230   93.9720 C.ar  254  TYR254     -0.0201
    162  CD1       75.2640  -47.9120   95.3290 C.ar  254  TYR254     -0.0009
    163  CD2       74.2790  -47.9240   93.1470 C.ar  254  TYR254     -0.0009
    164  CE1       74.1430  -47.3140   95.8380 C.ar  254  TYR254      0.0417
    165  CE2       73.1420  -47.3040   93.6650 C.ar  254  TYR254      0.0417
    166  CZ        73.0940  -47.0100   95.0180 C.ar  254  TYR254      0.1957
    167  OH        72.0320  -46.4110   95.6010 O.3   254  TYR254     -0.2866
    168  N         69.3450  -52.1850   87.9840 N.3   295  TYR295     -0.1241
    169  CA        68.4040  -51.0870   87.9050 C.3   295  TYR295      0.1605
    170  C         68.5550  -50.2080   86.6280 C.2   295  TYR295      0.2264
    171  O         67.7850  -49.2830   86.4300 O.2   295  TYR295     -0.2867
    172  CB        68.5570  -50.1880   89.1260 C.3   295  TYR295      0.0534
    173  CG        69.8990  -49.5120   89.2010 C.ar  295  TYR295     -0.0201
    174  CD1       70.9470  -50.0930   89.9210 C.ar  295  TYR295     -0.0009
    175  CD2       70.1540  -48.3080   88.5240 C.ar  295  TYR295     -0.0009
    176  CE1       72.1980  -49.5040   89.9640 C.ar  295  TYR295      0.0417
    177  CE2       71.3930  -47.7110   88.5820 C.ar  295  TYR295      0.0417
    178  CZ        72.3990  -48.3330   89.2970 C.ar  295  TYR295      0.1957
    179  OH        73.6270  -47.7870   89.4070 O.3   295  TYR295     -0.2866
@<TRIPOS>BOND
     1    47    48    1
     2    50    49    2
     3    49    48    1
     4    55    53   am
     5    56    57    1
     6    54    53    2
     7    48    51    1
     8    64    62   am
     9    63    62    2
    10    53    52    1
    11    62    61    1
    12    51    52    1
    13    72    70    1
    14    59    58    2
    15    57    58    1
    16    57    60    1
    17    41    40    2
    18    42    43    1
    19    42    39    1
    20    58    65   am
    21    61    60    1
    22    43    44    1
    23    70    71    1
    24    70    69    1
    25    39    40    1
    26    39    38    1
    27    65    66    1
    28    44    46   am
    29    44    45    2
    30    66    69    1
    31    66    67    1
    32    79    78    1
    33    79    80    1
    34    38    33   am
    35    34    33    2
    36   171   170    2
    37    78    77    1
    38   170   169    1
    39    33    32    1
    40    67    73   am
    41    67    68    2
    42    36    35    1
    43    73    74    1
    44    37    35    1
    45    77    74    1
    46    35    32    1
    47   169   168    1
    48   169   172    1
    49    32    31    1
    50    74    75    1
    51   175   177   ar
    52   175   173   ar
    53   177   178   ar
    54    31    25   am
    55    26    25    2
    56    91    89    1
    57   172   173    1
    58    27    28    1
    59    27    24    1
    60     4     3    2
    61    25    24    1
    62   173   174   ar
    63   178   179    1
    64   178   176   ar
    65    75    76    2
    66    75    81   am
    67    88    89    2
    68    88    87    1
    69    30    28   ar
    70    28    29   ar
    71    89    90    1
    72   174   176   ar
    73    81    82    1
    74    24    23    1
    75    86    87    1
    76    86    85    1
    77   110   109    1
    78     3     2    1
    79     7     9   ar
    80     7     6   ar
    81     5     6    1
    82     5     2    1
    83    23    15   am
    84     9    11   ar
    85   109   108    1
    86     6     8   ar
    87    82    85    1
    88    82    83    1
    89     2     1    1
    90    20    22   ar
    91    20    18   ar
    92    17    18    1
    93    17    14    1
    94   120   121    1
    95    11    12    1
    96    11    10   ar
    97    22    21   ar
    98    15    14    1
    99    15    16    2
   100    18    19   ar
   101     8    10   ar
   102   108   107    1
   103    92    83   am
   104    92    93    1
   105    83    84    2
   106    14    13    1
   107   158   159    2
   108   158   157    1
   109    95    94    2
   110    21    19   ar
   111   163   165   ar
   112   163   161   ar
   113   121   124    1
   114   121   122    1
   115   124   125    1
   116   160   157    1
   117   160   161    1
   118    94    93    1
   119    94   103   am
   120   107   104    1
   121   157   156    1
   122    93    96    1
   123    96    97    1
   124   165   166   ar
   125   123   122    2
   126   161   162   ar
   127   104   103    1
   128   104   105    1
   129   118   119    1
   130   118   117    1
   131   125   127   ar
   132   125   126   ar
   133   166   167    1
   134   166   164   ar
   135    97    99   ar
   136    97    98   ar
   137    99   101   ar
   138   162   164   ar
   139   105   106    2
   140   127   129   ar
   141   126   128   ar
   142   116   117    1
   143   116   115    1
   144    98   100   ar
   145   113   112    1
   146   113   114    2
   147   101   102   ar
   148   112   115    1
   149   112   111    1
   150   129   128   ar
   151   155   153   ar
   152   155   154   ar
   153   153   151   ar
   154   100   102   ar
   155   154   152   ar
   156   151   152   ar
   157   151   150    1
   158   141   140    2
   159   147   150    1
   160   147   146    1
   161   147   148    1
   162   149   148    2
   163   140   146   am
   164   140   139    1
   165   133   132    2
   166   132   138   am
   167   132   131    1
   168   138   139    1
   169   131   130    1
   170   131   134    1
   171   136   135   ar
   172   139   142    1
   173   135   134    1
   174   135   137   ar
   175   142   143    1
   176   144   143    2
   177   143   145   am
