@<TRIPOS>MOLECULE
tmp/5ngfA00.pdb
 208 205 0 0 0
SMALL
GASTEIGER

@<TRIPOS>ATOM
      1  N         10.6310  -23.3930    1.5780 N.3    13  ALA13      -0.1245
      2  CA        11.0230  -24.4120    2.5210 C.3    13  ALA13       0.1562
      3  C         11.0980  -23.8370    3.9380 C.2    13  ALA13       0.2260
      4  O         12.1840  -23.6520    4.4920 O.2    13  ALA13      -0.2867
      5  CB        12.3420  -25.0040    2.0880 C.3    13  ALA13       0.0290
      6  N          9.3750  -25.2740    6.5500 N.3    15  CYS15      -0.1221
      7  CA         9.3050  -26.3970    7.4720 C.3    15  CYS15       0.1808
      8  C          8.1850  -26.2310    8.4380 C.2    15  CYS15       0.2601
      9  O          7.0600  -26.3010    8.0430 O.2    15  CYS15      -0.2717
     10  CB        10.6640  -26.6420    8.1460 C.3    15  CYS15       0.0970
     11  SG        11.9490  -26.8670    6.8810 S.3    15  CYS15      -0.0800
     12  N          8.5010  -25.9530    9.6920 N.am   16  TYR16      -0.1976
     13  CA         7.5230  -25.8850   10.7940 C.3    16  TYR16       0.1639
     14  C          6.9380  -24.5090   10.9330 C.2    16  TYR16       0.2290
     15  O          6.0810  -24.3110   11.7690 O.2    16  TYR16      -0.2864
     16  CB         8.2420  -26.2210   12.1200 C.3    16  TYR16       0.0560
     17  CG         9.6400  -25.6500   12.1600 C.ar   16  TYR16      -0.0198
     18  CD1        9.8680  -24.3080   12.5010 C.ar   16  TYR16      -0.0009
     19  CD2       10.7140  -26.4100   11.7910 C.ar   16  TYR16      -0.0009
     20  CE1       11.1450  -23.7740   12.4770 C.ar   16  TYR16       0.0417
     21  CE2       11.9830  -25.8900   11.7450 C.ar   16  TYR16       0.0417
     22  CZ        12.1970  -24.5710   12.0860 C.ar   16  TYR16       0.1957
     23  OH        13.5030  -24.0760   12.0290 O.3    16  TYR16      -0.2866
     24  N         15.9850  -22.5830    8.1970 N.3    83  PHE83      -0.1227
     25  CA        14.9550  -23.4150    8.8080 C.3    83  PHE83       0.1736
     26  C         15.4070  -24.8080    9.1770 C.2    83  PHE83       0.2595
     27  O         15.0150  -25.3210   10.2190 O.2    83  PHE83      -0.2718
     28  CB        13.6700  -23.4570    7.9860 C.3    83  PHE83       0.0547
     29  CG        12.9090  -22.1670    8.0430 C.ar   83  PHE83      -0.0202
     30  CD1       12.1520  -21.8600    9.1600 C.ar   83  PHE83      -0.0042
     31  CD2       13.0390  -21.2300    7.0300 C.ar   83  PHE83      -0.0042
     32  CE1       11.4940  -20.6640    9.2550 C.ar   83  PHE83      -0.0003
     33  CE2       12.3730  -20.0330    7.1020 C.ar   83  PHE83      -0.0003
     34  CZ        11.5970  -19.7470    8.2250 C.ar   83  PHE83      -0.0000
     35  N         16.2110  -25.4250    8.3480 N.am   84  MET84      -0.1979
     36  CA        16.6930  -26.7580    8.6470 C.3    84  MET84       0.1605
     37  C         17.7760  -26.8130    9.7670 C.2    84  MET84       0.2287
     38  O         17.9910  -27.8660   10.3010 O.2    84  MET84      -0.2864
     39  CB        17.1290  -27.4980    7.3590 C.3    84  MET84       0.0413
     40  CG        18.5250  -27.2450    6.8420 C.3    84  MET84       0.0598
     41  SD        19.0220  -28.3950    5.4940 S.3    84  MET84      -0.1393
     42  CE        17.4280  -28.8050    4.8380 C.3    84  MET84       0.0692
     43  N         17.6730  -24.8440   12.6390 N.3    86  HIS86      -0.1226
     44  CA        17.0940  -24.3380   13.8910 C.3    86  HIS86       0.1752
     45  C         16.0070  -25.2630   14.3780 C.2    86  HIS86       0.2596
     46  O         15.4760  -26.0690   13.6260 O.2    86  HIS86      -0.2718
     47  CB        16.5240  -22.9260   13.7280 C.3    86  HIS86       0.0759
     48  CG        17.5700  -21.8640   13.6110 C.ar   86  HIS86       0.0818
     49  ND1       18.2080  -21.5700   12.4280 N.ar   86  HIS86      -0.2268
     50  CD2       18.1090  -21.0380   14.5400 C.ar   86  HIS86       0.1154
     51  CE1       19.0890  -20.6040   12.6270 C.ar   86  HIS86       0.1986
     52  NE2       19.0460  -20.2610   13.9010 N.ar   86  HIS86      -0.2212
     53  N         15.6960  -25.1520   15.6590 N.am   87  ASP87      -0.1960
     54  CA        14.6090  -25.9200   16.2570 C.3    87  ASP87       0.1840
     55  C         13.4010  -25.0290   16.2040 C.2    87  ASP87       0.2622
     56  O         13.5410  -23.8150   15.9940 O.2    87  ASP87      -0.2715
     57  CB        14.9510  -26.3740   17.7020 C.3    87  ASP87       0.1450
     58  CG        15.9100  -27.5960   17.7340 C.2    87  ASP87       0.3671
     59  OD1       15.5580  -28.7020   17.2430 O.co2  87  ASP87      -0.2456
     60  OD2       17.0190  -27.4550   18.2780 O.co2  87  ASP87      -0.2456
     61  N         12.2260  -25.6280   16.3890 N.am   88  VAL88      -0.1963
     62  CA        10.9680  -24.8940   16.3610 C.3    88  VAL88       0.1727
     63  C         10.8800  -23.8780   17.4990 C.2    88  VAL88       0.2616
     64  O         10.4160  -22.7720   17.2720 O.2    88  VAL88      -0.2715
     65  CB         9.7530  -25.8240   16.3520 C.3    88  VAL88       0.0290
     66  CG1        9.6510  -26.6490   17.6250 C.3    88  VAL88       0.0023
     67  CG2        8.4730  -25.0440   16.1640 C.3    88  VAL88       0.0023
     68  N         11.3740  -24.2250   18.6910 N.am   89  GLN89      -0.1977
     69  CA        11.3880  -23.2980   19.8270 C.3    89  GLN89       0.1601
     70  C         12.3350  -22.1230   19.6260 C.2    89  GLN89       0.2287
     71  O         12.1300  -21.0620   20.2000 O.2    89  GLN89      -0.2864
     72  CB        11.7430  -24.0210   21.1510 C.3    89  GLN89       0.0394
     73  CG        13.1830  -24.6110   21.2550 C.3    89  GLN89       0.0908
     74  CD        13.2850  -26.0610   20.7490 C.2    89  GLN89       0.2608
     75  OE1       12.4500  -26.5140   19.9890 O.2    89  GLN89      -0.2717
     76  NE2       14.2890  -26.7770   21.1740 N.am   89  GLN89      -0.0878
     77  N         11.7000  -29.1000   26.5410 N.3   143  GLN143     -0.1245
     78  CA        12.0700  -30.1270   25.6190 C.3   143  GLN143      0.1566
     79  C         12.0830  -31.4780   26.3140 C.2   143  GLN143      0.2260
     80  O         12.7860  -31.6860   27.2870 O.2   143  GLN143     -0.2867
     81  CB        13.4240  -29.7940   25.0440 C.3   143  GLN143      0.0367
     82  CG        13.4330  -28.5850   24.1160 C.3   143  GLN143      0.0905
     83  CD        13.4490  -27.2490   24.8470 C.2   143  GLN143      0.2608
     84  OE1       14.3110  -26.9900   25.7280 O.2   143  GLN143     -0.2717
     85  NE2       12.5260  -26.3690   24.4640 N.am  143  GLN143     -0.0878
     86  N          8.3090  -29.3950   23.3580 N.3   197  GLN197     -0.1231
     87  CA         8.8670  -30.0140   22.1970 C.3   197  GLN197      0.1698
     88  C          9.2390  -31.4270   22.5510 C.2   197  GLN197      0.2592
     89  O          9.7190  -31.6990   23.6620 O.2   197  GLN197     -0.2718
     90  CB        10.0660  -29.2490   21.6550 C.3   197  GLN197      0.0381
     91  CG         9.6680  -27.9880   20.9230 C.3   197  GLN197      0.0905
     92  CD         9.4750  -26.8240   21.8560 C.2   197  GLN197      0.2608
     93  OE1       10.1520  -26.7170   22.8770 O.2   197  GLN197     -0.2717
     94  NE2        8.5330  -25.9480   21.5240 N.am  197  GLN197     -0.0878
     95  N          8.9780  -32.3270   21.6070 N.am  198  LEU198     -0.1966
     96  CA         9.3170  -33.7370   21.7380 C.3   198  LEU198      0.1728
     97  C         10.6330  -34.0170   20.9920 C.2   198  LEU198      0.2616
     98  O         10.7790  -33.6970   19.8000 O.2   198  LEU198     -0.2715
     99  CB         8.1780  -34.5830   21.1950 C.3   198  LEU198      0.0311
    100  CG         6.7770  -34.2660   21.7180 C.3   198  LEU198      0.0022
    101  CD1        5.7980  -35.3140   21.2020 C.3   198  LEU198      0.0001
    102  CD2        6.7650  -34.2620   23.2290 C.3   198  LEU198      0.0001
    103  N         11.6130  -34.5680   21.7040 N.am  199  MET199     -0.1963
    104  CA        12.9710  -34.6550   21.1710 C.3   199  MET199      0.1736
    105  C         13.1090  -35.8390   20.2200 C.2   199  MET199      0.2616
    106  O         13.8020  -36.7960   20.5120 O.2   199  MET199     -0.2715
    107  CB        13.9920  -34.7040   22.3030 C.3   199  MET199      0.0427
    108  CG        14.1780  -33.3710   23.0440 C.3   199  MET199      0.0599
    109  SD        15.3160  -33.4260   24.4760 S.3   199  MET199     -0.1393
    110  CE        16.2810  -34.8980   24.1420 C.3   199  MET199      0.0692
    111  N         12.4310  -35.7440   19.0750 N.am  200  ARG200     -0.1963
    112  CA        12.4090  -36.8230   18.0790 C.3   200  ARG200      0.1729
    113  C         13.5600  -36.7930   17.0890 C.2   200  ARG200      0.2616
    114  O         13.8300  -37.7980   16.4370 O.2   200  ARG200     -0.2715
    115  CB        11.0870  -36.8220   17.3080 C.3   200  ARG200      0.0348
    116  CG         9.9590  -37.5430   18.0090 C.3   200  ARG200      0.0492
    117  CD         8.7020  -37.5530   17.1620 C.3   200  ARG200      0.2205
    118  NE         7.5590  -38.1860   17.8340 N.pl3 200  ARG200     -0.0865
    119  CZ         7.3640  -39.5050   17.9360 C.cat 200  ARG200      0.5346
    120  NH1        6.2680  -39.9680   18.5260 N.pl3 200  ARG200      0.1354
    121  NH2        8.2570  -40.3720   17.4700 N.pl3 200  ARG200      0.1354
    122  N         14.2440  -35.6620   16.9540 N.am  201  PHE201     -0.1960
    123  CA        15.2920  -35.5320   15.9160 C.3   201  PHE201      0.1771
    124  C         16.6510  -35.3490   16.5900 C.2   201  PHE201      0.2619
    125  O         16.9350  -34.2870   17.1350 O.2   201  PHE201     -0.2715
    126  CB        14.9940  -34.3190   14.9930 C.3   201  PHE201      0.0574
    127  CG        13.7450  -34.4500   14.1580 C.ar  201  PHE201     -0.0200
    128  CD1       12.4950  -34.2130   14.6990 C.ar  201  PHE201     -0.0042
    129  CD2       13.8220  -34.7850   12.8050 C.ar  201  PHE201     -0.0042
    130  CE1       11.3360  -34.2940   13.9080 C.ar  201  PHE201     -0.0003
    131  CE2       12.6810  -34.9110   12.0230 C.ar  201  PHE201     -0.0003
    132  CZ        11.4400  -34.6810   12.5800 C.ar  201  PHE201     -0.0000
    133  N         17.5060  -36.3540   16.5080 N.am  202  MET202     -0.1977
    134  CA        18.7500  -36.4020   17.3270 C.3   202  MET202      0.1605
    135  C         20.0100  -36.6140   16.4610 C.2   202  MET202      0.2287
    136  O         19.9190  -37.2160   15.3840 O.2   202  MET202     -0.2864
    137  CB        18.6500  -37.5330   18.3690 C.3   202  MET202      0.0413
    138  CG        17.4270  -37.4920   19.2960 C.3   202  MET202      0.0598
    139  SD        17.4930  -36.2430   20.6060 S.3   202  MET202     -0.1393
    140  CE        18.8980  -36.8170   21.5980 C.3   202  MET202      0.0692
    141  N         22.1170  -37.1360   12.1780 N.3   204  ASN204     -0.1240
    142  CA        20.8370  -36.4580   12.3850 C.3   204  ASN204      0.1653
    143  C         19.6190  -37.2740   11.8880 C.2   204  ASN204      0.2266
    144  O         19.1550  -37.0830   10.7550 O.2   204  ASN204     -0.2867
    145  CB        20.8540  -35.0760   11.7210 C.3   204  ASN204      0.1155
    146  CG        19.5440  -34.3340   11.6920 C.2   204  ASN204      0.2627
    147  OD1       18.6330  -34.6310   12.4650 O.2   204  ASN204     -0.2716
    148  ND2       19.4280  -33.3510   10.8050 N.am  204  ASN204     -0.0877
    149  N          4.8870  -33.9970   12.0020 N.3   242  HIS242     -0.1241
    150  CA         5.7860  -34.2020   10.8970 C.3   242  HIS242      0.1621
    151  C          5.5960  -35.6300   10.4560 C.2   242  HIS242      0.2264
    152  O          5.5120  -36.5350   11.2750 O.2   242  HIS242     -0.2867
    153  CB         7.2130  -33.9330   11.3300 C.3   242  HIS242      0.0745
    154  CG         8.2570  -34.3100   10.3230 C.ar  242  HIS242      0.0817
    155  ND1        8.5630  -35.6190   10.0200 N.ar  242  HIS242     -0.2268
    156  CD2        9.0670  -33.5470    9.5500 C.ar  242  HIS242      0.1154
    157  CE1        9.5220  -35.6460    9.1140 C.ar  242  HIS242      0.1986
    158  NE2        9.8410  -34.4000    8.8050 N.ar  242  HIS242     -0.2212
    159  N         13.8560  -39.1790    8.1660 N.3   246  ASN246     -0.1225
    160  CA        14.7860  -38.1480    8.6410 C.3   246  ASN246      0.1785
    161  C         14.7610  -36.9760    7.6510 C.2   246  ASN246      0.2597
    162  O         14.2660  -35.8660    7.9480 O.2   246  ASN246     -0.2718
    163  CB        16.2130  -38.7060    8.7480 C.3   246  ASN246      0.1169
    164  CG        16.7720  -39.6670    7.7390 C.2   246  ASN246      0.2627
    165  OD1       16.9870  -39.2450    6.5990 O.2   246  ASN246     -0.2716
    166  ND2       16.9470  -40.9200    8.1370 N.am  246  ASN246     -0.0877
    167  N         15.2500  -37.2840    6.4480 N.am  247  HIS247     -0.1961
    168  CA        15.4000  -36.3270    5.3690 C.3   247  HIS247      0.1787
    169  C         14.0580  -36.0910    4.6470 C.2   247  HIS247      0.2621
    170  O         13.4180  -37.0450    4.1950 O.2   247  HIS247     -0.2715
    171  CB        16.4590  -36.8590    4.3890 C.3   247  HIS247      0.0785
    172  CG        16.8590  -35.8770    3.3040 C.ar  247  HIS247      0.0821
    173  ND1       17.9510  -35.1230    3.2790 N.ar  247  HIS247     -0.2267
    174  CD2       16.2140  -35.7010    2.1090 C.ar  247  HIS247      0.1154
    175  CE1       18.0150  -34.5130    2.1210 C.ar  247  HIS247      0.1986
    176  NE2       16.9700  -34.8720    1.4340 N.ar  247  HIS247     -0.2212
    177  N         13.6420  -34.8260    4.5430 N.am  248  GLY248     -0.1940
    178  CA        12.4300  -34.4610    3.8230 C.3   248  GLY248      0.2017
    179  C         11.2260  -34.8030    4.6620 C.2   248  GLY248      0.2678
    180  O         11.2210  -35.8320    5.3480 O.2   248  GLY248     -0.2710
    181  N         10.2120  -33.9440    4.6330 N.am  249  GLY249     -0.1729
    182  CA         9.0060  -34.1980    5.3960 C.2   249  GLY249      0.1340
    183  C          7.7930  -33.3420    5.0580 C.2   249  GLY249      0.2521
    184  O          7.9200  -32.2180    4.5390 O.2   249  GLY249     -0.2816
    185  N          4.5000  -31.3570    6.7720 N.3   251  TYR251     -0.1241
    186  CA         4.1660  -30.6770    8.0220 C.3   251  TYR251      0.1605
    187  C          2.7200  -30.2570    8.1470 C.2   251  TYR251      0.2264
    188  O          2.2820  -29.3980    7.4000 O.2   251  TYR251     -0.2867
    189  CB         4.9800  -29.3800    8.1580 C.3   251  TYR251      0.0534
    190  CG         6.4250  -29.5840    8.4270 C.ar  251  TYR251     -0.0201
    191  CD1        7.3470  -29.8080    7.3640 C.ar  251  TYR251     -0.0009
    192  CD2        6.8920  -29.6230    9.7340 C.ar  251  TYR251     -0.0009
    193  CE1        8.6980  -30.0510    7.6260 C.ar  251  TYR251      0.0417
    194  CE2        8.2360  -29.8740    9.9960 C.ar  251  TYR251      0.0417
    195  CZ         9.1300  -30.0660    8.9580 C.ar  251  TYR251      0.1957
    196  OH        10.4240  -30.2950    9.2590 O.3   251  TYR251     -0.2866
    197  N          5.7700  -33.6710   17.0590 N.3   292  TYR292     -0.1241
    198  CA         7.0570  -33.1810   17.5620 C.3   292  TYR292      0.1605
    199  C          6.8930  -31.9980   18.5180 C.2   292  TYR292      0.2264
    200  O          7.8500  -31.6380   19.1460 O.2   292  TYR292     -0.2867
    201  CB         8.0250  -32.7790   16.4300 C.3   292  TYR292      0.0534
    202  CG         7.5050  -31.6470   15.5770 C.ar  292  TYR292     -0.0201
    203  CD1        7.6320  -30.3200   15.9950 C.ar  292  TYR292     -0.0009
    204  CD2        6.8860  -31.8900   14.3430 C.ar  292  TYR292     -0.0009
    205  CE1        7.1490  -29.2690   15.2070 C.ar  292  TYR292      0.0417
    206  CE2        6.3740  -30.8400   13.5510 C.ar  292  TYR292      0.0417
    207  CZ         6.5070  -29.5460   13.9910 C.ar  292  TYR292      0.1957
    208  OH         6.0430  -28.5020   13.2380 O.3   292  TYR292     -0.2866
@<TRIPOS>BOND
     1   176   174   ar
     2   176   175   ar
     3     1     2    1
     4     5     2    1
     5   174   172   ar
     6   175   173   ar
     7     2     3    1
     8   173   172   ar
     9   172   171    1
    10   178   177    1
    11   178   179    1
    12     3     4    2
    13   170   169    2
    14   171   168    1
    15   184   183    2
    16   177   169   am
    17   181   179    1
    18   181   182    2
    19   169   168    1
    20   179   180    2
    21    42    41    1
    22   183   182    1
    23   168   167    1
    24    41    40    1
    25   167   161   am
    26     6     7    1
    27   165   164    2
    28   185   186    1
    29    40    39    1
    30    11    10    1
    31    31    33   ar
    32    31    29   ar
    33    33    34   ar
    34    39    36    1
    35   191   193   ar
    36   191   190   ar
    37   188   187    2
    38     7    10    1
    39     7     8    1
    40   193   195   ar
    41   161   162    2
    42   161   160    1
    43   164   166   am
    44   164   163    1
    45    28    29    1
    46    28    25    1
    47   186   187    1
    48   186   189    1
    49    29    30   ar
    50     9     8    2
    51   189   190    1
    52   159   160    1
    53    24    25    1
    54    34    32   ar
    55    35    36    1
    56    35    26   am
    57   190   192   ar
    58     8    12   am
    59   160   163    1
    60    36    37    1
    61   158   157   ar
    62   158   156   ar
    63    25    26    1
    64   195   196    1
    65   195   194   ar
    66   157   155   ar
    67    30    32   ar
    68    26    27    2
    69   156   154   ar
    70    12    13    1
    71   192   194   ar
    72    37    38    2
    73   155   154   ar
    74   154   153    1
    75   151   150    1
    76   151   152    2
    77   144   143    2
    78    13    14    1
    79    13    16    1
    80   148   146   am
    81   150   153    1
    82   150   149    1
    83    14    15    2
    84   146   145    1
    85   146   147    2
    86   145   142    1
    87    21    19   ar
    88    21    22   ar
    89    19    17   ar
    90   143   142    1
    91   131   132   ar
    92   131   129   ar
    93    23    22    1
    94    22    20   ar
    95    16    17    1
    96    17    18   ar
    97   141   142    1
    98    49    51   ar
    99    49    48   ar
   100    20    18   ar
   101   132   130   ar
   102    51    52   ar
   103    43    44    1
   104   129   127   ar
   105   208   207    1
   106   206   207   ar
   107   206   204   ar
   108    48    47    1
   109    48    50   ar
   110    46    45    2
   111    47    44    1
   112    44    45    1
   113    52    50   ar
   114   130   128   ar
   115   207   205   ar
   116   127   128   ar
   117   127   126    1
   118   204   202   ar
   119    45    53   am
   120   126   123    1
   121   205   203   ar
   122   136   135    2
   123   202   203   ar
   124   202   201    1
   125    53    54    1
   126   123   124    1
   127   123   122    1
   128    56    55    2
   129    67    65    1
   130    55    54    1
   131    55    61   am
   132    54    57    1
   133    65    62    1
   134    65    66    1
   135    62    61    1
   136    62    63    1
   137   201   198    1
   138   114   113    2
   139   135   134    1
   140   133   124   am
   141   133   134    1
   142   124   125    2
   143   122   113   am
   144   197   198    1
   145   113   112    1
   146   117   118    1
   147   117   116    1
   148    59    58   ar
   149    64    63    2
   150   115   116    1
   151   115   112    1
   152   134   137    1
   153   121   119    1
   154    63    68   am
   155   198   199    1
   156    57    58    1
   157    58    60   ar
   158   118   119    2
   159   119   120    1
   160   112   111    1
   161   137   138    1
   162   199   200    2
   163    68    69    1
   164   111   105   am
   165   138   139    1
   166    70    69    1
   167    70    71    2
   168    98    97    2
   169    69    72    1
   170    75    74    2
   171   105   106    2
   172   105   104    1
   173   139   140    1
   174    74    76   am
   175    74    73    1
   176    91    90    1
   177    91    92    1
   178    97   103   am
   179    97    96    1
   180    72    73    1
   181   104   103    1
   182   104   107    1
   183    99   100    1
   184    99    96    1
   185   101   100    1
   186    94    92   am
   187    95    96    1
   188    95    88   am
   189    90    87    1
   190   100   102    1
   191    92    93    2
   192    87    88    1
   193    87    86    1
   194   107   108    1
   195    88    89    2
   196   108   109    1
   197    82    83    1
   198    82    81    1
   199   110   109    1
   200    85    83   am
   201    83    84    2
   202    81    78    1
   203    78    79    1
   204    78    77    1
   205    79    80    2
