@<TRIPOS>MOLECULE
tmp/5nghA00.pdb
 131 122 0 0 0
SMALL
GASTEIGER

@<TRIPOS>ATOM
      1  N         28.5220  -41.9290    5.9230 N.3    23  LEU23      -0.1245
      2  CA        29.6090  -41.2970    5.1710 C.3    23  LEU23       0.1561
      3  C         30.2040  -42.3810    4.3000 C.2    23  LEU23       0.2260
      4  O         30.5760  -43.4360    4.8250 O.2    23  LEU23      -0.2867
      5  CB        30.6890  -40.7310    6.1220 C.3    23  LEU23       0.0270
      6  CG        31.7620  -39.8130    5.5110 C.3    23  LEU23       0.0019
      7  CD1       31.3730  -38.3480    5.6530 C.3    23  LEU23       0.0001
      8  CD2       33.1020  -40.0120    6.2050 C.3    23  LEU23       0.0001
      9  N         38.8570  -36.9550    5.8510 N.3    37  MET37      -0.1245
     10  CA        37.4920  -36.7260    5.3910 C.3    37  MET37       0.1570
     11  C         36.3740  -37.2420    6.3380 C.2    37  MET37       0.2261
     12  O         35.1810  -37.0610    6.0410 O.2    37  MET37      -0.2867
     13  CB        37.3340  -37.2810    3.9730 C.3    37  MET37       0.0387
     14  CG        37.8020  -36.3070    2.8820 C.3    37  MET37       0.0595
     15  SD        37.0250  -34.6500    2.8850 S.3    37  MET37      -0.1393
     16  CE        38.1420  -33.7990    1.8700 C.3    37  MET37       0.0692
     17  N         34.5620  -36.1860    8.9950 N.3    39  VAL39      -0.1245
     18  CA        34.1410  -35.0600    9.8460 C.3    39  VAL39       0.1561
     19  C         32.6640  -35.2310   10.2690 C.2    39  VAL39       0.2260
     20  O         31.8710  -35.8780    9.5660 O.2    39  VAL39      -0.2867
     21  CB        34.4530  -33.6270    9.3070 C.3    39  VAL39       0.0252
     22  CG1       35.8320  -33.5470    8.6630 C.3    39  VAL39       0.0019
     23  CG2       33.3860  -33.1370    8.3430 C.3    39  VAL39       0.0019
     24  N         29.2530  -33.1660   11.2140 N.3    41  VAL41      -0.1245
     25  CA        28.4920  -31.9190   11.1960 C.3    41  VAL41       0.1561
     26  C         27.8440  -31.6510   12.5660 C.2    41  VAL41       0.2260
     27  O         27.3460  -32.5830   13.2070 O.2    41  VAL41      -0.2867
     28  CB        27.4380  -31.9090   10.0470 C.3    41  VAL41       0.0252
     29  CG1       26.8240  -30.5160    9.8560 C.3    41  VAL41       0.0019
     30  CG2       28.0220  -32.4660    8.7210 C.3    41  VAL41       0.0019
     31  N         30.1880  -24.1680    8.4270 N.3    54  PHE54      -0.1241
     32  CA        30.0380  -25.4970    8.9640 C.3    54  PHE54       0.1605
     33  C         30.8310  -25.6870   10.2340 C.2    54  PHE54       0.2264
     34  O         32.0430  -25.8650   10.1670 O.2    54  PHE54      -0.2867
     35  CB        30.4730  -26.5340    7.9040 C.3    54  PHE54       0.0534
     36  CG        29.5900  -26.7020    6.6790 C.ar   54  PHE54      -0.0203
     37  CD1       29.6770  -25.8160    5.6080 C.ar   54  PHE54      -0.0042
     38  CD2       28.7440  -27.8010    6.5540 C.ar   54  PHE54      -0.0042
     39  CE1       28.8950  -25.9970    4.4580 C.ar   54  PHE54      -0.0003
     40  CE2       27.9580  -27.9820    5.4020 C.ar   54  PHE54      -0.0003
     41  CZ        28.0370  -27.0750    4.3640 C.ar   54  PHE54      -0.0000
     42  N         31.9240  -28.1020   12.8680 N.3    56  MET56      -0.1245
     43  CA        32.0550  -29.5590   12.8580 C.3    56  MET56       0.1570
     44  C         33.2570  -30.0840   13.6190 C.2    56  MET56       0.2261
     45  O         34.1870  -29.3310   13.9000 O.2    56  MET56      -0.2867
     46  CB        32.0460  -30.1140   11.4220 C.3    56  MET56       0.0387
     47  CG        32.3940  -29.1000   10.3300 C.3    56  MET56       0.0595
     48  SD        32.5200  -29.8700    8.7180 S.3    56  MET56      -0.1393
     49  CE        30.8010  -30.2200    8.3970 C.3    56  MET56       0.0692
     50  N         34.5200  -24.2180    8.5290 N.3    69  LEU69      -0.1245
     51  CA        34.8070  -24.0890    7.1080 C.3    69  LEU69       0.1561
     52  C         33.7530  -23.2870    6.4150 C.2    69  LEU69       0.2260
     53  O         32.5650  -23.6160    6.4750 O.2    69  LEU69      -0.2867
     54  CB        34.8560  -25.4740    6.4580 C.3    69  LEU69       0.0270
     55  CG        35.8930  -26.4430    6.9780 C.3    69  LEU69       0.0019
     56  CD1       35.4600  -27.8730    6.7660 C.3    69  LEU69       0.0001
     57  CD2       37.2340  -26.1870    6.3500 C.3    69  LEU69       0.0001
     58  N         34.9140  -25.1880   -1.1130 N.3    82  VAL82      -0.1245
     59  CA        35.7400  -24.9970    0.0910 C.3    82  VAL82       0.1561
     60  C         37.0810  -25.7380   -0.0630 C.2    82  VAL82       0.2260
     61  O         37.1180  -26.7960   -0.6910 O.2    82  VAL82      -0.2867
     62  CB        34.9670  -25.4050    1.3950 C.3    82  VAL82       0.0252
     63  CG1       34.6400  -26.9030    1.4410 C.3    82  VAL82       0.0019
     64  CG2       35.6930  -24.9570    2.6690 C.3    82  VAL82       0.0019
     65  N         40.0540  -27.7350    1.8170 N.3    84  TYR84      -0.1241
     66  CA        40.3860  -28.5430    2.9970 C.3    84  TYR84       0.1605
     67  C         41.0560  -29.7820    2.4030 C.2    84  TYR84       0.2264
     68  O         40.4570  -30.4050    1.5280 O.2    84  TYR84      -0.2867
     69  CB        39.0900  -28.9100    3.7910 C.3    84  TYR84       0.0534
     70  CG        39.2570  -30.0210    4.8110 C.ar   84  TYR84      -0.0201
     71  CD1       39.4440  -29.7330    6.1610 C.ar   84  TYR84      -0.0009
     72  CD2       39.2270  -31.3590    4.4290 C.ar   84  TYR84      -0.0009
     73  CE1       39.6440  -30.7510    7.0940 C.ar   84  TYR84       0.0417
     74  CE2       39.4330  -32.3840    5.3520 C.ar   84  TYR84       0.0417
     75  CZ        39.6290  -32.0740    6.6840 C.ar   84  TYR84       0.1957
     76  OH        39.8920  -33.0680    7.5800 O.3    84  TYR84      -0.2866
     77  N         31.3400  -29.3900   -3.6180 N.3    90  PHE90      -0.1241
     78  CA        30.2310  -30.1800   -3.1380 C.3    90  PHE90       0.1605
     79  C         28.8920  -29.5560   -3.5040 C.2    90  PHE90       0.2264
     80  O         28.8540  -28.3680   -3.8160 O.2    90  PHE90      -0.2867
     81  CB        30.3830  -30.4560   -1.6260 C.3    90  PHE90       0.0534
     82  CG        30.1600  -29.3190   -0.6620 C.ar   90  PHE90      -0.0203
     83  CD1       31.2220  -28.7690    0.0470 C.ar   90  PHE90      -0.0042
     84  CD2       28.8710  -28.8430   -0.4000 C.ar   90  PHE90      -0.0042
     85  CE1       31.0000  -27.7440    0.9740 C.ar   90  PHE90      -0.0003
     86  CE2       28.6630  -27.8020    0.4940 C.ar   90  PHE90      -0.0003
     87  CZ        29.7210  -27.2660    1.1910 C.ar   90  PHE90      -0.0000
     88  N         24.6790  -35.0050    0.6280 N.3   103  PHE103     -0.1241
     89  CA        25.7370  -34.1410    0.1000 C.3   103  PHE103      0.1605
     90  C         26.6720  -34.9580   -0.7180 C.2   103  PHE103      0.2264
     91  O         27.0730  -36.0350   -0.2840 O.2   103  PHE103     -0.2867
     92  CB        26.5780  -33.5510    1.2370 C.3   103  PHE103      0.0534
     93  CG        25.9130  -32.4640    2.0330 C.ar  103  PHE103     -0.0203
     94  CD1       25.4360  -32.7120    3.3120 C.ar  103  PHE103     -0.0042
     95  CD2       25.7840  -31.1850    1.5120 C.ar  103  PHE103     -0.0042
     96  CE1       24.8170  -31.6970    4.0460 C.ar  103  PHE103     -0.0003
     97  CE2       25.1600  -30.1770    2.2380 C.ar  103  PHE103     -0.0003
     98  CZ        24.6790  -30.4390    3.5000 C.ar  103  PHE103     -0.0000
     99  N         30.4830  -34.6020   -2.7490 N.3   105  LEU105     -0.1245
    100  CA        31.7140  -33.8300   -2.7320 C.3   105  LEU105      0.1561
    101  C         32.8160  -34.4680   -3.5350 C.2   105  LEU105      0.2260
    102  O         33.1610  -35.6140   -3.2860 O.2   105  LEU105     -0.2867
    103  CB        32.1860  -33.6990   -1.2710 C.3   105  LEU105      0.0270
    104  CG        33.5470  -33.0190   -0.9960 C.3   105  LEU105      0.0019
    105  CD1       33.3730  -31.7880   -0.1370 C.3   105  LEU105      0.0001
    106  CD2       34.5630  -34.0160   -0.3820 C.3   105  LEU105      0.0001
    107  N         32.7660  -38.1570   -2.4770 N.3   116  MET116     -0.1230
    108  CA        32.2320  -38.5650   -1.2000 C.3   116  MET116      0.1702
    109  C         30.8490  -38.0970   -1.0090 C.2   116  MET116      0.2592
    110  O         30.4750  -37.0620   -1.5560 O.2   116  MET116     -0.2718
    111  CB        33.1050  -38.0520   -0.0890 C.3   116  MET116      0.0401
    112  CG        33.9980  -39.0970    0.3700 C.3   116  MET116      0.0596
    113  SD        35.1560  -38.5190    1.5630 S.3   116  MET116     -0.1393
    114  CE        34.0120  -37.8180    2.8310 C.3   116  MET116      0.0692
    115  N         30.0590  -38.8770   -0.2670 N.am  117  MET117     -0.1965
    116  CA        28.6730  -38.5320   -0.0200 C.3   117  MET117      0.1736
    117  C         28.3290  -38.7250    1.4320 C.2   117  MET117      0.2616
    118  O         28.7010  -39.7400    2.0450 O.2   117  MET117     -0.2715
    119  CB        27.7140  -39.2980   -0.9350 C.3   117  MET117      0.0427
    120  CG        28.0420  -39.1630   -2.4090 C.3   117  MET117      0.0599
    121  SD        26.7500  -39.8100   -3.4370 S.3   117  MET117     -0.1393
    122  CE        25.5520  -38.4060   -3.3610 C.3   117  MET117      0.0692
    123  N         27.6330  -37.7420    1.9990 N.am  118  GLU118     -0.1977
    124  CA        27.2670  -37.8280    3.3820 C.3   118  GLU118      0.1602
    125  C         25.7800  -37.5960    3.6120 C.2   118  GLU118      0.2287
    126  O         25.1720  -36.7100    2.9970 O.2   118  GLU118     -0.2864
    127  CB        28.1190  -36.8520    4.2020 C.3   118  GLU118      0.0415
    128  CG        27.8950  -36.9240    5.7130 C.3   118  GLU118      0.1163
    129  CD        27.8320  -35.5940    6.4400 C.2   118  GLU118      0.3649
    130  OE1       27.6300  -34.5440    5.7900 O.co2 118  GLU118     -0.2457
    131  OE2       27.9170  -35.6160    7.6850 O.co2 118  GLU118     -0.2457
@<TRIPOS>BOND
     1    80    79    2
     2    77    78    1
     3   101   102    2
     4   101   100    1
     5    79    78    1
     6   121   122    1
     7   121   120    1
     8    78    81    1
     9    99   100    1
    10   100   103    1
    11   107   108    1
    12   120   119    1
    13    81    82    1
    14   110   109    2
    15   103   104    1
    16   108   109    1
    17   108   111    1
    18    58    59    1
    19   109   115   am
    20   104   106    1
    21   104   105    1
    22   119   116    1
    23    90    91    2
    24    90    89    1
    25    61    60    2
    26    82    84   ar
    27    82    83   ar
    28    84    86   ar
    29   115   116    1
    30   111   112    1
    31    60    59    1
    32   116   117    1
    33    83    85   ar
    34    59    62    1
    35    89    88    1
    36    89    92    1
    37   112   113    1
    38    86    87   ar
    39    85    87   ar
    40    92    93    1
    41    62    63    1
    42    62    64    1
    43   117   123   am
    44   117   118    2
    45    95    93   ar
    46    95    97   ar
    47    68    67    2
    48   113   114    1
    49    65    66    1
    50    16    15    1
    51   123   124    1
    52    93    94   ar
    53    97    98   ar
    54    67    66    1
    55    14    15    1
    56    14    13    1
    57    66    69    1
    58   126   125    2
    59    94    96   ar
    60   124   125    1
    61   124   127    1
    62    98    96   ar
    63    69    70    1
    64    13    10    1
    65   127   128    1
    66     3     4    2
    67     3     2    1
    68    41    39   ar
    69    41    40   ar
    70    72    70   ar
    71    72    74   ar
    72    39    37   ar
    73    70    71   ar
    74     2     1    1
    75     2     5    1
    76    74    75   ar
    77    10     9    1
    78    10    11    1
    79    40    38   ar
    80     6     7    1
    81     6     5    1
    82     6     8    1
    83    37    36   ar
    84   128   129    1
    85   130   129   ar
    86    12    11    2
    87    71    73   ar
    88    57    55    1
    89    52    53    2
    90    52    51    1
    91   129   131   ar
    92    54    55    1
    93    54    51    1
    94    38    36   ar
    95    36    35    1
    96    75    73   ar
    97    75    76    1
    98    56    55    1
    99    51    50    1
   100    35    32    1
   101    23    21    1
   102    49    48    1
   103    31    32    1
   104    22    21    1
   105    48    47    1
   106    30    28    1
   107    32    33    1
   108    17    18    1
   109    21    18    1
   110    20    19    2
   111    18    19    1
   112    29    28    1
   113    28    25    1
   114    34    33    2
   115    47    46    1
   116    25    24    1
   117    25    26    1
   118    46    43    1
   119    26    27    2
   120    43    42    1
   121    43    44    1
   122    44    45    2
