@<TRIPOS>MOLECULE
tmp/5nglB00.pdb
 133 130 0 0 0
SMALL
GASTEIGER

@<TRIPOS>ATOM
      1  N        -31.6580  -27.7710  129.5020 N.3    90  ASP90      -0.1225
      2  CA       -31.0110  -26.4470  129.3340 C.3    90  ASP90       0.1805
      3  C        -29.8800  -26.5140  128.2910 C.2    90  ASP90       0.2597
      4  O        -29.2870  -25.4940  128.0190 O.2    90  ASP90      -0.2718
      5  CB       -30.5030  -25.8330  130.6770 C.3    90  ASP90       0.1424
      6  CG       -29.5070  -26.7230  131.4330 C.2    90  ASP90       0.3668
      7  OD1      -29.5550  -27.9920  131.3360 O.co2  90  ASP90      -0.2456
      8  OD2      -28.6680  -26.1470  132.1600 O.co2  90  ASP90      -0.2456
      9  N        -29.5420  -27.7130  127.7630 N.am   91  PHE91      -0.1976
     10  CA       -28.6320  -27.8090  126.6080 C.3    91  PHE91       0.1639
     11  C        -29.3290  -28.3030  125.3470 C.2    91  PHE91       0.2290
     12  O        -28.9200  -29.2470  124.6780 O.2    91  PHE91      -0.2864
     13  CB       -27.3630  -28.5560  126.9960 C.3    91  PHE91       0.0560
     14  CG       -26.5140  -27.7750  127.9270 C.ar   91  PHE91      -0.0200
     15  CD1      -26.7530  -27.8130  129.3200 C.ar   91  PHE91      -0.0042
     16  CD2      -25.5200  -26.9540  127.4310 C.ar   91  PHE91      -0.0042
     17  CE1      -25.9810  -27.0650  130.1620 C.ar   91  PHE91      -0.0003
     18  CE2      -24.7480  -26.1670  128.2850 C.ar   91  PHE91      -0.0003
     19  CZ       -24.9850  -26.2370  129.6630 C.ar   91  PHE91      -0.0000
     20  N        -36.7990  -32.8110  131.6380 N.3   138  TRP138     -0.1241
     21  CA       -36.5650  -31.6340  132.4440 C.3   138  TRP138      0.1605
     22  C        -37.9130  -30.9570  132.7750 C.2   138  TRP138      0.2264
     23  O        -38.0630  -30.4060  133.8240 O.2   138  TRP138     -0.2867
     24  CB       -35.5850  -30.6550  131.7680 C.3   138  TRP138      0.0550
     25  CG       -34.1270  -30.8820  132.0710 C.ar  138  TRP138      0.0003
     26  CD1      -33.2670  -29.9480  132.5670 C.ar  138  TRP138      0.0946
     27  CD2      -33.3380  -32.1070  131.9130 C.ar  138  TRP138      0.0152
     28  NE1      -32.0150  -30.4910  132.7310 N.ar  138  TRP138     -0.2442
     29  CE2      -32.0320  -31.8170  132.3710 C.ar  138  TRP138      0.0810
     30  CE3      -33.6170  -33.4160  131.4630 C.ar  138  TRP138      0.0012
     31  CZ2      -31.0070  -32.7690  132.3780 C.ar  138  TRP138      0.0191
     32  CZ3      -32.5870  -34.3820  131.4830 C.ar  138  TRP138      0.0001
     33  CH2      -31.2960  -34.0440  131.9510 C.ar  138  TRP138      0.0015
     34  N        -35.7790  -35.0710  135.8440 N.3   196  ASN196     -0.1225
     35  CA       -34.4650  -34.5320  136.2250 C.3   196  ASN196      0.1785
     36  C        -34.5570  -33.5590  137.4130 C.2   196  ASN196      0.2597
     37  O        -35.3110  -32.5880  137.4020 O.2   196  ASN196     -0.2718
     38  CB       -33.8000  -33.8280  135.0740 C.3   196  ASN196      0.1169
     39  CG       -32.4900  -33.2080  135.4780 C.2   196  ASN196      0.2627
     40  OD1      -31.5560  -33.9140  135.7870 O.2   196  ASN196     -0.2716
     41  ND2      -32.4360  -31.8820  135.5440 N.am  196  ASN196     -0.0877
     42  N        -33.7780  -33.8260  138.4320 N.am  197  GLU197     -0.1979
     43  CA       -33.6080  -32.9130  139.5730 C.3   197  GLU197      0.1602
     44  C        -34.9730  -32.4000  140.1380 C.2   197  GLU197      0.2287
     45  O        -35.2490  -31.1860  140.1500 O.2   197  GLU197     -0.2864
     46  CB       -32.6690  -31.7650  139.1920 C.3   197  GLU197      0.0415
     47  CG       -31.2630  -32.2540  138.9110 C.3   197  GLU197      0.1163
     48  CD       -30.2050  -31.2340  139.1400 C.2   197  GLU197      0.3649
     49  OE1      -30.4770  -30.0240  138.9770 O.co2 197  GLU197     -0.2457
     50  OE2      -29.0480  -31.6290  139.4710 O.co2 197  GLU197     -0.2457
     51  N        -35.5450  -29.1470  142.0720 N.3   200  ASN200     -0.1240
     52  CA       -35.1320  -27.8790  141.5220 C.3   200  ASN200      0.1653
     53  C        -36.3200  -27.1770  140.8370 C.2   200  ASN200      0.2266
     54  O        -36.9540  -27.7530  139.9720 O.2   200  ASN200     -0.2867
     55  CB       -33.9650  -28.0510  140.5370 C.3   200  ASN200      0.1155
     56  CG       -33.4000  -26.7260  140.0820 C.2   200  ASN200      0.2627
     57  OD1      -33.7130  -25.6960  140.6520 O.2   200  ASN200     -0.2716
     58  ND2      -32.5840  -26.7380  139.0400 N.am  200  ASN200     -0.0877
     59  N        -33.6200  -23.4360  136.8120 N.3   203  ASN203     -0.1240
     60  CA       -33.1600  -23.8820  135.4950 C.3   203  ASN203      0.1653
     61  C        -33.9680  -23.1670  134.3910 C.2   203  ASN203      0.2266
     62  O        -34.7350  -22.2410  134.6830 O.2   203  ASN203     -0.2867
     63  CB       -33.1990  -25.4620  135.4330 C.3   203  ASN203      0.1155
     64  CG       -32.1280  -26.0420  134.5260 C.2   203  ASN203      0.2627
     65  OD1      -31.6460  -25.3550  133.6030 O.2   203  ASN203     -0.2716
     66  ND2      -31.7410  -27.3250  134.7740 N.am  203  ASN203     -0.0877
     67  N        -24.1810  -32.3010  143.2070 N.3   275  TYR275     -0.1241
     68  CA       -24.1310  -30.8280  143.2920 C.3   275  TYR275      0.1605
     69  C        -24.2670  -30.2910  144.6880 C.2   275  TYR275      0.2264
     70  O        -24.0520  -29.1130  144.8910 O.2   275  TYR275     -0.2867
     71  CB       -25.1460  -30.1680  142.3600 C.3   275  TYR275      0.0534
     72  CG       -24.9090  -30.5210  140.9170 C.ar  275  TYR275     -0.0201
     73  CD1      -23.7260  -30.1830  140.2840 C.ar  275  TYR275     -0.0009
     74  CD2      -25.8330  -31.2720  140.2080 C.ar  275  TYR275     -0.0009
     75  CE1      -23.4890  -30.5250  138.9520 C.ar  275  TYR275      0.0417
     76  CE2      -25.6160  -31.6470  138.8950 C.ar  275  TYR275      0.0417
     77  CZ       -24.4560  -31.2950  138.2530 C.ar  275  TYR275      0.1957
     78  OH       -24.2880  -31.6530  136.9360 O.3   275  TYR275     -0.2866
     79  N        -25.3850  -37.6060  136.9020 N.3   298  GLU298     -0.1245
     80  CA       -24.9840  -36.2460  136.4510 C.3   298  GLU298      0.1567
     81  C        -24.0220  -35.5770  137.3720 C.2   298  GLU298      0.2260
     82  O        -24.2130  -35.5590  138.5920 O.2   298  GLU298     -0.2867
     83  CB       -26.2260  -35.3400  136.2250 C.3   298  GLU298      0.0388
     84  CG       -25.9850  -34.2820  135.1540 C.3   298  GLU298      0.1160
     85  CD       -26.9720  -33.1340  135.2330 C.2   298  GLU298      0.3649
     86  OE1      -28.1660  -33.3190  134.9210 O.co2 298  GLU298     -0.2457
     87  OE2      -26.5380  -32.0440  135.6420 O.co2 298  GLU298     -0.2457
     88  N        -21.1410  -31.8580  136.7290 N.3   300  SER300     -0.1217
     89  CA       -20.7360  -30.8220  135.7840 C.3   300  SER300      0.1889
     90  C        -19.4200  -30.1460  136.1850 C.2   300  SER300      0.2288
     91  O        -19.0960  -30.0430  137.3560 O.2   300  SER300     -0.2866
     92  CB       -21.7690  -29.7080  135.7110 C.3   300  SER300      0.2089
     93  OG       -22.9610  -30.2140  135.2020 O.3   300  SER300     -0.2183
     94  N        -17.5110  -22.2080  137.9830 N.3   304  TRP304     -0.1241
     95  CA       -17.6080  -22.3630  139.4680 C.3   304  TRP304      0.1605
     96  C        -16.6220  -23.3640  140.1410 C.2   304  TRP304      0.2264
     97  O        -16.5260  -23.4040  141.3920 O.2   304  TRP304     -0.2867
     98  CB       -19.0780  -22.6600  139.9080 C.3   304  TRP304      0.0550
     99  CG       -19.4650  -24.0750  139.5960 C.ar  304  TRP304      0.0003
    100  CD1      -19.2470  -25.1730  140.3650 C.ar  304  TRP304      0.0946
    101  CD2      -19.9900  -24.5430  138.3630 C.ar  304  TRP304      0.0152
    102  NE1      -19.6630  -26.3090  139.7180 N.ar  304  TRP304     -0.2442
    103  CE2      -20.0990  -25.9650  138.4700 C.ar  304  TRP304      0.0810
    104  CE3      -20.4030  -23.9180  137.1820 C.ar  304  TRP304      0.0012
    105  CZ2      -20.6110  -26.7500  137.4550 C.ar  304  TRP304      0.0191
    106  CZ3      -20.9130  -24.7320  136.1440 C.ar  304  TRP304      0.0001
    107  CH2      -20.9860  -26.1350  136.2960 C.ar  304  TRP304      0.0015
    108  N        -22.2300  -34.8340  132.5400 N.3   336  TRP336     -0.1241
    109  CA       -23.2170  -34.0490  131.8200 C.3   336  TRP336      0.1605
    110  C        -22.7190  -33.8430  130.3660 C.2   336  TRP336      0.2264
    111  O        -22.1250  -34.7760  129.8280 O.2   336  TRP336     -0.2867
    112  CB       -23.4600  -32.7650  132.5920 C.3   336  TRP336      0.0550
    113  CG       -24.5990  -31.8750  132.2010 C.ar  336  TRP336      0.0003
    114  CD1      -24.6090  -30.5110  132.3340 C.ar  336  TRP336      0.0946
    115  CD2      -25.8730  -32.2390  131.6540 C.ar  336  TRP336      0.0152
    116  NE1      -25.7880  -30.0100  131.9160 N.ar  336  TRP336     -0.2442
    117  CE2      -26.5880  -31.0340  131.4660 C.ar  336  TRP336      0.0810
    118  CE3      -26.4740  -33.4510  131.2670 C.ar  336  TRP336      0.0012
    119  CZ2      -27.8760  -31.0000  130.9040 C.ar  336  TRP336      0.0191
    120  CZ3      -27.7650  -33.4250  130.7130 C.ar  336  TRP336      0.0001
    121  CH2      -28.4420  -32.1830  130.5290 C.ar  336  TRP336      0.0015
    122  N        -27.7230  -23.2730  132.5790 N.3   352  CYS352     -0.1235
    123  CA       -26.3140  -23.1430  132.9260 C.3   352  CYS352      0.1677
    124  C        -25.6480  -22.4520  131.7820 C.2   352  CYS352      0.2270
    125  O        -25.6870  -22.9240  130.6500 O.2   352  CYS352     -0.2867
    126  CB       -25.6510  -24.4990  133.1700 C.3   352  CYS352      0.0956
    127  SG       -23.8990  -24.3140  133.6230 S.3   352  CYS352     -0.0801
    128  N        -21.1110  -23.5580  132.1960 N.3   355  CYS355     -0.1235
    129  CA       -20.6420  -24.9220  132.0600 C.3   355  CYS355      0.1677
    130  C        -19.5910  -25.1180  130.9760 C.2   355  CYS355      0.2270
    131  O        -19.5940  -24.4490  129.9500 O.2   355  CYS355     -0.2867
    132  CB       -21.8350  -25.8570  131.7520 C.3   355  CYS355      0.0956
    133  SG       -22.9840  -26.1700  133.1350 S.3   355  CYS355     -0.0801
@<TRIPOS>BOND
     1    12    11    2
     2    11    10    1
     3    10    13    1
     4    10     9    1
     5    13    14    1
     6    16    14   ar
     7    16    18   ar
     8     9     3   am
     9    14    15   ar
    10     4     3    2
    11    18    19   ar
    12     3     2    1
    13    15    17   ar
    14     2     1    1
    15     2     5    1
    16    19    17   ar
    17   111   110    2
    18   131   130    2
    19   110   109    1
    20   121   120   ar
    21   121   119   ar
    22   125   124    2
    23     5     6    1
    24   120   118   ar
    25   119   117   ar
    26   130   129    1
    27   118   115   ar
    28     7     6   ar
    29     6     8   ar
    30    30    32   ar
    31    30    27   ar
    32   117   115   ar
    33   117   116   ar
    34    32    33   ar
    35    20    21    1
    36   115   113   ar
    37   132   129    1
    38   132   133    1
    39    24    25    1
    40    24    21    1
    41   124   123    1
    42   109   108    1
    43   109   112    1
    44    27    25   ar
    45    27    29   ar
    46   116   114   ar
    47    33    31   ar
    48   129   128    1
    49    25    26   ar
    50   113   114   ar
    51   113   112    1
    52    29    31   ar
    53    29    28   ar
    54    21    22    1
    55    26    28   ar
    56   122   123    1
    57    22    23    2
    58   123   126    1
    59   133   127    1
    60   126   127    1
    61    65    64    2
    62    61    62    2
    63    61    60    1
    64    64    66   am
    65    64    63    1
    66    86    85   ar
    67    38    39    1
    68    38    35    1
    69    84    85    1
    70    84    83    1
    71    93    92    1
    72    85    87   ar
    73    63    60    1
    74    39    41   am
    75    39    40    2
    76    60    59    1
    77    92    89    1
    78    89    90    1
    79    89    88    1
    80    34    35    1
    81   106   107   ar
    82   106   104   ar
    83    90    91    2
    84    35    36    1
    85    83    80    1
    86   107   105   ar
    87    80    79    1
    88    80    81    1
    89    78    77    1
    90   104   101   ar
    91    81    82    2
    92    37    36    2
    93    36    42   am
    94   105   103   ar
    95    94    95    1
    96    77    76   ar
    97    77    75   ar
    98   101   103   ar
    99   101    99   ar
   100    42    43    1
   101   103   102   ar
   102    76    74   ar
   103    47    48    1
   104    47    46    1
   105    75    73   ar
   106    49    48   ar
   107    58    56   am
   108    48    50   ar
   109    46    43    1
   110    95    98    1
   111    95    96    1
   112    43    44    1
   113    99    98    1
   114    99   100   ar
   115   102   100   ar
   116    54    53    2
   117    56    55    1
   118    56    57    2
   119    44    45    2
   120    96    97    2
   121    74    72   ar
   122    73    72   ar
   123    55    52    1
   124    53    52    1
   125    72    71    1
   126    52    51    1
   127    71    68    1
   128    67    68    1
   129    68    69    1
   130    69    70    2
