@<TRIPOS>MOLECULE
tmp/5ngrA00.pdb
 156 155 0 0 0
SMALL
GASTEIGER

@<TRIPOS>ATOM
      1  N          3.2390   -8.4720    9.8650 N.3     7  LEU7       -0.1245
      2  CA         2.4420   -9.6550   10.0480 C.3     7  LEU7        0.1561
      3  C          2.4020  -10.3430    8.6950 C.2     7  LEU7        0.2260
      4  O          2.0830   -9.6990    7.6920 O.2     7  LEU7       -0.2867
      5  CB         1.0340   -9.2760   10.5340 C.3     7  LEU7        0.0270
      6  CG         0.1280  -10.4360   10.9460 C.3     7  LEU7        0.0019
      7  CD1        0.8440  -11.4740   11.8030 C.3     7  LEU7        0.0001
      8  CD2       -1.0940   -9.9320   11.6810 C.3     7  LEU7        0.0001
      9  N          1.1220  -13.8350    6.5770 N.3     9  LEU9       -0.1245
     10  CA         0.2730  -15.0180    6.4990 C.3     9  LEU9        0.1561
     11  C          0.6600  -15.8820    5.3010 C.2     9  LEU9        0.2260
     12  O          0.6440  -15.4070    4.1390 O.2     9  LEU9       -0.2867
     13  CB        -1.1680  -14.6210    6.3470 C.3     9  LEU9        0.0270
     14  CG        -1.9880  -14.2090    7.5380 C.3     9  LEU9        0.0019
     15  CD1       -2.0190  -15.2590    8.6730 C.3     9  LEU9        0.0001
     16  CD2       -1.5580  -12.8500    8.0210 C.3     9  LEU9        0.0001
     17  N          4.1270  -11.9630   24.5000 N.3    25  PHE25      -0.1241
     18  CA         2.9460  -11.2440   24.0150 C.3    25  PHE25       0.1605
     19  C          2.1540  -12.1070   23.0360 C.2    25  PHE25       0.2264
     20  O          2.6940  -12.5450   22.0320 O.2    25  PHE25      -0.2867
     21  CB         3.4010   -9.9580   23.3320 C.3    25  PHE25       0.0534
     22  CG         2.2870   -9.0170   22.9760 C.ar   25  PHE25      -0.0203
     23  CD1        1.5380   -8.3940   23.9700 C.ar   25  PHE25      -0.0042
     24  CD2        2.0150   -8.7240   21.6440 C.ar   25  PHE25      -0.0042
     25  CE1        0.5250   -7.5040   23.6410 C.ar   25  PHE25      -0.0003
     26  CE2        1.0140   -7.8110   21.3010 C.ar   25  PHE25      -0.0003
     27  CZ         0.2790   -7.1920   22.3050 C.ar   25  PHE25      -0.0000
     28  N         -2.7790  -18.9010   18.3230 N.3    30  TRP30      -0.1227
     29  CA        -2.2680  -19.1140   16.9940 C.3    30  TRP30       0.1737
     30  C         -2.1870  -17.7570   16.2770 C.2    30  TRP30       0.2595
     31  O         -3.1780  -17.0400   16.1950 O.2    30  TRP30      -0.2718
     32  CB        -3.1710  -20.0720   16.2320 C.3    30  TRP30       0.0564
     33  CG        -3.2120  -21.4460   16.8190 C.ar   30  TRP30       0.0003
     34  CD1       -4.1790  -21.9560   17.6510 C.ar   30  TRP30       0.0946
     35  CD2       -2.2770  -22.4880   16.6110 C.ar   30  TRP30       0.0152
     36  NE1       -3.8900  -23.2650   17.9790 N.ar   30  TRP30      -0.2442
     37  CE2       -2.7280  -23.6240   17.3670 C.ar   30  TRP30       0.0810
     38  CE3       -1.0920  -22.5880   15.8810 C.ar   30  TRP30       0.0012
     39  CZ2       -2.0260  -24.8320   17.4150 C.ar   30  TRP30       0.0191
     40  CZ3       -0.3900  -23.8100   15.9000 C.ar   30  TRP30       0.0001
     41  CH2       -0.8600  -24.9140   16.6810 C.ar   30  TRP30       0.0015
     42  N         -0.9860  -17.3960   15.8160 N.am   31  ASN31      -0.1960
     43  CA        -0.6650  -16.0790   15.3200 C.3    31  ASN31       0.1819
     44  C         -0.1490  -16.2340   13.9130 C.2    31  ASN31       0.2621
     45  O          0.3460  -17.3080   13.5270 O.2    31  ASN31      -0.2715
     46  CB         0.4420  -15.4600   16.1600 C.3    31  ASN31       0.1195
     47  CG        -0.0240  -15.0530   17.5360 C.2    31  ASN31       0.2630
     48  OD1       -1.2110  -14.9600   17.8070 O.2    31  ASN31      -0.2716
     49  ND2        0.8980  -14.7440   18.3740 N.am   31  ASN31      -0.0877
     50  N         -0.1920  -15.1320   13.1600 N.am   32  GLY32      -0.1954
     51  CA         0.6280  -15.0060   11.9520 C.3    32  GLY32       0.1869
     52  C          2.0430  -14.7520   12.3840 C.2    32  GLY32       0.2309
     53  O          2.2920  -14.5380   13.5610 O.2    32  GLY32      -0.2863
     54  N         -3.2000   -0.7740   15.9380 N.3    70  PHE70      -0.1241
     55  CA        -3.6690   -1.2080   17.2580 C.3    70  PHE70       0.1605
     56  C         -3.2530   -0.2090   18.3100 C.2    70  PHE70       0.2264
     57  O         -2.1120    0.2620   18.3630 O.2    70  PHE70      -0.2867
     58  CB        -3.1000   -2.5460   17.6570 C.3    70  PHE70       0.0534
     59  CG        -3.4580   -3.6600   16.7240 C.ar   70  PHE70      -0.0203
     60  CD1       -4.6830   -4.3210   16.8490 C.ar   70  PHE70      -0.0042
     61  CD2       -2.5750   -4.0820   15.7570 C.ar   70  PHE70      -0.0042
     62  CE1       -5.0220   -5.3790   16.0070 C.ar   70  PHE70      -0.0003
     63  CE2       -2.8870   -5.1540   14.9330 C.ar   70  PHE70      -0.0003
     64  CZ        -4.1210   -5.8000   15.0530 C.ar   70  PHE70      -0.0000
     65  N         -3.4650   -0.0290   22.4450 N.3    72  PHE72      -0.1241
     66  CA        -3.7310   -0.6360   23.7510 C.3    72  PHE72       0.1605
     67  C         -3.8990    0.4410   24.8340 C.2    72  PHE72       0.2264
     68  O         -3.1090    1.3560   24.9250 O.2    72  PHE72      -0.2867
     69  CB        -2.6250   -1.6460   24.0820 C.3    72  PHE72       0.0534
     70  CG        -2.6710   -2.8660   23.2110 C.ar   72  PHE72      -0.0203
     71  CD1       -2.1150   -2.8370   21.9380 C.ar   72  PHE72      -0.0042
     72  CD2       -3.3410   -4.0220   23.6140 C.ar   72  PHE72      -0.0042
     73  CE1       -2.2030   -3.9580   21.0890 C.ar   72  PHE72      -0.0003
     74  CE2       -3.3830   -5.1450   22.7820 C.ar   72  PHE72      -0.0003
     75  CZ        -2.8410   -5.1110   21.5090 C.ar   72  PHE72      -0.0000
     76  N          0.6790    0.4340   17.7170 N.3    79  MET79      -0.1245
     77  CA         1.3040   -0.5320   16.7800 C.3    79  MET79       0.1570
     78  C          0.7670   -0.3010   15.3710 C.2    79  MET79       0.2261
     79  O         -0.4290   -0.4120   15.1630 O.2    79  MET79      -0.2867
     80  CB         0.9940   -1.9670   17.1850 C.3    79  MET79       0.0387
     81  CG         1.5740   -2.3940   18.5090 C.3    79  MET79       0.0595
     82  SD         1.0920   -4.0700   19.0050 S.3    79  MET79      -0.1393
     83  CE         1.6360   -5.0880   17.6410 C.3    79  MET79       0.0692
     84  N          0.7800   -2.0080   11.9620 N.3    81  VAL81      -0.1245
     85  CA         1.0770   -3.3470   11.4490 C.3    81  VAL81       0.1561
     86  C          0.8370   -3.4060    9.9510 C.2    81  VAL81       0.2260
     87  O         -0.2510   -3.1640    9.4980 O.2    81  VAL81      -0.2867
     88  CB         0.2380   -4.4000   12.1680 C.3    81  VAL81       0.0252
     89  CG1        0.6570   -5.8000   11.7670 C.3    81  VAL81       0.0019
     90  CG2        0.4060   -4.2250   13.6770 C.3    81  VAL81       0.0019
     91  N         -6.0310  -14.0520   18.2690 N.3   115  TRP115     -0.1241
     92  CA        -6.3900  -12.6730   18.6060 C.3   115  TRP115      0.1605
     93  C         -7.7950  -12.3210   18.1010 C.2   115  TRP115      0.2264
     94  O         -8.1390  -12.6860   16.9830 O.2   115  TRP115     -0.2867
     95  CB        -5.3890  -11.7170   18.0110 C.3   115  TRP115      0.0550
     96  CG        -4.1620  -11.6580   18.6960 C.ar  115  TRP115      0.0003
     97  CD1       -3.0280  -12.3800   18.4290 C.ar  115  TRP115      0.0946
     98  CD2       -3.8440  -10.7690   19.7510 C.ar  115  TRP115      0.0152
     99  NE1       -2.0180  -12.0020   19.2820 N.ar  115  TRP115     -0.2442
    100  CE2       -2.4960  -11.0200   20.1150 C.ar  115  TRP115      0.0810
    101  CE3       -4.5520   -9.7730   20.4230 C.ar  115  TRP115      0.0012
    102  CZ2       -1.8570  -10.3190   21.1340 C.ar  115  TRP115      0.0191
    103  CZ3       -3.9060   -9.0660   21.4440 C.ar  115  TRP115      0.0001
    104  CH2       -2.5800   -9.3640   21.8020 C.ar  115  TRP115      0.0015
    105  N         -9.2960   -9.6440   16.9730 N.3   117  ASP117     -0.1225
    106  CA        -9.3460   -8.8830   15.7100 C.3   117  ASP117      0.1805
    107  C         -9.3460   -9.7630   14.4580 C.2   117  ASP117      0.2597
    108  O         -9.9940   -9.4170   13.4820 O.2   117  ASP117     -0.2718
    109  CB        -8.2020   -7.8600   15.6080 C.3   117  ASP117      0.1424
    110  CG        -6.8490   -8.4690   15.7780 C.2   117  ASP117      0.3668
    111  OD1       -6.5730   -8.9040   16.9040 O.co2 117  ASP117     -0.2456
    112  OD2       -6.0670   -8.5260   14.7950 O.co2 117  ASP117     -0.2456
    113  N         -8.6510  -10.8980   14.4990 N.am  118  ASP118     -0.1974
    114  CA        -8.6010  -11.8320   13.3490 C.3   118  ASP118      0.1709
    115  C         -9.9850  -12.2470   12.8320 C.2   118  ASP118      0.2293
    116  O        -10.1720  -12.3680   11.6430 O.2   118  ASP118     -0.2864
    117  CB        -7.8120  -13.1040   13.6770 C.3   118  ASP118      0.1436
    118  CG        -6.3740  -12.8500   13.9720 C.2   118  ASP118      0.3671
    119  OD1       -5.9630  -11.6570   14.0530 O.co2 118  ASP118     -0.2456
    120  OD2       -5.6640  -13.8630   14.1540 O.co2 118  ASP118     -0.2456
    121  N        -10.9250   -9.2770   10.2430 N.3   121  TRP121     -0.1227
    122  CA       -10.2110   -8.9570    8.9960 C.3   121  TRP121      0.1737
    123  C         -9.7700  -10.1630    8.2130 C.2   121  TRP121      0.2595
    124  O         -9.4770  -10.0250    7.0290 O.2   121  TRP121     -0.2718
    125  CB        -9.0160   -7.9880    9.2430 C.3   121  TRP121      0.0564
    126  CG        -7.9760   -8.4540   10.1910 C.ar  121  TRP121      0.0003
    127  CD1       -7.9090   -8.2000   11.5110 C.ar  121  TRP121      0.0946
    128  CD2       -6.8220   -9.2390    9.8780 C.ar  121  TRP121      0.0152
    129  NE1       -6.7970   -8.7780   12.0530 N.ar  121  TRP121     -0.2442
    130  CE2       -6.1170   -9.4280   11.0670 C.ar  121  TRP121      0.0810
    131  CE3       -6.3330   -9.8270    8.6900 C.ar  121  TRP121      0.0012
    132  CZ2       -4.9490  -10.1790   11.1270 C.ar  121  TRP121      0.0191
    133  CZ3       -5.1790  -10.5580    8.7360 C.ar  121  TRP121      0.0001
    134  CH2       -4.4950  -10.7370    9.9510 C.ar  121  TRP121      0.0015
    135  N         -9.7080  -11.3430    8.8350 N.am  122  PHE122     -0.1976
    136  CA        -9.3130  -12.5560    8.0720 C.3   122  PHE122      0.1639
    137  C        -10.1980  -12.8260    6.8730 C.2   122  PHE122      0.2290
    138  O         -9.6880  -13.1760    5.8180 O.2   122  PHE122     -0.2864
    139  CB        -9.3240  -13.8020    8.9480 C.3   122  PHE122      0.0560
    140  CG        -8.0270  -14.4620    9.0390 C.ar  122  PHE122     -0.0200
    141  CD1       -7.0440  -13.9050    9.8170 C.ar  122  PHE122     -0.0042
    142  CD2       -7.7520  -15.6040    8.2870 C.ar  122  PHE122     -0.0042
    143  CE1       -5.7770  -14.4750    9.8790 C.ar  122  PHE122     -0.0003
    144  CE2       -6.5050  -16.1880    8.3360 C.ar  122  PHE122     -0.0003
    145  CZ        -5.5210  -15.6430    9.1540 C.ar  122  PHE122     -0.0000
    146  N         -7.8390   -1.9070   21.9240 N.3   137  PHE137     -0.1241
    147  CA        -7.9620   -2.9840   22.9110 C.3   137  PHE137      0.1605
    148  C         -7.8360   -2.4820   24.3520 C.2   137  PHE137      0.2264
    149  O         -7.0540   -1.5900   24.6390 O.2   137  PHE137     -0.2867
    150  CB        -6.8560   -4.0080   22.7300 C.3   137  PHE137      0.0534
    151  CG        -7.0850   -5.0110   21.6540 C.ar  137  PHE137     -0.0203
    152  CD1       -6.9510   -4.6660   20.3310 C.ar  137  PHE137     -0.0042
    153  CD2       -7.3230   -6.3330   21.9700 C.ar  137  PHE137     -0.0042
    154  CE1       -7.0920   -5.6020   19.3220 C.ar  137  PHE137     -0.0003
    155  CE2       -7.5390   -7.2670   20.9780 C.ar  137  PHE137     -0.0003
    156  CZ        -7.4010   -6.9010   19.6380 C.ar  137  PHE137     -0.0000
@<TRIPOS>BOND
     1    12    11    2
     2    11    10    1
     3   138   137    2
     4    13    10    1
     5    13    14    1
     6    10     9    1
     7   137   136    1
     8   124   123    2
     9    14    16    1
    10    14    15    1
    11     4     3    2
    12   136   135    1
    13   136   139    1
    14   123   135   am
    15   123   122    1
    16   142   144   ar
    17   142   140   ar
    18   144   145   ar
    19   131   133   ar
    20   131   128   ar
    21     3     2    1
    22   133   134   ar
    23   139   140    1
    24   122   125    1
    25   122   121    1
    26   140   141   ar
    27   145   143   ar
    28   125   126    1
    29    87    86    2
    30   141   143   ar
    31     1     2    1
    32   128   126   ar
    33   128   130   ar
    34   134   132   ar
    35    86    85    1
    36     2     5    1
    37   126   127   ar
    38     5     6    1
    39     6     8    1
    40     6     7    1
    41   130   132   ar
    42   130   129   ar
    43    85    84    1
    44    85    88    1
    45   127   129   ar
    46   116   115    2
    47    89    88    1
    48    51    52    1
    49    51    50    1
    50    88    90    1
    51    52    53    2
    52   115   114    1
    53    50    44   am
    54   114   117    1
    55   114   113    1
    56   108   107    2
    57    45    44    2
    58   117   118    1
    59    44    43    1
    60   118   119   ar
    61   118   120   ar
    62   107   113   am
    63   107   106    1
    64   112   110   ar
    65    63    64   ar
    66    63    61   ar
    67    64    62   ar
    68    79    78    2
    69    43    42    1
    70    43    46    1
    71    78    77    1
    72   109   106    1
    73   109   110    1
    74   106   105    1
    75    61    59   ar
    76   110   111   ar
    77    42    30   am
    78    38    40   ar
    79    38    35   ar
    80    40    41   ar
    81    54    55    1
    82    62    60   ar
    83    46    47    1
    84    31    30    2
    85    32    33    1
    86    32    29    1
    87    30    29    1
    88    35    33   ar
    89    35    37   ar
    90    41    39   ar
    91    59    60   ar
    92    59    58    1
    93    77    80    1
    94    77    76    1
    95    33    34   ar
    96    94    93    2
    97    29    28    1
    98    80    81    1
    99    55    58    1
   100    55    56    1
   101    37    39   ar
   102    37    36   ar
   103    47    48    2
   104    47    49   am
   105    83    82    1
   106    34    36   ar
   107    95    92    1
   108    95    96    1
   109    93    92    1
   110    91    92    1
   111    56    57    2
   112    97    96   ar
   113    97    99   ar
   114    81    82    1
   115    96    98   ar
   116    99   100   ar
   117   154   156   ar
   118   154   152   ar
   119   156   155   ar
   120    98   100   ar
   121    98   101   ar
   122   100   102   ar
   123   152   151   ar
   124   101   103   ar
   125   155   153   ar
   126    73    75   ar
   127    73    71   ar
   128   102   104   ar
   129    26    24   ar
   130    26    27   ar
   131   103   104   ar
   132    75    74   ar
   133    24    22   ar
   134   151   153   ar
   135   151   150    1
   136   146   147    1
   137    71    70   ar
   138    20    19    2
   139    27    25   ar
   140    65    66    1
   141   150   147    1
   142    74    72   ar
   143   147   148    1
   144    22    21    1
   145    22    23   ar
   146    19    18    1
   147    70    72   ar
   148    70    69    1
   149    21    18    1
   150    25    23   ar
   151    66    69    1
   152    66    67    1
   153    18    17    1
   154   148   149    2
   155    67    68    2
