@<TRIPOS>MOLECULE
tmp/5ngsA00.pdb
 176 171 0 0 0
SMALL
GASTEIGER

@<TRIPOS>ATOM
      1  N          5.6770   -2.8130   12.7730 N.3     5  TYR5       -0.1227
      2  CA         5.7050   -4.2800   12.8860 C.3     5  TYR5        0.1736
      3  C          5.2920   -4.9410   11.5660 C.2     5  TYR5        0.2596
      4  O          4.7120   -4.2840   10.7030 O.2     5  TYR5       -0.2718
      5  CB         4.7390   -4.7410   13.9700 C.3     5  TYR5        0.0548
      6  CG         5.0600   -4.2160   15.3580 C.ar    5  TYR5       -0.0200
      7  CD1        4.6100   -2.9650   15.7830 C.ar    5  TYR5       -0.0009
      8  CD2        5.7850   -4.9880   16.2500 C.ar    5  TYR5       -0.0009
      9  CE1        4.9060   -2.4900   17.0520 C.ar    5  TYR5        0.0417
     10  CE2        6.0670   -4.5380   17.5280 C.ar    5  TYR5        0.0417
     11  CZ         5.6340   -3.2870   17.9240 C.ar    5  TYR5        0.1957
     12  OH         5.9640   -2.8780   19.2090 O.3     5  TYR5       -0.2866
     13  N          5.5910   -6.2390   11.4330 N.am    6  THR6       -0.1939
     14  CA         5.2180   -7.0310   10.2470 C.3     6  THR6        0.2028
     15  C          4.3900   -8.2640   10.6400 C.2     6  THR6        0.2642
     16  O          4.4660   -8.7390   11.7710 O.2     6  THR6       -0.2714
     17  CB         6.4490   -7.4860    9.4440 C.3     6  THR6        0.1808
     18  OG1        7.2790   -8.3720   10.2230 O.3     6  THR6       -0.2208
     19  CG2        7.2570   -6.2530    8.9930 C.3     6  THR6        0.0379
     20  N          3.6240   -8.7790    9.6820 N.am    7  LEU7       -0.1977
     21  CA         2.8740  -10.0240    9.8570 C.3     7  LEU7        0.1596
     22  C          2.7600  -10.6770    8.4750 C.2     7  LEU7        0.2287
     23  O          2.3540   -9.9990    7.5170 O.2     7  LEU7       -0.2864
     24  CB         1.4790   -9.7270   10.4590 C.3     7  LEU7        0.0297
     25  CG         0.6180  -10.9540   10.8470 C.3     7  LEU7        0.0022
     26  CD1        1.2680  -11.8020   11.9310 C.3     7  LEU7        0.0001
     27  CD2       -0.7310  -10.5120   11.3520 C.3     7  LEU7        0.0001
     28  N          2.4660  -19.4420   18.9790 N.3    21  LYS21      -0.1245
     29  CA         3.4590  -18.5900   19.6260 C.3    21  LYS21       0.1561
     30  C          3.7980  -19.1890   21.0120 C.2    21  LYS21       0.2260
     31  O          2.9250  -19.3470   21.8460 O.2    21  LYS21      -0.2867
     32  CB         2.9290  -17.1620   19.7580 C.3    21  LYS21       0.0271
     33  CG         3.9360  -16.1020   20.2080 C.3    21  LYS21       0.0035
     34  CD         4.9890  -15.8310   19.1530 C.3    21  LYS21       0.0206
     35  CE         5.5190  -14.4130   19.1070 C.3    21  LYS21       0.1093
     36  NZ         5.9470  -13.8880   20.4260 N.3    21  LYS21      -0.1314
     37  N          5.1660  -11.8410   23.3640 N.3    25  PHE25      -0.1241
     38  CA         3.9140  -11.1530   23.0380 C.3    25  PHE25       0.1605
     39  C          3.0050  -12.0510   22.1820 C.2    25  PHE25       0.2264
     40  O          3.4260  -12.5320   21.1390 O.2    25  PHE25      -0.2867
     41  CB         4.2380   -9.8270   22.3190 C.3    25  PHE25       0.0534
     42  CG         3.0230   -9.0100   21.9690 C.ar   25  PHE25      -0.0203
     43  CD1        2.3140   -8.3480   22.9620 C.ar   25  PHE25      -0.0042
     44  CD2        2.5900   -8.9010   20.6460 C.ar   25  PHE25      -0.0042
     45  CE1        1.1860   -7.6110   22.6550 C.ar   25  PHE25      -0.0003
     46  CE2        1.4600   -8.1690   20.3330 C.ar   25  PHE25      -0.0003
     47  CZ         0.7530   -7.5320   21.3440 C.ar   25  PHE25      -0.0000
     48  N         -0.9700  -17.5040   15.0520 N.3    31  ASN31      -0.1225
     49  CA        -0.8200  -16.2630   14.2700 C.3    31  ASN31       0.1785
     50  C          0.0260  -16.5390   13.0320 C.2    31  ASN31       0.2597
     51  O          0.5990  -17.6180   12.8830 O.2    31  ASN31      -0.2718
     52  CB        -0.1530  -15.1780   15.1390 C.3    31  ASN31       0.1169
     53  CG        -0.5540  -13.7470   14.7650 C.2    31  ASN31       0.2627
     54  OD1       -1.1710  -13.4860   13.7170 O.2    31  ASN31      -0.2716
     55  ND2       -0.1760  -12.8020   15.6320 N.am   31  ASN31      -0.0877
     56  N          0.0900  -15.5550   12.1430 N.am   32  GLY32      -0.1957
     57  CA         1.1340  -15.4680   11.1500 C.3    32  GLY32       0.1869
     58  C          2.4830  -15.1410   11.7830 C.2    32  GLY32       0.2309
     59  O          2.6130  -14.9970   13.0190 O.2    32  GLY32      -0.2863
     60  N          5.9840  -12.8330   12.2490 N.3    34  GLY34      -0.1210
     61  CA         6.3750  -11.4140   12.2370 C.3    34  GLY34       0.1956
     62  C          6.9260  -10.8780   13.5470 C.2    34  GLY34       0.2612
     63  O          7.2990  -11.6370   14.4550 O.2    34  GLY34      -0.2717
     64  N          7.0030   -9.5560   13.6420 N.am   35  GLY35      -0.1942
     65  CA         7.6070   -8.8980   14.7980 C.3    35  GLY35       0.2014
     66  C          8.0580   -7.4760   14.4830 C.2    35  GLY35       0.2638
     67  O          7.6120   -6.8940   13.4910 O.2    35  GLY35      -0.2714
     68  N          8.9370   -6.9410   15.3340 N.am   36  LYS36      -0.1977
     69  CA         9.4410   -5.5600   15.1950 C.3    36  LYS36       0.1596
     70  C         10.3060   -5.3730   13.9470 C.2    36  LYS36       0.2287
     71  O         11.0720   -6.2660   13.5880 O.2    36  LYS36      -0.2864
     72  CB        10.2850   -5.1710   16.4130 C.3    36  LYS36       0.0298
     73  CG         9.5030   -4.9730   17.6980 C.3    36  LYS36       0.0038
     74  CD        10.3510   -4.2410   18.7330 C.3    36  LYS36       0.0206
     75  CE         9.5660   -3.8640   19.9900 C.3    36  LYS36       0.1093
     76  NZ         9.4010   -5.0320   20.8950 N.3    36  LYS36      -0.1314
     77  N         -2.8880   -2.6370    9.8600 N.3    68  ILE68      -0.1245
     78  CA        -3.7080   -2.5820   11.0740 C.3    68  ILE68       0.1561
     79  C         -2.9780   -1.7820   12.1420 C.2    68  ILE68       0.2260
     80  O         -1.8100   -2.0440   12.3900 O.2    68  ILE68      -0.2867
     81  CB        -4.0260   -3.9980   11.6100 C.3    68  ILE68       0.0252
     82  CG1       -4.4990   -4.9360   10.4840 C.3    68  ILE68       0.0019
     83  CG2       -5.0780   -3.9300   12.7120 C.3    68  ILE68       0.0019
     84  CD1       -4.5340   -6.3910   10.8870 C.3    68  ILE68       0.0001
     85  N         -2.9890   -0.8530   16.1840 N.3    70  PHE70      -0.1241
     86  CA        -3.4670   -1.2910   17.4960 C.3    70  PHE70       0.1605
     87  C         -3.1280   -0.2240   18.5600 C.2    70  PHE70       0.2264
     88  O         -2.0120    0.2920   18.5740 O.2    70  PHE70      -0.2867
     89  CB        -2.8460   -2.6370   17.8830 C.3    70  PHE70       0.0534
     90  CG        -3.2650   -3.7820   16.9990 C.ar   70  PHE70      -0.0203
     91  CD1       -4.5790   -4.2660   17.0350 C.ar   70  PHE70      -0.0042
     92  CD2       -2.3630   -4.3790   16.1290 C.ar   70  PHE70      -0.0042
     93  CE1       -4.9740   -5.3250   16.2170 C.ar   70  PHE70      -0.0003
     94  CE2       -2.7520   -5.4340   15.3240 C.ar   70  PHE70      -0.0003
     95  CZ        -4.0560   -5.9140   15.3650 C.ar   70  PHE70      -0.0000
     96  N         -3.2880   -0.1270   22.8030 N.3    72  PHE72      -0.1241
     97  CA        -3.5410   -0.7690   24.0990 C.3    72  PHE72       0.1605
     98  C         -3.6740    0.3240   25.1690 C.2    72  PHE72       0.2264
     99  O         -2.8070    1.2140   25.2560 O.2    72  PHE72      -0.2867
    100  CB        -2.3940   -1.7420   24.4540 C.3    72  PHE72       0.0534
    101  CG        -2.3860   -2.9870   23.6070 C.ar   72  PHE72      -0.0203
    102  CD1       -1.7230   -3.0140   22.3710 C.ar   72  PHE72      -0.0042
    103  CD2       -3.0590   -4.1270   24.0160 C.ar   72  PHE72      -0.0042
    104  CE1       -1.7500   -4.1530   21.5740 C.ar   72  PHE72      -0.0003
    105  CE2       -3.0680   -5.2780   23.2240 C.ar   72  PHE72      -0.0003
    106  CZ        -2.4350   -5.2760   22.0010 C.ar   72  PHE72      -0.0000
    107  N          0.8650    0.4700   17.7130 N.3    79  MET79      -0.1245
    108  CA         1.5060   -0.5330   16.8550 C.3    79  MET79       0.1570
    109  C          0.9880   -0.3680   15.4230 C.2    79  MET79       0.2261
    110  O         -0.2240   -0.4020   15.2130 O.2    79  MET79      -0.2867
    111  CB         1.1700   -1.9510   17.3360 C.3    79  MET79       0.0387
    112  CG         1.6240   -2.3040   18.7350 C.3    79  MET79       0.0595
    113  SD         1.1620   -4.0180   19.1650 S.3    79  MET79      -0.1393
    114  CE         2.0150   -4.9760   17.9310 C.3    79  MET79       0.0692
    115  N          1.0560   -2.2300   12.1240 N.3    81  VAL81      -0.1245
    116  CA         1.3550   -3.5700   11.5980 C.3    81  VAL81       0.1561
    117  C          1.0810   -3.6450   10.0930 C.2    81  VAL81       0.2260
    118  O         -0.0630   -3.4290    9.6440 O.2    81  VAL81      -0.2867
    119  CB         0.5230   -4.6620   12.3110 C.3    81  VAL81       0.0252
    120  CG1        0.9260   -6.0740   11.8460 C.3    81  VAL81       0.0019
    121  CG2        0.6400   -4.5160   13.8250 C.3    81  VAL81       0.0019
    122  N         -5.9250  -14.0380   18.2090 N.3   115  TRP115     -0.1241
    123  CA        -6.2610  -12.6980   18.7110 C.3   115  TRP115      0.1605
    124  C         -7.7050  -12.3860   18.2750 C.2   115  TRP115      0.2264
    125  O         -8.0900  -12.7400   17.1460 O.2   115  TRP115     -0.2867
    126  CB        -5.3120  -11.6190   18.1750 C.3   115  TRP115      0.0550
    127  CG        -3.9620  -11.5050   18.8300 C.ar  115  TRP115      0.0003
    128  CD1       -2.7950  -12.1260   18.4450 C.ar  115  TRP115      0.0946
    129  CD2       -3.6300  -10.6840   19.9590 C.ar  115  TRP115      0.0152
    130  NE1       -1.7630  -11.7400   19.2770 N.ar  115  TRP115     -0.2442
    131  CE2       -2.2490  -10.8620   20.2160 C.ar  115  TRP115      0.0810
    132  CE3       -4.3680   -9.8240   20.7850 C.ar  115  TRP115      0.0012
    133  CZ2       -1.5870  -10.1920   21.2490 C.ar  115  TRP115      0.0191
    134  CZ3       -3.7130   -9.1580   21.8140 C.ar  115  TRP115      0.0001
    135  CH2       -2.3350   -9.3550   22.0450 C.ar  115  TRP115      0.0015
    136  N         -9.3220   -9.7910   17.1840 N.3   117  ASP117     -0.1225
    137  CA        -9.4770   -8.9510   15.9600 C.3   117  ASP117      0.1805
    138  C         -9.4120   -9.7590   14.6650 C.2   117  ASP117      0.2597
    139  O        -10.0250   -9.3620   13.6730 O.2   117  ASP117     -0.2718
    140  CB        -8.4390   -7.8150   15.8990 C.3   117  ASP117      0.1424
    141  CG        -7.0310   -8.2940   16.1100 C.2   117  ASP117      0.3668
    142  OD1       -6.6940   -8.6230   17.2620 O.co2 117  ASP117     -0.2456
    143  OD2       -6.2730   -8.3800   15.1330 O.co2 117  ASP117     -0.2456
    144  N         -8.7070  -10.8950   14.6860 N.am  118  ASP118     -0.1974
    145  CA        -8.5610  -11.7490   13.4960 C.3   118  ASP118      0.1709
    146  C         -9.9090  -12.2100   12.9400 C.2   118  ASP118      0.2293
    147  O        -10.0400  -12.3430   11.7310 O.2   118  ASP118     -0.2864
    148  CB        -7.6740  -12.9890   13.7900 C.3   118  ASP118      0.1436
    149  CG        -6.2440  -12.6340   14.1560 C.2   118  ASP118      0.3671
    150  OD1       -5.9970  -11.4880   14.5820 O.co2 118  ASP118     -0.2456
    151  OD2       -5.3420  -13.4870   14.0200 O.co2 118  ASP118     -0.2456
    152  N        -10.9150   -9.2380   10.3890 N.3   121  TRP121     -0.1241
    153  CA       -10.1510   -8.9420    9.1530 C.3   121  TRP121      0.1605
    154  C         -9.6540  -10.1650    8.3610 C.2   121  TRP121      0.2264
    155  O         -9.4070  -10.0510    7.1860 O.2   121  TRP121     -0.2867
    156  CB        -8.9880   -7.9590    9.4310 C.3   121  TRP121      0.0550
    157  CG        -7.9140   -8.4480   10.3940 C.ar  121  TRP121      0.0003
    158  CD1       -7.8340   -8.1750   11.7070 C.ar  121  TRP121      0.0946
    159  CD2       -6.8010   -9.3220   10.0950 C.ar  121  TRP121      0.0152
    160  NE1       -6.7440   -8.7980   12.2570 N.ar  121  TRP121     -0.2442
    161  CE2       -6.0990   -9.5150   11.2850 C.ar  121  TRP121      0.0810
    162  CE3       -6.3220   -9.9300    8.9200 C.ar  121  TRP121      0.0012
    163  CZ2       -4.9340  -10.3020   11.3530 C.ar  121  TRP121      0.0191
    164  CZ3       -5.1840  -10.7260    8.9870 C.ar  121  TRP121      0.0001
    165  CH2       -4.5090  -10.9090   10.2030 C.ar  121  TRP121      0.0015
    166  N         -7.6630   -2.0090   22.3500 N.3   137  PHE137     -0.1241
    167  CA        -7.7290   -3.1010   23.3210 C.3   137  PHE137      0.1605
    168  C         -7.6220   -2.5790   24.7720 C.2   137  PHE137      0.2264
    169  O         -6.8190   -1.6850   25.0500 O.2   137  PHE137     -0.2867
    170  CB        -6.5670   -4.0830   23.0950 C.3   137  PHE137      0.0534
    171  CG        -6.8490   -5.1720   22.0960 C.ar  137  PHE137     -0.0203
    172  CD1       -6.6130   -4.9700   20.7350 C.ar  137  PHE137     -0.0042
    173  CD2       -7.3170   -6.4120   22.5210 C.ar  137  PHE137     -0.0042
    174  CE1       -6.8790   -5.9770   19.8060 C.ar  137  PHE137     -0.0003
    175  CE2       -7.5560   -7.4350   21.6150 C.ar  137  PHE137     -0.0003
    176  CZ        -7.3520   -7.2100   20.2520 C.ar  137  PHE137     -0.0000
@<TRIPOS>BOND
     1   155   154    2
     2    23    22    2
     3   154   153    1
     4    22    21    1
     5   162   164   ar
     6   162   159   ar
     7   164   165   ar
     8    19    17    1
     9   153   156    1
    10   153   152    1
    11   156   157    1
    12    17    18    1
    13    17    14    1
    14   118   117    2
    15    20    21    1
    16    20    15   am
    17    21    24    1
    18    77    78    1
    19   117   116    1
    20   159   157   ar
    21   159   161   ar
    22   165   163   ar
    23    14    15    1
    24    14    13    1
    25   157   158   ar
    26    24    25    1
    27    82    84    1
    28    82    81    1
    29    15    16    2
    30     4     3    2
    31    25    27    1
    32    25    26    1
    33    78    81    1
    34    78    79    1
    35    57    58    1
    36    57    56    1
    37   161   163   ar
    38   161   160   ar
    39    13     3   am
    40     3     2    1
    41   116   115    1
    42   116   119    1
    43    81    83    1
    44   158   160   ar
    45   147   146    2
    46    58    59    2
    47   120   119    1
    48    79    80    2
    49    56    50   am
    50    61    60    1
    51    61    62    1
    52   119   121    1
    53     1     2    1
    54    51    50    2
    55     2     5    1
    56   146   145    1
    57    50    49    1
    58    67    66    2
    59   145   148    1
    60   145   144    1
    61    62    64   am
    62    62    63    2
    63    71    70    2
    64    64    65    1
    65   139   138    2
    66    54    53    2
    67   148   149    1
    68    70    69    1
    69     5     6    1
    70   151   149   ar
    71   149   150   ar
    72    49    48    1
    73    49    52    1
    74    66    65    1
    75    66    68   am
    76   138   144   am
    77   138   137    1
    78    53    52    1
    79    53    55   am
    80   143   141   ar
    81    69    68    1
    82    69    72    1
    83   110   109    2
    84    94    95   ar
    85    94    92   ar
    86     6     7   ar
    87     6     8   ar
    88    95    93   ar
    89   109   108    1
    90     7     9   ar
    91   140   137    1
    92   140   141    1
    93   137   136    1
    94   141   142   ar
    95    92    90   ar
    96    85    86    1
    97    93    91   ar
    98     8    10   ar
    99    72    73    1
   100   108   111    1
   101   108   107    1
   102    90    91   ar
   103    90    89    1
   104     9    11   ar
   105   125   124    2
   106   111   112    1
   107    86    89    1
   108    86    87    1
   109    10    11   ar
   110    73    74    1
   111    11    12    1
   112   114   113    1
   113   126   123    1
   114   126   127    1
   115   122   123    1
   116   124   123    1
   117   128   127   ar
   118   128   130   ar
   119    87    88    2
   120    74    75    1
   121   112   113    1
   122   127   129   ar
   123    28    29    1
   124    35    34    1
   125    35    36    1
   126    34    33    1
   127   130   131   ar
   128    29    32    1
   129    29    30    1
   130    32    33    1
   131   174   176   ar
   132   174   172   ar
   133   129   131   ar
   134   129   132   ar
   135    75    76    1
   136   131   133   ar
   137   176   175   ar
   138    46    44   ar
   139    46    47   ar
   140    44    42   ar
   141   172   171   ar
   142   132   134   ar
   143    30    31    2
   144    40    39    2
   145   133   135   ar
   146    47    45   ar
   147   104   106   ar
   148   104   102   ar
   149   175   173   ar
   150   134   135   ar
   151    42    41    1
   152    42    43   ar
   153   106   105   ar
   154   171   173   ar
   155   171   170    1
   156    39    38    1
   157    41    38    1
   158   166   167    1
   159   102   101   ar
   160    45    43   ar
   161    96    97    1
   162    38    37    1
   163   170   167    1
   164   105   103   ar
   165   167   168    1
   166   101   103   ar
   167   101   100    1
   168    97   100    1
   169    97    98    1
   170   168   169    2
   171    98    99    2
