@<TRIPOS>MOLECULE
tmp/5ngtA00.pdb
 146 143 0 0 0
SMALL
GASTEIGER

@<TRIPOS>ATOM
      1  N        -11.3870   -9.1860    4.4610 N.3     5  TYR5       -0.1227
      2  CA       -11.4040   -9.0520    5.9050 C.3     5  TYR5        0.1736
      3  C        -10.0090   -9.3610    6.4610 C.2     5  TYR5        0.2596
      4  O         -9.2200  -10.0280    5.8020 O.2     5  TYR5       -0.2718
      5  CB       -12.3930  -10.0400    6.5470 C.3     5  TYR5        0.0548
      6  CG       -13.8430   -9.7820    6.2070 C.ar    5  TYR5       -0.0200
      7  CD1      -14.3600  -10.2280    5.0190 C.ar    5  TYR5       -0.0009
      8  CD2      -14.6640   -9.0870    7.0640 C.ar    5  TYR5       -0.0009
      9  CE1      -15.6870   -9.9870    4.6730 C.ar    5  TYR5        0.0417
     10  CE2      -15.9970   -8.8230    6.7130 C.ar    5  TYR5        0.0417
     11  CZ       -16.4820   -9.2740    5.5020 C.ar    5  TYR5        0.1957
     12  OH       -17.8310   -9.0810    5.1420 O.3     5  TYR5       -0.2866
     13  N         -9.7730   -8.8780    7.6730 N.am    6  THR6       -0.1939
     14  CA        -8.5290   -9.2170    8.4310 C.3     6  THR6        0.2028
     15  C         -8.8840   -9.9070    9.7360 C.2     6  THR6        0.2642
     16  O         -9.9980   -9.7930   10.2750 O.2     6  THR6       -0.2714
     17  CB        -7.7560   -7.9010    8.7650 C.3     6  THR6        0.1808
     18  OG1       -8.5680   -7.0540    9.5810 O.3     6  THR6       -0.2208
     19  CG2       -7.3420   -7.2690    7.4700 C.3     6  THR6        0.0379
     20  N         -7.9220  -10.7130   10.2090 N.am    7  LEU7       -0.1977
     21  CA        -8.0340  -11.3500   11.5000 C.3     7  LEU7        0.1596
     22  C         -6.6680  -11.3590   12.1320 C.2     7  LEU7        0.2287
     23  O         -5.7400  -11.8230   11.4880 O.2     7  LEU7       -0.2864
     24  CB        -8.6310  -12.7670   11.3360 C.3     7  LEU7        0.0297
     25  CG        -8.8720  -13.5480   12.6420 C.3     7  LEU7        0.0022
     26  CD1       -9.9170  -12.8630   13.4880 C.3     7  LEU7        0.0001
     27  CD2       -9.2340  -14.9740   12.3510 C.3     7  LEU7        0.0001
     28  N        -22.0290   -9.7320   14.0000 N.3    25  PHE25      -0.1241
     29  CA       -21.4960  -10.9610   13.4070 C.3    25  PHE25       0.1605
     30  C        -20.4480  -11.5800   14.3520 C.2    25  PHE25       0.2264
     31  O        -19.4670  -10.9270   14.6900 O.2    25  PHE25      -0.2867
     32  CB       -20.8560  -10.6600   12.0520 C.3    25  PHE25       0.0534
     33  CG       -20.4590  -11.8920   11.2970 C.ar   25  PHE25      -0.0203
     34  CD1      -21.4330  -12.6950   10.7210 C.ar   25  PHE25      -0.0042
     35  CD2      -19.1180  -12.2690   11.2100 C.ar   25  PHE25      -0.0042
     36  CE1      -21.0890  -13.8410   10.0370 C.ar   25  PHE25      -0.0003
     37  CE2      -18.7690  -13.4100   10.5260 C.ar   25  PHE25      -0.0003
     38  CZ       -19.7590  -14.1880    9.9320 C.ar   25  PHE25      -0.0000
     39  N        -12.6970  -14.8250   19.4670 N.3    31  ASN31      -0.1240
     40  CA       -12.0140  -14.7830   18.1670 C.3    31  ASN31       0.1653
     41  C        -10.8510  -13.8300   18.2700 C.2    31  ASN31       0.2266
     42  O        -10.7250  -13.1210   19.2720 O.2    31  ASN31      -0.2867
     43  CB       -12.9850  -14.3200   17.1000 C.3    31  ASN31       0.1155
     44  CG       -12.6110  -14.7240   15.6740 C.2    31  ASN31       0.2627
     45  OD1      -11.5670  -15.3340   15.4050 O.2    31  ASN31      -0.2716
     46  ND2      -13.5260  -14.4060   14.7440 N.am   31  ASN31      -0.0877
     47  N        -10.4870   -8.1530   14.1670 N.3    34  GLY34      -0.1210
     48  CA       -10.4320   -7.8170   12.7460 C.3    34  GLY34       0.1956
     49  C        -11.7220   -7.3040   12.2210 C.2    34  GLY34       0.2612
     50  O        -12.6310   -6.9900   12.9780 O.2    34  GLY34      -0.2717
     51  N        -11.7910   -7.2150   10.9130 N.am   35  GLY35      -0.1956
     52  CA       -12.9740   -6.6490   10.2760 C.3    35  GLY35       0.1869
     53  C        -12.6710   -6.3150    8.8270 C.2    35  GLY35       0.2309
     54  O        -11.7140   -6.8200    8.2660 O.2    35  GLY35      -0.2863
     55  N        -14.1920  -18.0390    3.3660 N.3    70  PHE70      -0.1241
     56  CA       -15.3840  -18.6090    3.9400 C.3    70  PHE70       0.1605
     57  C        -16.5600  -18.3970    3.0080 C.2    70  PHE70       0.2264
     58  O        -16.7590  -17.3100    2.4650 O.2    70  PHE70      -0.2867
     59  CB       -15.7330  -17.9740    5.2600 C.3    70  PHE70       0.0534
     60  CG       -14.7180  -18.2120    6.3170 C.ar   70  PHE70      -0.0203
     61  CD1      -14.7300  -19.3900    7.0250 C.ar   70  PHE70      -0.0042
     62  CD2      -13.7660  -17.2530    6.6120 C.ar   70  PHE70      -0.0042
     63  CE1      -13.8000  -19.6580    8.0240 C.ar   70  PHE70      -0.0003
     64  CE2      -12.7970  -17.5180    7.5870 C.ar   70  PHE70      -0.0003
     65  CZ       -12.8330  -18.6940    8.3110 C.ar   70  PHE70      -0.0000
     66  N        -20.7950  -19.0940    2.9460 N.3    72  PHE72      -0.1241
     67  CA       -22.0280  -19.5070    3.6000 C.3    72  PHE72       0.1605
     68  C        -22.9690  -19.9150    2.4710 C.2    72  PHE72       0.2264
     69  O        -23.2420  -19.0940    1.5770 O.2    72  PHE72      -0.2867
     70  CB       -22.6650  -18.3650    4.3710 C.3    72  PHE72       0.0534
     71  CG       -21.9550  -18.0270    5.6320 C.ar   72  PHE72      -0.0203
     72  CD1      -22.1610  -18.8090    6.7530 C.ar   72  PHE72      -0.0042
     73  CD2      -21.0870  -16.9610    5.6980 C.ar   72  PHE72      -0.0042
     74  CE1      -21.5330  -18.5080    7.9360 C.ar   72  PHE72      -0.0003
     75  CE2      -20.4690  -16.6420    6.8920 C.ar   72  PHE72      -0.0003
     76  CZ       -20.6770  -17.4400    7.9980 C.ar   72  PHE72      -0.0000
     77  N        -16.1580  -14.4830    2.0840 N.3    79  MET79      -0.1245
     78  CA       -15.3020  -13.6950    2.9650 C.3    79  MET79       0.1570
     79  C        -13.8810  -14.1370    2.7790 C.2    79  MET79       0.2261
     80  O        -13.5730  -15.2950    3.0560 O.2    79  MET79      -0.2867
     81  CB       -15.7270  -13.8480    4.4230 C.3    79  MET79       0.0387
     82  CG       -17.1880  -13.5000    4.6870 C.3    79  MET79       0.0595
     83  SD       -17.6420  -13.7610    6.4280 S.3    79  MET79      -0.1393
     84  CE       -17.1770  -12.2090    7.1690 C.3    79  MET79       0.0692
     85  N        -10.4940  -13.8560    4.2310 N.3    81  VAL81      -0.1245
     86  CA        -9.9270  -13.4380    5.4970 C.3    81  VAL81       0.1561
     87  C         -8.4150  -13.5920    5.5170 C.2    81  VAL81       0.2260
     88  O         -7.9000  -14.6740    5.3300 O.2    81  VAL81      -0.2867
     89  CB       -10.5490  -14.2240    6.6690 C.3    81  VAL81       0.0252
     90  CG1      -10.0140  -13.7000    7.9730 C.3    81  VAL81       0.0019
     91  CG2      -12.0590  -14.0630    6.6660 C.3    81  VAL81       0.0019
     92  N        -15.4440  -19.9730   16.6710 N.3   115  TRP115     -0.1241
     93  CA       -15.9150  -20.4730   15.3730 C.3   115  TRP115      0.1605
     94  C        -15.3450  -21.8610   15.1590 C.2   115  TRP115      0.2264
     95  O        -14.2230  -22.1580   15.5100 O.2   115  TRP115     -0.2867
     96  CB       -15.5170  -19.5440   14.2420 C.3   115  TRP115      0.0550
     97  CG       -16.3020  -18.2850   14.1470 C.ar  115  TRP115      0.0003
     98  CD1      -16.0360  -17.0900   14.7420 C.ar  115  TRP115      0.0946
     99  CD2      -17.4620  -18.0770   13.3320 C.ar  115  TRP115      0.0152
    100  NE1      -16.9710  -16.1520   14.3820 N.ar  115  TRP115     -0.2442
    101  CE2      -17.8570  -16.7250   13.5110 C.ar  115  TRP115      0.0810
    102  CE3      -18.2000  -18.8920   12.4630 C.ar  115  TRP115      0.0012
    103  CZ2      -18.9640  -16.1740   12.8570 C.ar  115  TRP115      0.0191
    104  CZ3      -19.3170  -18.3290   11.7930 C.ar  115  TRP115      0.0001
    105  CH2      -19.6910  -17.0090   12.0150 C.ar  115  TRP115      0.0015
    106  N        -14.2360  -23.4720   12.6600 N.3   117  ASP117     -0.1225
    107  CA       -13.0460  -23.6560   11.8110 C.3   117  ASP117      0.1805
    108  C        -11.7480  -23.5190   12.6100 C.2   117  ASP117      0.2597
    109  O        -10.7090  -24.0340   12.2220 O.2   117  ASP117     -0.2718
    110  CB       -13.0050  -22.6380   10.6590 C.3   117  ASP117      0.1424
    111  CG       -13.1550  -21.2070   11.1350 C.2   117  ASP117      0.3668
    112  OD1      -14.2620  -20.9220   11.6080 O.co2 117  ASP117     -0.2456
    113  OD2      -12.2010  -20.4490   10.9790 O.co2 117  ASP117     -0.2456
    114  N        -11.7720  -22.7690   13.7160 N.am  118  ASP118     -0.1974
    115  CA       -10.5570  -22.4870   14.4760 C.3   118  ASP118      0.1709
    116  C         -9.8710  -23.7690   14.9560 C.2   118  ASP118      0.2293
    117  O         -8.6720  -23.8120   15.0050 O.2   118  ASP118     -0.2864
    118  CB       -10.8520  -21.5890   15.6710 C.3   118  ASP118      0.1436
    119  CG       -11.3350  -20.2130   15.2790 C.2   118  ASP118      0.3671
    120  OD1      -11.7300  -19.9780   14.1290 O.co2 118  ASP118     -0.2456
    121  OD2      -11.3060  -19.3430   16.1220 O.co2 118  ASP118     -0.2456
    122  N         -7.3540  -24.7620   12.0530 N.3   121  TRP121     -0.1241
    123  CA        -6.1520  -23.9970   11.7390 C.3   121  TRP121      0.1605
    124  C         -5.4070  -23.3780   12.8920 C.2   121  TRP121      0.2264
    125  O         -4.2360  -23.0400   12.7550 O.2   121  TRP121     -0.2867
    126  CB        -6.4690  -22.9050   10.7160 C.3   121  TRP121      0.0550
    127  CG        -7.5080  -21.8920   11.1390 C.ar  121  TRP121      0.0003
    128  CD1       -8.8550  -21.9250   10.8670 C.ar  121  TRP121      0.0946
    129  CD2       -7.2880  -20.7200   11.8680 C.ar  121  TRP121      0.0152
    130  NE1       -9.4690  -20.8530   11.3800 N.ar  121  TRP121     -0.2442
    131  CE2       -8.5440  -20.0690   11.9930 C.ar  121  TRP121      0.0810
    132  CE3       -6.1540  -20.1210   12.4140 C.ar  121  TRP121      0.0012
    133  CZ2       -8.7050  -18.8690   12.6810 C.ar  121  TRP121      0.0191
    134  CZ3       -6.2990  -18.9330   13.0750 C.ar  121  TRP121      0.0001
    135  CH2       -7.5790  -18.3170   13.2070 C.ar  121  TRP121      0.0015
    136  N        -19.7630  -23.2060    5.0910 N.3   137  PHE137     -0.1241
    137  CA       -20.6520  -23.2940    6.2370 C.3   137  PHE137      0.1605
    138  C        -22.1080  -23.3440    5.8050 C.2   137  PHE137      0.2264
    139  O        -22.4600  -22.7230    4.8210 O.2   137  PHE137     -0.2867
    140  CB       -20.4880  -22.0250    7.0870 C.3   137  PHE137      0.0534
    141  CG       -19.3780  -22.0580    8.0690 C.ar  137  PHE137     -0.0203
    142  CD1      -18.0980  -21.7780    7.7150 C.ar  137  PHE137     -0.0042
    143  CD2      -19.6660  -22.2500    9.4120 C.ar  137  PHE137     -0.0042
    144  CE1      -17.0530  -21.8060    8.6500 C.ar  137  PHE137     -0.0003
    145  CE2      -18.6310  -22.2300   10.3740 C.ar  137  PHE137     -0.0003
    146  CZ       -17.3250  -21.9920    9.9770 C.ar  137  PHE137     -0.0000
@<TRIPOS>BOND
     1    69    68    2
     2    77    78    1
     3    58    57    2
     4    68    67    1
     5    79    78    1
     6    79    80    2
     7    66    67    1
     8    78    81    1
     9    57    56    1
    10    55    56    1
    11    67    70    1
    12    56    59    1
    13    85    86    1
    14    70    71    1
    15    81    82    1
    16     1     2    1
    17     9     7   ar
    18     9    11   ar
    19    82    83    1
    20   139   138    2
    21     7     6   ar
    22   136   137    1
    23    12    11    1
    24    59    60    1
    25    88    87    2
    26    86    87    1
    27    86    89    1
    28    11    10   ar
    29    71    73   ar
    30    71    72   ar
    31    73    75   ar
    32     4     3    2
    33   138   137    1
    34     2     3    1
    35     2     5    1
    36     6     5    1
    37     6     8   ar
    38   137   140    1
    39    60    62   ar
    40    60    61   ar
    41    83    84    1
    42     3    13   am
    43    62    64   ar
    44    91    89    1
    45    89    90    1
    46    10     8   ar
    47    72    74   ar
    48    75    76   ar
    49    61    63   ar
    50   140   141    1
    51    19    17    1
    52    64    65   ar
    53    13    14    1
    54   142   141   ar
    55   142   144   ar
    56    74    76   ar
    57    63    65   ar
    58   141   143   ar
    59    54    53    2
    60    14    17    1
    61    14    15    1
    62   144   146   ar
    63    17    18    1
    64    53    52    1
    65   143   145   ar
    66    15    20   am
    67    15    16    2
    68    38    36   ar
    69    38    37   ar
    70   146   145   ar
    71    36    34   ar
    72    20    21    1
    73    52    51    1
    74    37    35   ar
    75   110   111    1
    76   110   107    1
    77   126   127    1
    78   126   123    1
    79    34    33   ar
    80   128   127   ar
    81   128   130   ar
    82    51    49   am
    83   113   111   ar
    84   111   112   ar
    85   127   129   ar
    86    35    33   ar
    87    33    32    1
    88    24    21    1
    89    24    25    1
    90   130   131   ar
    91    23    22    2
    92    21    22    1
    93   123   122    1
    94   123   124    1
    95   104   105   ar
    96   104   102   ar
    97   107   108    1
    98   107   106    1
    99   129   131   ar
   100   129   132   ar
   101   131   133   ar
   102   105   103   ar
   103    32    29    1
   104    49    48    1
   105    49    50    2
   106   109   108    2
   107    27    25    1
   108   132   134   ar
   109   102    99   ar
   110   108   114   am
   111    25    26    1
   112   133   135   ar
   113    48    47    1
   114   125   124    2
   115   103   101   ar
   116   134   135   ar
   117    99   101   ar
   118    99    97   ar
   119    29    28    1
   120    29    30    1
   121   101   100   ar
   122   114   115    1
   123   120   119   ar
   124    97    96    1
   125    97    98   ar
   126    96    93    1
   127    30    31    2
   128   100    98   ar
   129   115   116    1
   130   115   118    1
   131    46    44   am
   132   116   117    2
   133    94    93    1
   134    94    95    2
   135   119   118    1
   136   119   121   ar
   137    93    92    1
   138    45    44    2
   139    44    43    1
   140    43    40    1
   141    40    41    1
   142    40    39    1
   143    41    42    2
