@<TRIPOS>MOLECULE
tmp/5nguA00.pdb
 160 149 0 0 0
SMALL
GASTEIGER

@<TRIPOS>ATOM
      1  N        -19.4810   20.4100   38.4200 N.3    21  ILE21      -0.1245
      2  CA       -19.2430   19.8760   39.7540 C.3    21  ILE21       0.1561
      3  C        -17.9760   20.4820   40.3370 C.2    21  ILE21       0.2260
      4  O        -17.8580   20.6400   41.5470 O.2    21  ILE21      -0.2867
      5  CB       -19.1280   18.3410   39.7490 C.3    21  ILE21       0.0252
      6  CG1      -20.4690   17.7100   39.3880 C.3    21  ILE21       0.0019
      7  CG2      -18.6760   17.8260   41.1060 C.3    21  ILE21       0.0019
      8  CD1      -20.3990   16.2160   39.1730 C.3    21  ILE21       0.0001
      9  N         -6.8330   17.9040   37.9540 N.3    26  TYR26      -0.1241
     10  CA        -7.2020   16.6620   37.3000 C.3    26  TYR26       0.1605
     11  C         -7.9400   16.9610   36.0090 C.2    26  TYR26       0.2264
     12  O         -7.7720   16.2700   35.0100 O.2    26  TYR26      -0.2867
     13  CB        -8.0890   15.8260   38.2170 C.3    26  TYR26       0.0534
     14  CG        -8.8300   16.6270   39.2600 C.ar   26  TYR26      -0.0201
     15  CD1       -8.2030   17.0250   40.4260 C.ar   26  TYR26      -0.0009
     16  CD2      -10.1590   16.9750   39.0810 C.ar   26  TYR26      -0.0009
     17  CE1       -8.8760   17.7520   41.3830 C.ar   26  TYR26       0.0417
     18  CE2      -10.8410   17.7020   40.0340 C.ar   26  TYR26       0.0417
     19  CZ       -10.1950   18.0860   41.1810 C.ar   26  TYR26       0.1957
     20  OH       -10.8680   18.8100   42.1350 O.3    26  TYR26      -0.2866
     21  N        -14.9510   18.3070   36.0930 N.3    29  VAL29      -0.1245
     22  CA       -15.8630   17.2050   36.3300 C.3    29  VAL29       0.1561
     23  C        -17.2790   17.6980   36.3640 C.2    29  VAL29       0.2260
     24  O        -17.6060   18.6570   37.0620 O.2    29  VAL29      -0.2867
     25  CB       -15.4830   16.4080   37.5820 C.3    29  VAL29       0.0252
     26  CG1      -16.4180   15.2250   37.7960 C.3    29  VAL29       0.0019
     27  CG2      -14.0570   15.9460   37.4660 C.3    29  VAL29       0.0019
     28  N        -20.9010   10.7130   36.0650 N.3    42  ALA42      -0.1245
     29  CA       -19.9160   11.7720   36.2260 C.3    42  ALA42       0.1562
     30  C        -18.8920   11.6860   35.1050 C.2    42  ALA42       0.2260
     31  O        -18.3910   10.6120   34.7910 O.2    42  ALA42      -0.2867
     32  CB       -19.2360   11.6710   37.5770 C.3    42  ALA42       0.0290
     33  N        -15.3660   13.2960   33.6560 N.3    44  LYS44      -0.1245
     34  CA       -14.1510   14.0490   33.8760 C.3    44  LYS44       0.1561
     35  C        -13.4930   14.3720   32.5470 C.2    44  LYS44       0.2260
     36  O        -12.9780   13.5010   31.8530 O.2    44  LYS44      -0.2867
     37  CB       -13.1880   13.2710   34.7660 C.3    44  LYS44       0.0271
     38  CG       -11.8850   13.9960   35.0340 C.3    44  LYS44       0.0035
     39  CD       -11.0970   13.3030   36.1260 C.3    44  LYS44       0.0206
     40  CE       -10.0470   12.3810   35.5380 C.3    44  LYS44       0.1093
     41  NZ        -9.6520   11.3230   36.5050 N.3    44  LYS44      -0.1314
     42  N         -3.7690    6.5370   35.0190 N.3    61  GLU61      -0.1245
     43  CA        -5.1010    6.3550   35.5740 C.3    61  GLU61       0.1567
     44  C         -6.0420    5.5640   34.6810 C.2    61  GLU61       0.2260
     45  O         -7.0360    5.0190   35.1360 O.2    61  GLU61      -0.2867
     46  CB        -5.7500    7.7130   35.8150 C.3    61  GLU61       0.0388
     47  CG        -7.1250    7.6420   36.4520 C.3    61  GLU61       0.1160
     48  CD        -7.7060    9.0120   36.7150 C.2    61  GLU61       0.3649
     49  OE1       -7.0520   10.0120   36.3650 O.co2  61  GLU61      -0.2457
     50  OE2       -8.8160    9.0910   37.2740 O.co2  61  GLU61      -0.2457
     51  N        -13.4240    3.6350   42.2130 N.3    74  ILE74      -0.1245
     52  CA       -14.2200    4.1750   41.1190 C.3    74  ILE74       0.1561
     53  C        -13.7250    3.6090   39.8010 C.2    74  ILE74       0.2260
     54  O        -12.5280    3.4410   39.6000 O.2    74  ILE74      -0.2867
     55  CB       -14.1740    5.7130   41.0840 C.3    74  ILE74       0.0252
     56  CG1      -15.2170    6.2600   40.1070 C.3    74  ILE74       0.0019
     57  CG2      -12.7850    6.1970   40.7060 C.3    74  ILE74       0.0019
     58  CD1      -16.6530    6.0090   40.5150 C.3    74  ILE74       0.0001
     59  N        -17.6050    7.9860   34.5970 N.3    95  GLN95      -0.1231
     60  CA       -17.5570    7.2120   35.8400 C.3    95  GLN95       0.1698
     61  C        -18.8790    7.3400   36.5810 C.2    95  GLN95       0.2592
     62  O        -19.7120    8.1760   36.2110 O.2    95  GLN95      -0.2718
     63  CB       -16.4020    7.6910   36.7400 C.3    95  GLN95       0.0381
     64  CG       -15.0390    7.5650   36.0780 C.3    95  GLN95       0.0905
     65  CD       -13.9110    8.1470   36.8770 C.2    95  GLN95       0.2608
     66  OE1      -13.8330    9.3580   37.1000 O.2    95  GLN95      -0.2717
     67  NE2      -12.9600    7.3000   37.2270 N.am   95  GLN95      -0.0878
     68  N        -19.0660    6.5070   37.5960 N.am   96  ASP96      -0.1960
     69  CA       -20.2760    6.5140   38.4000 C.3    96  ASP96       0.1840
     70  C        -20.4360    7.8440   39.1080 C.2    96  ASP96       0.2622
     71  O        -19.4690    8.4150   39.5960 O.2    96  ASP96      -0.2715
     72  CB       -20.2160    5.4030   39.4470 C.3    96  ASP96       0.1450
     73  CG       -20.7820    4.0950   38.9450 C.2    96  ASP96       0.3671
     74  OD1      -20.9990    3.9540   37.7250 O.co2  96  ASP96      -0.2456
     75  OD2      -21.0090    3.2010   39.7810 O.co2  96  ASP96      -0.2456
     76  N        -21.6660    8.3250   39.1780 N.am   97  LEU97      -0.1963
     77  CA       -21.9460    9.5610   39.8730 C.3    97  LEU97       0.1728
     78  C        -22.2020    9.2530   41.3420 C.2    97  LEU97       0.2616
     79  O        -22.9900    8.3650   41.6710 O.2    97  LEU97      -0.2715
     80  CB       -23.1180   10.3300   39.2460 C.3    97  LEU97       0.0311
     81  CG       -23.3930   11.7280   39.8220 C.3    97  LEU97       0.0022
     82  CD1      -22.2290   12.6580   39.6000 C.3    97  LEU97       0.0001
     83  CD2      -24.6390   12.3330   39.2230 C.3    97  LEU97       0.0001
     84  N        -21.4460    9.9370   42.2060 N.am   98  MET98      -0.1963
     85  CA       -21.4680    9.8810   43.6650 C.3    98  MET98       0.1736
     86  C        -22.0820   11.1860   44.1960 C.2    98  MET98       0.2616
     87  O        -22.1690   12.1740   43.4620 O.2    98  MET98      -0.2715
     88  CB       -20.0510    9.6310   44.2310 C.3    98  MET98       0.0427
     89  CG       -19.3910    8.3570   43.6930 C.3    98  MET98       0.0599
     90  SD       -20.1730    6.8060   44.2360 S.3    98  MET98      -0.1393
     91  CE       -19.3580    6.5650   45.7860 C.3    98  MET98       0.0692
     92  N        -22.5790   11.1640   45.4380 N.am   99  GLU99      -0.1963
     93  CA       -23.2420   12.3140   46.0480 C.3    99  GLU99       0.1733
     94  C        -22.2810   13.4330   46.4350 C.2    99  GLU99       0.2617
     95  O        -22.5560   14.6010   46.1610 O.2    99  GLU99      -0.2715
     96  CB       -24.0840   11.8780   47.2580 C.3    99  GLU99       0.0429
     97  CG       -24.7190   12.9800   48.0640 C.3    99  GLU99       0.1163
     98  CD       -25.7650   13.7950   47.3310 C.2    99  GLU99       0.3649
     99  OE1      -26.3790   13.3030   46.3670 O.co2  99  GLU99      -0.2457
    100  OE2      -25.9960   14.9650   47.7190 O.co2  99  GLU99      -0.2457
    101  N        -21.1660   13.0720   47.0850 N.am  100  THR100     -0.1937
    102  CA       -20.1620   14.0080   47.6090 C.3   100  THR100      0.2028
    103  C        -18.8070   13.2910   47.7530 C.2   100  THR100      0.2642
    104  O        -18.6520   12.1500   47.3120 O.2   100  THR100     -0.2714
    105  CB       -20.6700   14.5960   48.9810 C.3   100  THR100      0.1808
    106  OG1      -19.8460   15.6810   49.4090 O.3   100  THR100     -0.2208
    107  CG2      -20.8150   13.5350   50.0970 C.3   100  THR100      0.0379
    108  N        -17.8620   13.9860   48.3650 N.am  101  ASP101     -0.1971
    109  CA       -16.6030   13.3980   48.7520 C.3   101  ASP101      0.1709
    110  C        -16.3950   13.6810   50.2250 C.2   101  ASP101      0.2293
    111  O        -17.0920   14.4920   50.8120 O.2   101  ASP101     -0.2864
    112  CB       -15.4490   13.9440   47.9070 C.3   101  ASP101      0.1436
    113  CG       -15.0990   15.3740   48.2420 C.2   101  ASP101      0.3671
    114  OD1      -14.7300   15.6450   49.3980 O.co2 101  ASP101     -0.2456
    115  OD2      -15.1750   16.2310   47.3410 O.co2 101  ASP101     -0.2456
    116  N        -15.6570   17.5920   51.3400 N.3   104  LYS104     -0.1245
    117  CA       -16.8600   18.3900   51.5110 C.3   104  LYS104      0.1561
    118  C        -17.6730   18.0010   52.6600 C.2   104  LYS104      0.2260
    119  O        -18.1930   18.8810   53.3440 O.2   104  LYS104     -0.2867
    120  CB       -17.7190   18.2160   50.3350 C.3   104  LYS104      0.0271
    121  CG       -17.0940   18.6530   49.0280 C.3   104  LYS104      0.0035
    122  CD       -16.7320   20.1230   49.0710 C.3   104  LYS104      0.0206
    123  CE       -16.4730   20.6620   47.6740 C.3   104  LYS104      0.1093
    124  NZ       -15.5050   19.7810   46.9640 N.3   104  LYS104     -0.1314
    125  N        -10.5360   14.5400   49.6120 N.3   143  SER143     -0.1202
    126  CA       -11.0110   14.8750   48.2510 C.3   143  SER143      0.2020
    127  C        -10.9680   13.6900   47.2580 C.2   143  SER143      0.2618
    128  O        -11.7120   13.6970   46.2750 O.2   143  SER143     -0.2717
    129  CB       -10.2660   16.0830   47.6830 C.3   143  SER143      0.2103
    130  OG        -8.9570   15.7550   47.2440 O.3   143  SER143     -0.2182
    131  N        -10.1550   12.6780   47.5530 N.am  144  ASN144     -0.1974
    132  CA       -10.0230   11.4950   46.6980 C.3   144  ASN144      0.1688
    133  C        -10.8670   10.3000   47.1650 C.2   144  ASN144      0.2292
    134  O        -10.6700    9.1780   46.7160 O.2   144  ASN144     -0.2864
    135  CB        -8.5540   11.0760   46.6050 C.3   144  ASN144      0.1181
    136  CG        -7.7710   11.9060   45.6080 C.2   144  ASN144      0.2629
    137  OD1       -8.2950   12.3240   44.5790 O.2   144  ASN144     -0.2716
    138  ND2       -6.5040   12.1460   45.9120 N.am  144  ASN144     -0.0877
    139  N        -14.7920    9.4050   47.4100 N.3   146  LEU146     -0.1245
    140  CA       -16.1610    9.7220   47.0110 C.3   146  LEU146      0.1561
    141  C        -17.1650    8.9100   47.7640 C.2   146  LEU146      0.2260
    142  O        -16.9440    7.7310   48.0150 O.2   146  LEU146     -0.2867
    143  CB       -16.3630    9.5080   45.5020 C.3   146  LEU146      0.0270
    144  CG       -15.2540   10.0430   44.6400 C.3   146  LEU146      0.0019
    145  CD1      -15.2990    9.4510   43.2530 C.3   146  LEU146      0.0001
    146  CD2      -15.1620   11.5680   44.7360 C.3   146  LEU146      0.0001
    147  N        -10.3530    7.5880   44.5590 N.3   155  CYS155     -0.1221
    148  CA       -10.2010    8.3320   43.2910 C.3   155  CYS155      0.1808
    149  C         -8.7770    8.7580   42.9030 C.2   155  CYS155      0.2601
    150  O         -7.8690    8.6330   43.6910 O.2   155  CYS155     -0.2717
    151  CB       -10.9940    9.6300   43.4260 C.3   155  CYS155      0.0970
    152  SG       -12.6330    9.6290   42.7000 S.3   155  CYS155     -0.0800
    153  N         -8.6190    9.3200   41.7000 N.am  156  ASP156     -0.1973
    154  CA        -7.3330    9.8690   41.1930 C.3   156  ASP156      0.1709
    155  C         -6.0140    9.0700   41.1280 C.2   156  ASP156      0.2293
    156  O         -5.0550    9.3960   41.8260 O.2   156  ASP156     -0.2864
    157  CB        -7.0450   11.2180   41.8480 C.3   156  ASP156      0.1436
    158  CG        -6.7080   12.2990   40.8470 C.2   156  ASP156      0.3671
    159  OD1       -6.3870   11.9720   39.6880 O.co2 156  ASP156     -0.2456
    160  OD2       -6.7600   13.4840   41.2260 O.co2 156  ASP156     -0.2456
@<TRIPOS>BOND
     1    36    35    2
     2    35    34    1
     3    33    34    1
     4    34    37    1
     5    59    60    1
     6    44    45    2
     7    44    43    1
     8    37    38    1
     9    31    30    2
    10    12    11    2
    11    42    43    1
    12    38    39    1
    13    30    29    1
    14    40    39    1
    15    40    41    1
    16    43    46    1
    17    46    47    1
    18    60    61    1
    19    60    63    1
    20    11    10    1
    21    28    29    1
    22    64    63    1
    23    64    65    1
    24    21    22    1
    25    62    61    2
    26    29    32    1
    27    22    23    1
    28    22    25    1
    29    23    24    2
    30    49    48   ar
    31    47    48    1
    32    61    68   am
    33    48    50   ar
    34    65    66    2
    35    65    67   am
    36    10     9    1
    37    10    13    1
    38    27    25    1
    39    25    26    1
    40    68    69    1
    41    74    73   ar
    42    13    14    1
    43    69    70    1
    44    69    72    1
    45     1     2    1
    46    73    72    1
    47    73    75   ar
    48    16    14   ar
    49    16    18   ar
    50    70    76   am
    51    70    71    2
    52     8     6    1
    53    76    77    1
    54    83    81    1
    55    80    81    1
    56    80    77    1
    57    14    15   ar
    58     6     5    1
    59    54    53    2
    60    82    81    1
    61   159   158   ar
    62     5     2    1
    63     5     7    1
    64     2     3    1
    65    53    52    1
    66    77    78    1
    67    18    19   ar
    68    56    58    1
    69    56    55    1
    70     3     4    2
    71    15    17   ar
    72    57    55    1
    73   158   160   ar
    74   158   157    1
    75    55    52    1
    76    52    51    1
    77   155   154    1
    78   155   156    2
    79    19    17   ar
    80    19    20    1
    81   154   153    1
    82   154   157    1
    83    78    79    2
    84    78    84   am
    85   153   149   am
    86    84    85    1
    87   152   151    1
    88   149   148    1
    89   149   150    2
    90   145   144    1
    91   148   151    1
    92   148   147    1
    93    87    86    2
    94    85    86    1
    95    85    88    1
    96    89    88    1
    97    89    90    1
    98    86    92   am
    99    90    91    1
   100   137   136    2
   101   144   146    1
   102   144   143    1
   103    92    93    1
   104   143   140    1
   105   136   138   am
   106   136   135    1
   107    93    94    1
   108    93    96    1
   109    95    94    2
   110   128   127    2
   111    99    98   ar
   112    94   101   am
   113   135   132    1
   114   132   133    1
   115   132   131    1
   116   134   133    2
   117   124   123    1
   118   140   139    1
   119   140   141    1
   120   101   102    1
   121   130   129    1
   122   127   131   am
   123   127   126    1
   124    96    97    1
   125   104   103    2
   126    98   100   ar
   127    98    97    1
   128   115   113   ar
   129   102   103    1
   130   102   105    1
   131   123   122    1
   132   129   126    1
   133   103   108   am
   134   141   142    2
   135   112   113    1
   136   112   109    1
   137   113   114   ar
   138   126   125    1
   139   108   109    1
   140   109   110    1
   141   105   106    1
   142   105   107    1
   143   121   122    1
   144   121   120    1
   145   110   111    2
   146   120   117    1
   147   116   117    1
   148   117   118    1
   149   118   119    2
