@<TRIPOS>MOLECULE
tmp/5ngvA00.pdb
 87 83 0 0 0
SMALL
GASTEIGER

@<TRIPOS>ATOM
      1  N         14.5080    8.1590   24.0430 N.3    54  TRP54      -0.1241
      2  CA        13.5080    9.1940   24.3110 C.3    54  TRP54       0.1605
      3  C         13.3030    9.2980   25.8370 C.2    54  TRP54       0.2264
      4  O         13.1500    8.2650   26.5010 O.2    54  TRP54      -0.2867
      5  CB        12.1970    8.8300   23.5520 C.3    54  TRP54       0.0550
      6  CG        11.1260    9.8920   23.5810 C.ar   54  TRP54       0.0003
      7  CD1        9.9420    9.8470   24.2570 C.ar   54  TRP54       0.0946
      8  CD2       11.1610   11.1690   22.9120 C.ar   54  TRP54       0.0152
      9  NE1        9.2210   11.0030   24.0300 N.ar   54  TRP54      -0.2442
     10  CE2        9.9460   11.8290   23.2050 C.ar   54  TRP54       0.0810
     11  CE3       12.0790   11.7900   22.0320 C.ar   54  TRP54       0.0012
     12  CZ2        9.6310   13.0870   22.6760 C.ar   54  TRP54       0.0191
     13  CZ3       11.7720   13.0480   21.5240 C.ar   54  TRP54       0.0001
     14  CH2       10.5580   13.6770   21.8310 C.ar   54  TRP54       0.0015
     15  N          8.4610   10.0970   29.2590 N.3    57  ASP57      -0.1239
     16  CA         7.2910   10.6310   28.5710 C.3    57  ASP57       0.1674
     17  C          6.0760    9.7800   28.9010 C.2    57  ASP57       0.2266
     18  O          6.0130    8.6110   28.5050 O.2    57  ASP57      -0.2867
     19  CB         7.5490   10.6620   27.0670 C.3    57  ASP57       0.1410
     20  CG         6.4140   11.1380   26.1670 C.2    57  ASP57       0.3668
     21  OD1        5.3050   11.4410   26.6940 O.co2  57  ASP57      -0.2456
     22  OD2        6.6230   11.2000   24.9510 O.co2  57  ASP57      -0.2456
     23  N          3.2110    9.5790   27.6480 N.3    59  ASN59      -0.1240
     24  CA         2.6080    8.9450   26.4760 C.3    59  ASN59       0.1653
     25  C          3.1540    7.5370   26.2120 C.2    59  ASN59       0.2266
     26  O          2.4570    6.7430   25.6010 O.2    59  ASN59      -0.2867
     27  CB         2.8720    9.7730   25.2090 C.3    59  ASN59       0.1155
     28  CG         2.1720   11.0970   25.1450 C.2    59  ASN59       0.2627
     29  OD1        1.0530   11.1870   24.6530 O.2    59  ASN59      -0.2716
     30  ND2        2.8800   12.1730   25.4820 N.am   59  ASN59      -0.0877
     31  N          4.1350    0.9980   27.0920 N.3    63  ARG63      -0.1245
     32  CA         3.8290    0.7170   25.6940 C.3    63  ARG63       0.1563
     33  C          4.9320   -0.1490   25.1100 C.2    63  ARG63       0.2260
     34  O          6.0370    0.3490   24.9150 O.2    63  ARG63      -0.2867
     35  CB         3.7610    2.0140   24.8960 C.3    63  ARG63       0.0307
     36  CG         2.5080    2.7980   25.0610 C.3    63  ARG63       0.0489
     37  CD         2.5920    3.9400   24.0850 C.3    63  ARG63       0.2205
     38  NE         1.4050    4.7810   24.1520 N.pl3  63  ARG63      -0.0865
     39  CZ         0.4570    4.8000   23.2290 C.cat  63  ARG63       0.5346
     40  NH1        0.5560    4.0300   22.1510 N.pl3  63  ARG63       0.1354
     41  NH2       -0.5940    5.5970   23.3680 N.pl3  63  ARG63       0.1354
     42  N          3.8070    2.7200   18.2740 N.3    67  VAL67      -0.1245
     43  CA         2.6560    3.0410   17.4300 C.3    67  VAL67       0.1561
     44  C          2.4280    4.5500   17.3970 C.2    67  VAL67       0.2260
     45  O          2.1960    5.1500   18.4450 O.2    67  VAL67      -0.2867
     46  CB         1.3710    2.2960   17.9030 C.3    67  VAL67       0.0252
     47  CG1        0.2130    2.5360   16.9320 C.3    67  VAL67       0.0019
     48  CG2        1.6350    0.7930   18.0600 C.3    67  VAL67       0.0019
     49  N          0.2010    7.6560   16.6810 N.3    69  THR69      -0.1203
     50  CA        -1.2400    7.8980   16.7360 C.3    69  THR69       0.1994
     51  C         -1.6850    9.2140   16.1120 C.2    69  THR69       0.2617
     52  O         -2.8620    9.3150   15.7830 O.2    69  THR69      -0.2717
     53  CB        -1.7540    7.7430   18.1740 C.3    69  THR69       0.1784
     54  OG1       -1.0260    8.6610   19.0040 O.3    69  THR69      -0.2211
     55  CG2       -1.6090    6.3080   18.6910 C.3    69  THR69       0.0376
     56  N         -0.7800   10.2250   15.9860 N.am   70  GLU70      -0.1979
     57  CA        -1.0980   11.5330   15.3720 C.3    70  GLU70       0.1602
     58  C         -1.6940   11.2840   13.9710 C.2    70  GLU70       0.2287
     59  O         -1.1230   10.5300   13.1850 O.2    70  GLU70      -0.2864
     60  CB         0.1470   12.4480   15.3080 C.3    70  GLU70       0.0415
     61  CG        -0.1580   13.9110   14.9980 C.3    70  GLU70       0.1163
     62  CD         1.0080   14.8730   14.8350 C.2    70  GLU70       0.3649
     63  OE1        2.1790   14.4240   14.8310 O.co2  70  GLU70      -0.2457
     64  OE2        0.7420   16.0840   14.6530 O.co2  70  GLU70      -0.2457
     65  N          5.6270    9.8620   14.5750 N.3    77  PHE77      -0.1227
     66  CA         6.5160    9.6490   15.7020 C.3    77  PHE77       0.1736
     67  C          5.8490    8.6880   16.6680 C.2    77  PHE77       0.2596
     68  O          4.6830    8.8470   17.0080 O.2    77  PHE77      -0.2718
     69  CB         6.8790   10.9990   16.3770 C.3    77  PHE77       0.0547
     70  CG         7.7220   10.8830   17.6380 C.ar   77  PHE77      -0.0202
     71  CD1        9.0980   11.0990   17.5980 C.ar   77  PHE77      -0.0042
     72  CD2        7.1260   10.6110   18.8750 C.ar   77  PHE77      -0.0042
     73  CE1        9.8780   10.9880   18.7620 C.ar   77  PHE77      -0.0003
     74  CE2        7.9050   10.4850   20.0390 C.ar   77  PHE77      -0.0003
     75  CZ         9.2740   10.6910   19.9740 C.ar   77  PHE77      -0.0000
     76  N          6.5980    7.7130   17.1460 N.am   78  CYS78      -0.1956
     77  CA         6.0870    6.7950   18.1620 C.3    78  CYS78       0.1843
     78  C          7.1580    6.5990   19.2140 C.2    78  CYS78       0.2625
     79  O          8.3330    6.8150   18.9410 O.2    78  CYS78      -0.2714
     80  CB         5.6730    5.4600   17.5400 C.3    78  CYS78       0.0997
     81  SG         7.0300    4.5220   16.7890 S.3    78  CYS78      -0.0797
     82  N          6.7620    6.1640   20.3930 N.am   79  CYS79      -0.1968
     83  CA         7.7020    5.7860   21.4400 C.3    79  CYS79       0.1712
     84  C          7.2300    4.4670   22.0760 C.2    79  CYS79       0.2296
     85  O          6.0720    4.0590   21.9090 O.2    79  CYS79      -0.2864
     86  CB         7.8770    6.8910   22.4730 C.3    79  CYS79       0.0983
     87  SG         6.3250    7.4190   23.2220 S.3    79  CYS79      -0.0798
@<TRIPOS>BOND
     1    59    58    2
     2    58    57    1
     3    65    66    1
     4    64    62   ar
     5    63    62   ar
     6    62    61    1
     7    61    60    1
     8    60    57    1
     9    57    56    1
    10    66    69    1
    11    66    67    1
    12    52    51    2
    13    56    51   am
    14    51    50    1
    15    69    70    1
    16    67    68    2
    17    67    76   am
    18    49    50    1
    19    50    53    1
    20    81    80    1
    21    47    46    1
    22    76    77    1
    23    44    43    1
    24    44    45    2
    25    43    46    1
    26    43    42    1
    27    80    77    1
    28    71    70   ar
    29    71    73   ar
    30    70    72   ar
    31    46    48    1
    32    77    78    1
    33    53    55    1
    34    53    54    1
    35    73    75   ar
    36    72    74   ar
    37    79    78    2
    38    78    82   am
    39    75    74   ar
    40    82    83    1
    41    83    84    1
    42    83    86    1
    43    13    14   ar
    44    13    11   ar
    45    14    12   ar
    46    85    84    2
    47    11     8   ar
    48    40    39    1
    49    86    87    1
    50    12    10   ar
    51     8    10   ar
    52     8     6   ar
    53    10     9   ar
    54    39    41    1
    55    39    38    2
    56     5     6    1
    57     5     2    1
    58     6     7   ar
    59     9     7   ar
    60     1     2    1
    61    37    38    1
    62    37    36    1
    63     2     3    1
    64    29    28    2
    65    35    36    1
    66    35    32    1
    67    34    33    2
    68    22    20   ar
    69    33    32    1
    70    28    27    1
    71    28    30   am
    72    27    24    1
    73    26    25    2
    74    32    31    1
    75     3     4    2
    76    20    21   ar
    77    20    19    1
    78    25    24    1
    79    24    23    1
    80    19    16    1
    81    18    17    2
    82    16    17    1
    83    16    15    1
