@<TRIPOS>MOLECULE
tmp/5ngzA00.pdb
 127 128 0 0 0
SMALL
GASTEIGER

@<TRIPOS>ATOM
      1  N          4.4620   11.9840   11.0580 N.3    68  ARG68      -0.1231
      2  CA         4.1180   12.0220    9.6400 C.3    68  ARG68       0.1694
      3  C          2.6480   12.4080    9.4390 C.2    68  ARG68       0.2592
      4  O          1.8060   12.1140   10.2970 O.2    68  ARG68      -0.2718
      5  CB         4.4310   10.6760    8.9800 C.3    68  ARG68       0.0321
      6  CG         3.4340    9.5600    9.2530 C.3    68  ARG68       0.0489
      7  CD         3.9870    8.2030    8.8370 C.3    68  ARG68       0.2205
      8  NE         3.1290    7.0840    9.2570 N.pl3  68  ARG68      -0.0865
      9  CZ         2.0160    6.6680    8.6400 C.cat  68  ARG68       0.5346
     10  NH1        1.5600    7.2700    7.5390 N.pl3  68  ARG68       0.1354
     11  NH2        1.3420    5.6300    9.1390 N.pl3  68  ARG68       0.1354
     12  N          2.3600   13.0840    8.3230 N.am   69  PHE69      -0.1962
     13  CA         0.9890   13.5060    7.9870 C.3    69  PHE69       0.1771
     14  C          0.2040   12.2790    7.5370 C.2    69  PHE69       0.2619
     15  O          0.7190   11.4850    6.7570 O.2    69  PHE69      -0.2715
     16  CB         0.9630   14.5480    6.8630 C.3    69  PHE69       0.0574
     17  CG         1.2540   15.9540    7.3150 C.ar   69  PHE69      -0.0200
     18  CD1        0.2310   16.8820    7.4570 C.ar   69  PHE69      -0.0042
     19  CD2        2.5630   16.3640    7.5730 C.ar   69  PHE69      -0.0042
     20  CE1        0.5000   18.1810    7.8630 C.ar   69  PHE69      -0.0003
     21  CE2        2.8420   17.6640    7.9800 C.ar   69  PHE69      -0.0003
     22  CZ         1.8080   18.5810    8.1180 C.ar   69  PHE69      -0.0000
     23  N         -1.0210   12.1220    8.0460 N.am   70  LEU70      -0.1963
     24  CA        -1.9750   11.1260    7.5180 C.3    70  LEU70       0.1728
     25  C         -2.8630   11.7520    6.4420 C.2    70  LEU70       0.2617
     26  O         -3.2240   11.0920    5.4770 O.2    70  LEU70      -0.2715
     27  CB        -2.8140   10.5220    8.6500 C.3    70  LEU70       0.0311
     28  CG        -2.0390    9.7580    9.7340 C.3    70  LEU70       0.0022
     29  CD1       -2.9100    9.3600   10.9120 C.3    70  LEU70       0.0001
     30  CD2       -1.3680    8.5330    9.1520 C.3    70  LEU70       0.0001
     31  N         -3.1960   13.0270    6.6170 N.am   71  THR71      -0.1937
     32  CA        -3.9670   13.8000    5.6510 C.3    71  THR71       0.2013
     33  C         -3.0400   14.3090    4.5480 C.2    71  THR71       0.2484
     34  O         -2.0490   14.9690    4.8580 O.2    71  THR71      -0.2729
     35  CB        -4.5900   15.0350    6.3250 C.3    71  THR71       0.1807
     36  OG1       -5.3070   14.6220    7.4970 O.3    71  THR71      -0.2208
     37  CG2       -5.5180   15.7810    5.3630 C.3    71  THR71       0.0379
     38  N         -3.3580   14.0170    3.2650 N.am   72  PRO72      -0.2715
     39  CA        -2.5140   14.5240    2.1940 C.3    72  PRO72       0.1536
     40  C         -2.3590   16.0400    2.1850 C.2    72  PRO72       0.2598
     41  O         -3.3110   16.7500    2.4880 O.2    72  PRO72      -0.2715
     42  CB        -3.2180   14.0250    0.9260 C.3    72  PRO72       0.0310
     43  CG        -3.8900   12.7600    1.3500 C.3    72  PRO72       0.0237
     44  CD        -4.3320   13.0210    2.7620 C.3    72  PRO72       0.0939
     45  N         -1.1510   16.5010    1.8610 N.am   73  ILE73      -0.1964
     46  CA        -0.8030   17.9180    1.7970 C.3    73  ILE73       0.1727
     47  C          0.2400   18.1670    0.6920 C.2    73  ILE73       0.2616
     48  O          1.1350   17.3560    0.4890 O.2    73  ILE73      -0.2715
     49  CB        -0.2800   18.4360    3.1620 C.3    73  ILE73       0.0290
     50  CG1       -0.0990   19.9620    3.1400 C.3    73  ILE73       0.0022
     51  CG2        1.0240   17.7420    3.5640 C.3    73  ILE73       0.0023
     52  CD1        0.2690   20.5490    4.4860 C.3    73  ILE73       0.0001
     53  N          0.1150   19.3090    0.0130 N.am   74  TYR74      -0.1974
     54  CA         0.9260   19.6610   -1.1510 C.3    74  TYR74       0.1639
     55  C          1.8960   20.7320   -0.6790 C.2    74  TYR74       0.2290
     56  O          1.4820   21.8580   -0.4270 O.2    74  TYR74      -0.2864
     57  CB        -0.0120   20.1790   -2.2570 C.3    74  TYR74       0.0560
     58  CG         0.6150   20.5220   -3.5980 C.ar   74  TYR74      -0.0198
     59  CD1        0.6420   19.5870   -4.6350 C.ar   74  TYR74      -0.0009
     60  CD2        1.1310   21.7990   -3.8500 C.ar   74  TYR74      -0.0009
     61  CE1        1.1930   19.8960   -5.8740 C.ar   74  TYR74       0.0417
     62  CE2        1.6840   22.1190   -5.0840 C.ar   74  TYR74       0.0417
     63  CZ         1.7130   21.1610   -6.0930 C.ar   74  TYR74       0.1957
     64  OH         2.2500   21.4570   -7.3230 O.3    74  TYR74      -0.2866
     65  N          7.2740   18.0450    2.3440 N.3    78  ILE78      -0.1231
     66  CA         6.4750   16.8960    2.8010 C.3    78  ILE78       0.1692
     67  C          6.2170   15.9770    1.6140 C.2    78  ILE78       0.2592
     68  O          5.7820   16.4410    0.5770 O.2    78  ILE78      -0.2718
     69  CB         5.1430   17.3590    3.4250 C.3    78  ILE78       0.0266
     70  CG1        5.4230   18.2520    4.6420 C.3    78  ILE78       0.0019
     71  CG2        4.2800   16.1610    3.8250 C.3    78  ILE78       0.0020
     72  CD1        4.2530   19.0890    5.0850 C.3    78  ILE78       0.0001
     73  N          6.5010   14.6820    1.7520 N.am   79  ASP79      -0.1960
     74  CA         6.3580   13.7660    0.6080 C.3    79  ASP79       0.1840
     75  C          4.9990   13.0850    0.5560 C.2    79  ASP79       0.2623
     76  O          4.1820   13.2600    1.4530 O.2    79  ASP79      -0.2715
     77  CB         7.5580   12.8000    0.4910 C.3    79  ASP79       0.1450
     78  CG         7.5070   11.6000    1.4400 C.2    79  ASP79       0.3671
     79  OD1        6.5200   11.3930    2.1770 O.co2  79  ASP79      -0.2456
     80  OD2        8.5050   10.8390    1.4190 O.co2  79  ASP79      -0.2456
     81  N          4.7840   12.3000   -0.4970 N.am   80  SER80      -0.1936
     82  CA         3.5230   11.5860   -0.7420 C.3    80  SER80       0.2055
     83  C          3.1600   10.5030    0.2870 C.2    80  SER80       0.2643
     84  O          2.0250   10.0330    0.3020 O.2    80  SER80      -0.2714
     85  CB         3.5160   10.9880   -2.1620 C.3    80  SER80       0.2130
     86  OG         4.8060   10.4980   -2.5270 O.3    80  SER80      -0.2179
     87  N          4.1100   10.0970    1.1220 N.am   81  ALA81      -0.1963
     88  CA         3.8380    9.1970    2.2390 C.3    81  ALA81       0.1728
     89  C          3.6800    9.9300    3.5720 C.2    81  ALA81       0.2616
     90  O          3.4980    9.2780    4.6060 O.2    81  ALA81      -0.2715
     91  CB         4.9580    8.1780    2.3550 C.3    81  ALA81       0.0334
     92  N          3.7770   11.2630    3.5640 N.am   82  GLY82      -0.1955
     93  CA         3.6490   12.0700    4.7890 C.3    82  GLY82       0.1869
     94  C          4.9140   12.3780    5.5820 C.2    82  GLY82       0.2309
     95  O          4.8200   12.9770    6.6500 O.2    82  GLY82      -0.2863
     96  N         10.1720   17.1490   -2.2860 N.3   124  MET124     -0.1245
     97  CA         9.4170   17.0780   -3.5260 C.3   124  MET124      0.1570
     98  C          9.9960   18.1330   -4.4610 C.2   124  MET124      0.2261
     99  O          9.7040   19.3290   -4.3150 O.2   124  MET124     -0.2867
    100  CB         7.9330   17.3500   -3.2470 C.3   124  MET124      0.0387
    101  CG         7.3160   16.3860   -2.2600 C.3   124  MET124      0.0595
    102  SD         7.3020   14.6960   -2.8790 S.3   124  MET124     -0.1393
    103  CE         5.8230   14.7450   -3.8810 C.3   124  MET124      0.0692
    104  N         -5.6070   20.9760   -3.4440 N.3   145  TRP145     -0.1241
    105  CA        -5.2670   19.8010   -2.6340 C.3   145  TRP145      0.1605
    106  C         -5.9310   19.8700   -1.2600 C.2   145  TRP145      0.2264
    107  O         -6.4420   18.8590   -0.7700 O.2   145  TRP145     -0.2867
    108  CB        -3.7360   19.5990   -2.5280 C.3   145  TRP145      0.0550
    109  CG        -3.2570   18.7110   -3.6140 C.ar  145  TRP145      0.0003
    110  CD1       -3.2000   19.0080   -4.9470 C.ar  145  TRP145      0.0946
    111  CD2       -2.8400   17.3520   -3.4870 C.ar  145  TRP145      0.0152
    112  NE1       -2.7550   17.9230   -5.6580 N.ar  145  TRP145     -0.2442
    113  CE2       -2.5240   16.8900   -4.7890 C.ar  145  TRP145      0.0810
    114  CE3       -2.6890   16.4810   -2.4030 C.ar  145  TRP145      0.0012
    115  CZ2       -2.0620   15.5950   -5.0370 C.ar  145  TRP145      0.0191
    116  CZ3       -2.2340   15.1890   -2.6500 C.ar  145  TRP145      0.0001
    117  CH2       -1.9280   14.7590   -3.9630 C.ar  145  TRP145      0.0015
    118  N         -8.7760   16.9470    0.0240 N.3   149  HIS149     -0.1241
    119  CA        -8.3720   15.9460    1.0390 C.3   149  HIS149      0.1621
    120  C         -8.5060   16.3610    2.5140 C.2   149  HIS149      0.2264
    121  O         -8.6040   15.4930    3.3800 O.2   149  HIS149     -0.2867
    122  CB        -6.9220   15.5260    0.8090 C.3   149  HIS149      0.0745
    123  CG        -6.6730   14.8770   -0.5140 C.ar  149  HIS149      0.0817
    124  ND1       -6.2810   15.5890   -1.6280 N.ar  149  HIS149     -0.2268
    125  CD2       -6.7220   13.5780   -0.8940 C.ar  149  HIS149      0.1154
    126  CE1       -6.1090   14.7570   -2.6410 C.ar  149  HIS149      0.1986
    127  NE2       -6.3710   13.5310   -2.2220 N.ar  149  HIS149     -0.2212
@<TRIPOS>BOND
     1    64    63    1
     2    63    61   ar
     3    63    62   ar
     4    61    59   ar
     5   112   110   ar
     6   112   113   ar
     7    62    60   ar
     8   115   113   ar
     9   115   117   ar
    10   110   109   ar
    11   113   111   ar
    12    59    58   ar
    13    98    99    2
    14    98    97    1
    15   117   116   ar
    16   103   102    1
    17    60    58   ar
    18   109   111   ar
    19   109   108    1
    20    58    57    1
    21    97   100    1
    22    97    96    1
    23   111   114   ar
    24   104   105    1
    25   100   101    1
    26   102   101    1
    27   116   114   ar
    28   126   127   ar
    29   126   124   ar
    30   105   108    1
    31   105   106    1
    32    86    85    1
    33    57    54    1
    34   127   125   ar
    35    85    82    1
    36   124   123   ar
    37   106   107    2
    38    54    55    1
    39    54    53    1
    40   125   123   ar
    41    82    81    1
    42    82    83    1
    43    55    56    2
    44   123   122    1
    45    81    75   am
    46    53    47   am
    47   118   119    1
    48    83    84    2
    49    83    87   am
    50    48    47    2
    51    77    74    1
    52    77    78    1
    53    75    74    1
    54    75    76    2
    55    68    67    2
    56    74    73    1
    57    47    46    1
    58   122   119    1
    59    42    43    1
    60    42    39    1
    61   119   120    1
    62    87    88    1
    63    43    44    1
    64    80    78   ar
    65    78    79   ar
    66    67    73   am
    67    67    66    1
    68    46    45    1
    69    46    49    1
    70    45    40   am
    71    40    39    1
    72    40    41    2
    73    39    38    1
    74    88    91    1
    75    88    89    1
    76    65    66    1
    77   120   121    2
    78    44    38    1
    79    66    69    1
    80    50    49    1
    81    50    52    1
    82    49    51    1
    83    38    33   am
    84    69    71    1
    85    69    70    1
    86    92    89   am
    87    92    93    1
    88    89    90    2
    89    33    34    2
    90    33    32    1
    91    70    72    1
    92    93    94    1
    93    37    35    1
    94    26    25    2
    95    94    95    2
    96    32    35    1
    97    32    31    1
    98    35    36    1
    99    25    31   am
   100    25    24    1
   101    15    14    2
   102    16    17    1
   103    16    13    1
   104    17    18   ar
   105    17    19   ar
   106    18    20   ar
   107    24    23    1
   108    24    27    1
   109    14    13    1
   110    14    23   am
   111    10     9    1
   112    19    21   ar
   113    20    22   ar
   114    21    22   ar
   115    13    12    1
   116    12     3   am
   117     9    11    1
   118     9     8    2
   119    27    28    1
   120     7     6    1
   121     7     8    1
   122     5     6    1
   123     5     2    1
   124    30    28    1
   125     3     2    1
   126     3     4    2
   127     2     1    1
   128    28    29    1
