@<TRIPOS>MOLECULE
tmp/5nh0B00.pdb
 159 156 0 0 0
SMALL
GASTEIGER

@<TRIPOS>ATOM
      1  N         40.3770   19.5670    6.2090 N.3    25  THR25      -0.1203
      2  CA        41.4360   20.5620    6.0860 C.3    25  THR25       0.1994
      3  C         40.9880   21.6430    5.0830 C.2    25  THR25       0.2618
      4  O         40.5410   21.3320    3.9780 O.2    25  THR25      -0.2717
      5  CB        42.7650   19.9400    5.6190 C.3    25  THR25       0.1784
      6  OG1       43.1580   18.8850    6.5040 O.3    25  THR25      -0.2211
      7  CG2       43.8670   20.9660    5.6010 C.3    25  THR25       0.0376
      8  N         41.1000   22.9100    5.4890 N.am   26  VAL26      -0.1965
      9  CA        40.7950   24.0410    4.6360 C.3    26  VAL26       0.1727
     10  C         42.0040   24.9430    4.4550 C.2    26  VAL26       0.2616
     11  O         42.6780   25.2700    5.4270 O.2    26  VAL26      -0.2715
     12  CB        39.6920   24.9280    5.2770 C.3    26  VAL26       0.0290
     13  CG1       39.2490   26.0220    4.2890 C.3    26  VAL26       0.0023
     14  CG2       38.5030   24.0710    5.6860 C.3    26  VAL26       0.0023
     15  N         42.2480   25.3690    3.2180 N.am   27  LEU27      -0.1977
     16  CA        43.2520   26.3900    2.9610 C.3    27  LEU27       0.1596
     17  C         42.8700   27.1070    1.6910 C.2    27  LEU27       0.2287
     18  O         41.7430   26.9560    1.2170 O.2    27  LEU27      -0.2864
     19  CB        44.6620   25.8030    2.9680 C.3    27  LEU27       0.0297
     20  CG        44.9320   24.4700    2.2630 C.3    27  LEU27       0.0022
     21  CD1       44.6730   24.5520    0.7780 C.3    27  LEU27       0.0001
     22  CD2       46.3860   24.0530    2.5720 C.3    27  LEU27       0.0001
     23  N         49.8890   19.9020    1.1440 N.3    41  HIS41      -0.1241
     24  CA        49.5070   19.3810    2.4470 C.3    41  HIS41       0.1621
     25  C         48.0360   19.4590    2.7940 C.2    41  HIS41       0.2264
     26  O         47.6230   18.9440    3.8480 O.2    41  HIS41      -0.2867
     27  CB        50.3840   19.9380    3.5470 C.3    41  HIS41       0.0745
     28  CG        50.2660   21.4020    3.7510 C.ar   41  HIS41       0.0817
     29  ND1       51.2670   22.2830    3.3750 N.ar   41  HIS41      -0.2268
     30  CD2       49.3230   22.1500    4.3700 C.ar   41  HIS41       0.1154
     31  CE1       50.9530   23.5190    3.7510 C.ar   41  HIS41       0.1986
     32  NE2       49.7740   23.4680    4.3510 N.ar   41  HIS41      -0.2212
     33  N         49.0300   17.2080   10.1320 N.3    47  THR47      -0.1218
     34  CA        50.1480   18.1900   10.0090 C.3    47  THR47       0.1862
     35  C         51.0980   18.1580   11.2610 C.2    47  THR47       0.2287
     36  O         51.9420   19.0310   11.4240 O.2    47  THR47      -0.2866
     37  CB        49.6110   19.6160    9.6290 C.3    47  THR47       0.1770
     38  OG1       48.5310   19.9990   10.5050 O.3    47  THR47      -0.2211
     39  CG2       49.1140   19.6690    8.1170 C.3    47  THR47       0.0375
     40  N         55.0450   13.3440    6.9660 N.3    51  ILE51      -0.1245
     41  CA        53.9650   13.0400    6.0150 C.3    51  ILE51       0.1561
     42  C         54.5150   12.2430    4.8200 C.2    51  ILE51       0.2260
     43  O         55.4920   12.6440    4.1920 O.2    51  ILE51      -0.2867
     44  CB        53.3320   14.3300    5.4330 C.3    51  ILE51       0.0252
     45  CG1       52.7130   15.2130    6.5420 C.3    51  ILE51       0.0019
     46  CG2       52.2780   13.9860    4.3510 C.3    51  ILE51       0.0019
     47  CD1       52.5990   16.6870    6.1590 C.3    51  ILE51       0.0001
     48  N         51.0420   35.9230    9.1790 N.3   139  PHE139     -0.1227
     49  CA        50.1630   34.8670    8.7730 C.3   139  PHE139      0.1736
     50  C         49.7850   34.0260    9.9670 C.2   139  PHE139      0.2595
     51  O         50.6600   33.6760   10.7730 O.2   139  PHE139     -0.2718
     52  CB        50.9270   33.9090    7.8710 C.3   139  PHE139      0.0547
     53  CG        51.4250   34.5040    6.6060 C.ar  139  PHE139     -0.0202
     54  CD1       50.5340   34.9080    5.6260 C.ar  139  PHE139     -0.0042
     55  CD2       52.7620   34.5800    6.3610 C.ar  139  PHE139     -0.0042
     56  CE1       50.9960   35.3740    4.4090 C.ar  139  PHE139     -0.0003
     57  CE2       53.2420   35.1020    5.1530 C.ar  139  PHE139     -0.0003
     58  CZ        52.3320   35.4650    4.1500 C.ar  139  PHE139     -0.0000
     59  N         48.5290   33.6260   10.0780 N.am  140  ILE140     -0.1966
     60  CA        48.1380   32.6460   11.1140 C.3   140  ILE140      0.1727
     61  C         47.4800   31.4430   10.4290 C.2   140  ILE140      0.2616
     62  O         47.4030   31.3720    9.1800 O.2   140  ILE140     -0.2715
     63  CB        47.2260   33.2750   12.2030 C.3   140  ILE140      0.0290
     64  CG1       46.0550   34.0680   11.5880 C.3   140  ILE140      0.0022
     65  CG2       48.0590   34.1830   13.0640 C.3   140  ILE140      0.0023
     66  CD1       44.9880   34.5690   12.5470 C.3   140  ILE140      0.0001
     67  N         47.0050   30.5040   11.2460 N.am  141  ASN141     -0.1958
     68  CA        46.3690   29.2810   10.7890 C.3   141  ASN141      0.1819
     69  C         45.3170   29.6350    9.7700 C.2   141  ASN141      0.2622
     70  O         44.5050   30.4800    9.9970 O.2   141  ASN141     -0.2715
     71  CB        45.7500   28.4920   11.9680 C.3   141  ASN141      0.1195
     72  CG        46.8040   27.8670   12.9150 C.2   141  ASN141      0.2630
     73  OD1       47.9430   27.6340   12.5470 O.2   141  ASN141     -0.2716
     74  ND2       46.4130   27.6400   14.1720 N.am  141  ASN141     -0.0877
     75  N         45.3880   28.9820    8.6280 N.am  142  GLY142     -0.1940
     76  CA        44.5070   29.2010    7.5160 C.3   142  GLY142      0.2014
     77  C         45.0950   29.9560    6.3600 C.2   142  GLY142      0.2639
     78  O         44.4660   29.9740    5.3070 O.2   142  GLY142     -0.2714
     79  N         46.2830   30.5520    6.5410 N.am  143  ALA143     -0.1963
     80  CA        46.8840   31.3870    5.5200 C.3   143  ALA143      0.1728
     81  C         47.5250   30.6160    4.3840 C.2   143  ALA143      0.2616
     82  O         47.8150   31.2020    3.3480 O.2   143  ALA143     -0.2715
     83  CB        47.9260   32.2950    6.1590 C.3   143  ALA143      0.0334
     84  N         47.8230   29.3460    4.5970 N.am  144  CYS144     -0.1968
     85  CA        48.4950   28.5600    3.5560 C.3   144  CYS144      0.1712
     86  C         47.7110   28.6530    2.2380 C.2   144  CYS144      0.2296
     87  O         46.4880   28.6970    2.2040 O.2   144  CYS144     -0.2864
     88  CB        48.7000   27.0960    3.9210 C.3   144  CYS144      0.0983
     89  SG        49.8690   26.9710    5.3220 S.3   144  CYS144     -0.0798
     90  N         51.9810   30.6000    0.0160 N.3   163  HIS163     -0.1226
     91  CA        52.4010   30.4060    1.3550 C.3   163  HIS163      0.1752
     92  C         52.2810   28.9550    1.7850 C.2   163  HIS163      0.2596
     93  O         51.2740   28.3280    1.6190 O.2   163  HIS163     -0.2718
     94  CB        51.6060   31.2680    2.3150 C.3   163  HIS163      0.0759
     95  CG        52.1730   31.2400    3.6780 C.ar  163  HIS163      0.0818
     96  ND1       53.4840   31.5760    3.9090 N.ar  163  HIS163     -0.2268
     97  CD2       51.6500   30.8870    4.8630 C.ar  163  HIS163      0.1154
     98  CE1       53.7430   31.4000    5.1920 C.ar  163  HIS163      0.1986
     99  NE2       52.6460   31.0040    5.7950 N.ar  163  HIS163     -0.2212
    100  N         53.3290   28.4610    2.4240 N.am  164  GLN164     -0.1965
    101  CA        53.4750   27.0360    2.8090 C.3   164  GLN164      0.1733
    102  C         53.7680   26.8620    4.3000 C.2   164  GLN164      0.2616
    103  O         53.1000   26.0330    4.9340 O.2   164  GLN164     -0.2715
    104  CB        54.6190   26.4170    2.0140 C.3   164  GLN164      0.0408
    105  CG        54.3960   26.2870    0.4960 C.3   164  GLN164      0.0908
    106  CD        53.6630   25.0240    0.0810 C.2   164  GLN164      0.2608
    107  OE1       53.2120   24.2780    0.9390 O.2   164  GLN164     -0.2717
    108  NE2       53.4840   24.8240   -1.2390 N.am  164  GLN164     -0.0878
    109  N         54.7300   27.5940    4.8660 N.am  165  ILE165     -0.1963
    110  CA        54.9970   27.3960    6.2740 C.3   165  ILE165      0.1727
    111  C         55.5840   28.5390    7.0290 C.2   165  ILE165      0.2616
    112  O         56.1440   29.4850    6.4640 O.2   165  ILE165     -0.2715
    113  CB        56.0270   26.2640    6.5900 C.3   165  ILE165      0.0290
    114  CG1       57.3100   26.4060    5.8050 C.3   165  ILE165      0.0022
    115  CG2       55.4210   24.9030    6.4800 C.3   165  ILE165      0.0023
    116  CD1       57.4340   25.4600    4.6480 C.3   165  ILE165      0.0001
    117  N         55.4210   28.4160    8.3460 N.am  166  GLU166     -0.1977
    118  CA        56.1010   29.2040    9.3370 C.3   166  GLU166      0.1602
    119  C         57.1170   28.3380   10.0640 C.2   166  GLU166      0.2287
    120  O         56.7670   27.3750   10.7490 O.2   166  GLU166     -0.2864
    121  CB        55.1090   29.7630   10.3480 C.3   166  GLU166      0.0415
    122  CG        55.7320   30.8110   11.2770 C.3   166  GLU166      0.1163
    123  CD        54.7360   31.5770   12.1420 C.2   166  GLU166      0.3649
    124  OE1       53.8730   32.3050   11.5890 O.co2 166  GLU166     -0.2457
    125  OE2       54.8280   31.4880   13.3700 O.co2 166  GLU166     -0.2457
    126  N         58.7580   33.0930    7.3970 N.3   172  HIS172     -0.1241
    127  CA        57.7620   32.5150    6.5010 C.3   172  HIS172      0.1621
    128  C         58.3690   32.0120    5.2010 C.2   172  HIS172      0.2264
    129  O         59.2790   32.6670    4.6270 O.2   172  HIS172     -0.2867
    130  CB        56.6710   33.5410    6.2340 C.3   172  HIS172      0.0745
    131  CG        55.9250   33.8850    7.4890 C.ar  172  HIS172      0.0817
    132  ND1       55.9070   35.1590    8.0280 N.ar  172  HIS172     -0.2268
    133  CD2       55.2150   33.0940    8.3440 C.ar  172  HIS172      0.1154
    134  CE1       55.1900   35.1410    9.1310 C.ar  172  HIS172      0.1986
    135  NE2       54.7830   33.9000    9.3650 N.ar  172  HIS172     -0.2212
    136  N         58.1280   21.0350    3.0880 N.3   187  ASP187     -0.1225
    137  CA        56.7680   21.2640    3.4850 C.3   187  ASP187      0.1805
    138  C         56.2970   20.1740    4.4170 C.2   187  ASP187      0.2598
    139  O         55.3160   19.4820    4.1650 O.2   187  ASP187     -0.2718
    140  CB        55.8880   21.4360    2.2500 C.3   187  ASP187      0.1424
    141  CG        55.8180   20.1800    1.3440 C.2   187  ASP187      0.3668
    142  OD1       56.7800   19.4220    1.1810 O.co2 187  ASP187     -0.2456
    143  OD2       54.7650   20.0420    0.7460 O.co2 187  ASP187     -0.2456
    144  N         57.0100   20.0820    5.5030 N.am  188  GLN188     -0.1966
    145  CA        56.8390   19.0880    6.5470 C.3   188  GLN188      0.1718
    146  C         56.9530   19.7640    7.9090 C.2   188  GLN188      0.2458
    147  O         57.7510   20.6460    8.0670 O.2   188  GLN188     -0.2730
    148  CB        57.9940   18.0590    6.5250 C.3   188  GLN188      0.0407
    149  CG        58.0790   17.1360    5.3110 C.3   188  GLN188      0.0908
    150  CD        57.0800   15.9620    5.3180 C.2   188  GLN188      0.2608
    151  OE1       56.3850   15.7360    6.3130 O.2   188  GLN188     -0.2717
    152  NE2       57.0010   15.2240    4.2170 N.am  188  GLN188     -0.0878
    153  N         56.2220   19.3000    8.9020 N.am  189  PRO189     -0.2727
    154  CA        56.5100   19.8490   10.2750 C.3   189  PRO189      0.1402
    155  C         57.8990   19.4100   10.7000 C.2   189  PRO189      0.2269
    156  O         58.2620   18.2770   10.5120 O.2   189  PRO189     -0.2865
    157  CB        55.4560   19.1720   11.1440 C.3   189  PRO189      0.0296
    158  CG        55.2060   17.8670   10.4410 C.3   189  PRO189      0.0237
    159  CD        55.5020   18.0260    8.9620 C.3   189  PRO189      0.0939
@<TRIPOS>BOND
     1   108   106   am
     2    90    91    1
     3   106   105    1
     4   106   107    2
     5   105   104    1
     6   143   141   ar
     7    21    20    1
     8    23    24    1
     9   142   141   ar
    10    18    17    2
    11   141   140    1
    12    91    92    1
    13    91    94    1
    14    93    92    2
    15    17    16    1
    16    92   100   am
    17   104   101    1
    18    87    86    2
    19    86    85    1
    20   140   137    1
    21    20    22    1
    22    20    19    1
    23    94    95    1
    24   100   101    1
    25    24    25    1
    26    24    27    1
    27    25    26    2
    28   101   102    1
    29    16    19    1
    30    16    15    1
    31   136   137    1
    32    15    10   am
    33    82    81    2
    34    29    31   ar
    35    29    28   ar
    36   137   138    1
    37    27    28    1
    38    85    88    1
    39    85    84    1
    40    95    96   ar
    41    95    97   ar
    42    31    32   ar
    43    28    30   ar
    44    96    98   ar
    45    88    89    1
    46     4     3    2
    47    58    56   ar
    48    58    57   ar
    49   139   138    2
    50    43    42    2
    51   152   150   am
    52    13    12    1
    53   102   109   am
    54   102   103    2
    55    32    30   ar
    56    46    44    1
    57    81    84   am
    58    81    80    1
    59    56    54   ar
    60   138   144   am
    61    10     9    1
    62    10    11    2
    63   129   128    2
    64     9    12    1
    65     9     8    1
    66   116   114    1
    67    42    41    1
    68    97    99   ar
    69   109   110    1
    70     3     8   am
    71     3     2    1
    72    57    55   ar
    73    98    99   ar
    74   128   127    1
    75    12    14    1
    76    78    77    2
    77   149   150    1
    78   149   148    1
    79   150   151    2
    80    44    41    1
    81    44    45    1
    82   144   145    1
    83    80    83    1
    84    80    79    1
    85     7     5    1
    86     5     2    1
    87     5     6    1
    88    54    53   ar
    89   114   113    1
    90    41    40    1
    91     2     1    1
    92    47    45    1
    93   130   127    1
    94   130   131    1
    95   110   113    1
    96   110   111    1
    97    77    79   am
    98    77    76    1
    99    55    53   ar
   100   112   111    2
   101   115   113    1
   102   127   126    1
   103   148   145    1
   104   145   146    1
   105    53    52    1
   106   111   117   am
   107   131   132   ar
   108   131   133   ar
   109    76    75    1
   110    52    49    1
   111   146   147    2
   112   146   153   am
   113   132   134   ar
   114    39    37    1
   115   133   135   ar
   116   117   118    1
   117    75    69   am
   118    49    48    1
   119    49    50    1
   120   153   159    1
   121   153   154    1
   122   159   158    1
   123   134   135   ar
   124    62    61    2
   125   118   119    1
   126   118   121    1
   127    37    34    1
   128    37    38    1
   129    69    70    2
   130    69    68    1
   131    50    59   am
   132    50    51    2
   133    34    33    1
   134    34    35    1
   135   119   120    2
   136    59    60    1
   137   154   155    1
   138   154   157    1
   139   121   122    1
   140    61    60    1
   141    61    67   am
   142   158   157    1
   143   156   155    2
   144    68    67    1
   145    68    71    1
   146    60    63    1
   147    35    36    2
   148   122   123    1
   149    64    63    1
   150    64    66    1
   151   124   123   ar
   152    71    72    1
   153   123   125   ar
   154    63    65    1
   155    73    72    2
   156    72    74   am
