@<TRIPOS>MOLECULE
tmp/5nhfA00.pdb
 193 184 0 0 0
SMALL
GASTEIGER

@<TRIPOS>ATOM
      1  N        -19.0920   20.0100   38.8630 N.3    20  ILE20      -0.1231
      2  CA       -18.7900   19.2550   40.0750 C.3    20  ILE20       0.1692
      3  C        -17.4510   19.6000   40.7290 C.2    20  ILE20       0.2593
      4  O        -17.3920   19.8910   41.9160 O.2    20  ILE20      -0.2718
      5  CB       -18.8140   17.7370   39.8150 C.3    20  ILE20       0.0266
      6  CG1      -20.2460   17.2300   39.7070 C.3    20  ILE20       0.0019
      7  CG2      -18.1120   16.9910   40.9360 C.3    20  ILE20       0.0020
      8  CD1      -20.3430   15.7260   39.8190 C.3    20  ILE20       0.0001
      9  N        -16.3770   19.5530   39.9500 N.am   21  GLY21      -0.1942
     10  CA       -15.0470   19.8120   40.4670 C.3    21  GLY21       0.2014
     11  C        -14.0410   20.1740   39.3950 C.2    21  GLY21       0.2639
     12  O        -14.3430   20.0980   38.2090 O.2    21  GLY21      -0.2714
     13  N        -12.8610   20.5970   39.8300 N.am   22  GLU22      -0.1963
     14  CA       -11.8230   21.0270   38.9130 C.3    22  GLU22       0.1733
     15  C        -10.4630   20.4170   39.1970 C.2    22  GLU22       0.2617
     16  O        -10.1720   19.9670   40.3000 O.2    22  GLU22      -0.2715
     17  CB       -11.7150   22.5530   38.9120 C.3    22  GLU22       0.0429
     18  CG       -11.2210   23.1750   40.1370 C.3    22  GLU22       0.1163
     19  CD       -11.1600   24.7760   40.0750 C.2    22  GLU22       0.3649
     20  OE1      -11.3570   25.3110   39.0270 O.co2  22  GLU22      -0.2457
     21  OE2      -10.9330   25.1940   41.1220 O.co2  22  GLU22      -0.2457
     22  N         -9.6480   20.4050   38.1540 N.am   23  GLY23      -0.1940
     23  CA        -8.2930   19.8870   38.1670 C.3    23  GLY23       0.2014
     24  C         -7.3640   20.8520   37.4470 C.2    23  GLY23       0.2639
     25  O         -7.8070   21.7570   36.7370 O.2    23  GLY23      -0.2714
     26  N         -6.0670   20.6730   37.6640 N.am   24  ALA24      -0.1963
     27  CA        -5.0630   21.5190   37.0380 C.3    24  ALA24       0.1728
     28  C         -5.2510   21.5070   35.5340 C.2    24  ALA24       0.2616
     29  O         -5.3480   22.5540   34.8980 O.2    24  ALA24      -0.2715
     30  CB        -3.6660   21.0420   37.3980 C.3    24  ALA24       0.0334
     31  N         -5.3080   20.3070   34.9720 N.am   25  TYR25      -0.1960
     32  CA        -5.4900   20.1490   33.5390 C.3    25  TYR25       0.1774
     33  C         -6.9030   19.7480   33.1400 C.2    25  TYR25       0.2659
     34  O         -7.1200   19.3170   32.0120 O.2    25  TYR25      -0.2711
     35  CB        -4.4680   19.1820   32.9440 C.3    25  TYR25       0.0574
     36  CG        -4.2800   17.8880   33.6990 C.ar   25  TYR25      -0.0198
     37  CD1       -3.9570   17.8780   35.0460 C.ar   25  TYR25      -0.0009
     38  CD2       -4.4040   16.6740   33.0510 C.ar   25  TYR25      -0.0009
     39  CE1       -3.7740   16.6890   35.7250 C.ar   25  TYR25       0.0417
     40  CE2       -4.2220   15.4820   33.7170 C.ar   25  TYR25       0.0417
     41  CZ        -3.9080   15.4940   35.0520 C.ar   25  TYR25       0.1957
     42  OH        -3.7310   14.2990   35.7020 O.3    25  TYR25      -0.2866
     43  N         -7.8560   19.8480   34.0610 N.am   26  GLY26      -0.1716
     44  CA        -9.2090   19.4730   33.7080 C.2    26  GLY26       0.1480
     45  C        -10.4470   19.8700   34.4920 C.2    26  GLY26       0.2820
     46  O        -10.3240   20.5480   35.5050 O.2    26  GLY26      -0.2669
     47  N        -11.6580   19.4760   34.0320 N.am   27  MET27      -0.1928
     48  CA       -12.8540   19.8660   34.7700 C.3    27  MET27       0.1739
     49  C        -13.7840   18.6670   34.9640 C.2    27  MET27       0.2616
     50  O        -13.8690   17.7950   34.1070 O.2    27  MET27      -0.2715
     51  CB       -13.5990   20.9980   34.0710 C.3    27  MET27       0.0427
     52  CG       -14.7240   21.5640   34.9170 C.3    27  MET27       0.0599
     53  SD       -15.8310   22.6600   34.0200 S.3    27  MET27      -0.1393
     54  CE       -14.8950   24.1860   34.0940 C.3    27  MET27       0.0692
     55  N        -14.4800   18.6320   36.0950 N.am   28  VAL28      -0.1977
     56  CA       -15.3750   17.5350   36.4120 C.3    28  VAL28       0.1596
     57  C        -16.8180   18.0090   36.4920 C.2    28  VAL28       0.2287
     58  O        -17.1410   18.9340   37.2340 O.2    28  VAL28      -0.2864
     59  CB       -14.9930   16.7610   37.6840 C.3    28  VAL28       0.0276
     60  CG1      -16.0080   15.6670   37.9660 C.3    28  VAL28       0.0022
     61  CG2      -13.6080   16.1650   37.5240 C.3    28  VAL28       0.0022
     62  N        -20.7080   11.0850   36.4680 N.3    41  ALA41      -0.1245
     63  CA       -19.6710   12.1000   36.5400 C.3    41  ALA41       0.1562
     64  C        -18.7680   12.0270   35.3160 C.2    41  ALA41       0.2260
     65  O        -18.2730   10.9600   34.9710 O.2    41  ALA41      -0.2867
     66  CB       -18.8560   11.9350   37.8110 C.3    41  ALA41       0.0290
     67  N        -15.3710   13.6390   33.4070 N.3    43  LYS43      -0.1245
     68  CA       -14.1480   14.3740   33.6530 C.3    43  LYS43       0.1561
     69  C        -13.4470   14.7450   32.3510 C.2    43  LYS43       0.2260
     70  O        -12.8390   13.9000   31.7010 O.2    43  LYS43      -0.2867
     71  CB       -13.2250   13.5390   34.5370 C.3    43  LYS43       0.0271
     72  CG       -11.8500   14.1310   34.7700 C.3    43  LYS43       0.0035
     73  CD       -11.1430   13.3970   35.8950 C.3    43  LYS43       0.0206
     74  CE        -9.8550   12.7560   35.4180 C.3    43  LYS43       0.1093
     75  NZ        -8.9160   12.5040   36.5440 N.3    43  LYS43      -0.1314
     76  N        -10.5140   16.0720   30.3450 N.3    45  ILE45      -0.1245
     77  CA        -9.0850   16.2130   30.5540 C.3    45  ILE45       0.1561
     78  C         -8.3720   16.7850   29.3400 C.2    45  ILE45       0.2260
     79  O         -8.4460   16.2210   28.2530 O.2    45  ILE45      -0.2867
     80  CB        -8.4520   14.8510   30.8830 C.3    45  ILE45       0.0252
     81  CG1       -8.9690   14.3330   32.2230 C.3    45  ILE45       0.0019
     82  CG2       -6.9390   14.9560   30.9140 C.3    45  ILE45       0.0019
     83  CD1       -8.6040   12.8930   32.4960 C.3    45  ILE45       0.0001
     84  N        -12.6440    3.9020   42.4230 N.3    73  ILE73      -0.1245
     85  CA       -13.3600    4.4900   41.2980 C.3    73  ILE73       0.1561
     86  C        -13.0650    3.7390   40.0000 C.2    73  ILE73       0.2260
     87  O        -11.9260    3.3870   39.7180 O.2    73  ILE73      -0.2867
     88  CB       -13.0620    5.9980   41.1380 C.3    73  ILE73       0.0252
     89  CG1      -14.1000    6.6540   40.2320 C.3    73  ILE73       0.0019
     90  CG2      -11.6690    6.2290   40.5770 C.3    73  ILE73       0.0019
     91  CD1      -15.5190    6.5840   40.7500 C.3    73  ILE73       0.0001
     92  N        -17.5500    8.3240   34.8180 N.3    94  GLN94      -0.1231
     93  CA       -17.4550    7.5660   36.0530 C.3    94  GLN94       0.1698
     94  C        -18.7490    7.6600   36.8460 C.2    94  GLN94       0.2592
     95  O        -19.6030    8.4900   36.5600 O.2    94  GLN94      -0.2718
     96  CB       -16.2800    8.0640   36.8900 C.3    94  GLN94       0.0381
     97  CG       -14.9280    7.8530   36.2260 C.3    94  GLN94       0.0905
     98  CD       -13.7760    8.4260   37.0270 C.2    94  GLN94       0.2608
     99  OE1      -13.9050    9.4610   37.6760 O.2    94  GLN94      -0.2717
    100  NE2      -12.6400    7.7480   36.9840 N.am   94  GLN94      -0.0878
    101  N        -18.8910    6.7890   37.8370 N.am   95  ASP95      -0.1960
    102  CA       -20.0650    6.7970   38.6970 C.3    95  ASP95       0.1840
    103  C        -20.1510    8.1130   39.4450 C.2    95  ASP95       0.2622
    104  O        -19.1550    8.6120   39.9520 O.2    95  ASP95      -0.2715
    105  CB       -19.9980    5.6530   39.7050 C.3    95  ASP95       0.1450
    106  CG       -20.2960    4.3100   39.0870 C.2    95  ASP95       0.3671
    107  OD1      -20.7910    4.2720   37.9480 O.co2  95  ASP95      -0.2456
    108  OD2      -20.0340    3.2880   39.7480 O.co2  95  ASP95      -0.2456
    109  N        -21.3460    8.6770   39.5130 N.am   96  LEU96      -0.1963
    110  CA       -21.5330    9.9140   40.2420 C.3    96  LEU96       0.1728
    111  C        -21.5690    9.6470   41.7440 C.2    96  LEU96       0.2616
    112  O        -22.3340    8.8180   42.2180 O.2    96  LEU96      -0.2715
    113  CB       -22.8050   10.6300   39.7840 C.3    96  LEU96       0.0311
    114  CG       -23.1360   11.9300   40.5170 C.3    96  LEU96       0.0022
    115  CD1      -22.0760   12.9840   40.2540 C.3    96  LEU96       0.0001
    116  CD2      -24.5180   12.4420   40.1500 C.3    96  LEU96       0.0001
    117  N        -20.7340   10.3600   42.4890 N.am   97  MET97      -0.1963
    118  CA       -20.7240   10.2380   43.9390 C.3    97  MET97       0.1736
    119  C        -21.3210   11.4890   44.5730 C.2    97  MET97       0.2616
    120  O        -21.2760   12.5640   43.9920 O.2    97  MET97      -0.2715
    121  CB       -19.3030    9.9900   44.4560 C.3    97  MET97       0.0427
    122  CG       -18.6220    8.7670   43.8600 C.3    97  MET97       0.0599
    123  SD       -19.3610    7.2060   44.3810 S.3    97  MET97      -0.1393
    124  CE       -18.4860    6.9030   45.9090 C.3    97  MET97       0.0692
    125  N        -21.8860   11.3410   45.7640 N.am   98  GLU98      -0.1963
    126  CA       -22.5270   12.4590   46.4520 C.3    98  GLU98       0.1733
    127  C        -21.5600   13.5310   46.9660 C.2    98  GLU98       0.2617
    128  O        -21.8480   14.7150   46.8840 O.2    98  GLU98      -0.2715
    129  CB       -23.4030   11.9480   47.5960 C.3    98  GLU98       0.0429
    130  CG       -24.0260   12.9950   48.4810 C.3    98  GLU98       0.1163
    131  CD       -25.0320   13.9000   47.8000 C.2    98  GLU98       0.3649
    132  OE1      -25.6370   13.5110   46.7850 O.co2  98  GLU98      -0.2457
    133  OE2      -25.2410   15.0390   48.2840 O.co2  98  GLU98      -0.2457
    134  N        -20.4230   13.1150   47.5070 N.am   99  THR99      -0.1937
    135  CA       -19.4790   14.0610   48.0840 C.3    99  THR99       0.2028
    136  C        -18.1030   13.4340   48.2620 C.2    99  THR99       0.2642
    137  O        -17.8810   12.2980   47.8750 O.2    99  THR99      -0.2714
    138  CB       -19.9880   14.6060   49.4390 C.3    99  THR99       0.1808
    139  OG1      -19.1890   15.7190   49.8490 O.3    99  THR99      -0.2208
    140  CG2      -19.9360   13.5340   50.5120 C.3    99  THR99       0.0379
    141  N        -17.1760   14.1920   48.8310 N.am  100  ASP100     -0.1971
    142  CA       -15.8790   13.6460   49.1980 C.3   100  ASP100      0.1709
    143  C        -15.6360   13.8590   50.6810 C.2   100  ASP100      0.2293
    144  O        -16.3170   14.6570   51.3190 O.2   100  ASP100     -0.2864
    145  CB       -14.7450   14.2260   48.3490 C.3   100  ASP100      0.1436
    146  CG       -14.5850   15.7220   48.5180 C.2   100  ASP100      0.3671
    147  OD1      -13.9090   16.1470   49.4680 O.co2 100  ASP100     -0.2456
    148  OD2      -15.1160   16.4780   47.6810 O.co2 100  ASP100     -0.2456
    149  N        -14.8780   17.5490   51.9160 N.3   103  LYS103     -0.1245
    150  CA       -16.0530   18.3770   52.1320 C.3   103  LYS103      0.1561
    151  C        -16.7870   17.9420   53.3880 C.2   103  LYS103      0.2260
    152  O        -17.1690   18.7620   54.2130 O.2   103  LYS103     -0.2867
    153  CB       -16.9970   18.2920   50.9360 C.3   103  LYS103      0.0271
    154  CG       -16.3800   18.8280   49.6660 C.3   103  LYS103      0.0035
    155  CD       -17.4110   19.1660   48.6060 C.3   103  LYS103      0.0206
    156  CE       -16.7770   20.0080   47.5010 C.3   103  LYS103      0.1093
    157  NZ       -16.2410   21.3030   48.0250 N.3   103  LYS103     -0.1314
    158  N         -9.7000   14.5410   50.0840 N.3   142  SER142     -0.1202
    159  CA       -10.2600   14.9810   48.8130 C.3   142  SER142      0.2020
    160  C        -10.3020   13.8720   47.7520 C.2   142  SER142      0.2618
    161  O        -11.0640   13.9460   46.7960 O.2   142  SER142     -0.2717
    162  CB        -9.5000   16.2030   48.2960 C.3   142  SER142      0.2103
    163  OG        -8.3860   15.8240   47.5160 O.3   142  SER142     -0.2182
    164  N         -9.4860   12.8420   47.9390 N.am  143  ASN143     -0.1974
    165  CA        -9.4180   11.7340   46.9940 C.3   143  ASN143      0.1688
    166  C        -10.2580   10.5370   47.4210 C.2   143  ASN143      0.2292
    167  O        -10.1450    9.4580   46.8570 O.2   143  ASN143     -0.2864
    168  CB        -7.9640   11.3240   46.7590 C.3   143  ASN143      0.1181
    169  CG        -7.2160   12.3140   45.8850 C.2   143  ASN143      0.2629
    170  OD1       -7.8180   13.0430   45.1020 O.2   143  ASN143     -0.2716
    171  ND2       -5.9000   12.3510   46.0240 N.am  143  ASN143     -0.0877
    172  N        -14.1330    9.4420   47.7550 N.3   145  LEU145     -0.1245
    173  CA       -15.4940    9.8060   47.3990 C.3   145  LEU145      0.1561
    174  C        -16.5450    8.9740   48.1150 C.2   145  LEU145      0.2260
    175  O        -16.3330    7.8040   48.4210 O.2   145  LEU145     -0.2867
    176  CB       -15.6900    9.7160   45.8950 C.3   145  LEU145      0.0270
    177  CG       -14.7350   10.5600   45.0610 C.3   145  LEU145      0.0019
    178  CD1      -14.7220   10.0690   43.6250 C.3   145  LEU145      0.0001
    179  CD2      -15.1330   12.0170   45.1230 C.3   145  LEU145      0.0001
    180  N        -10.0150    7.5150   44.4270 N.3   154  CYS154     -0.1221
    181  CA        -9.7960    8.0910   43.1010 C.3   154  CYS154      0.1808
    182  C         -8.4370    8.7860   43.0070 C.2   154  CYS154      0.2601
    183  O         -7.6650    8.7520   43.9560 O.2   154  CYS154     -0.2717
    184  CB       -10.9290    9.0490   42.7260 C.3   154  CYS154      0.0970
    185  SG       -11.0170   10.5630   43.7010 S.3   154  CYS154     -0.0800
    186  N         -8.1610    9.3960   41.8520 N.am  155  ASP155     -0.1973
    187  CA        -6.9020   10.1150   41.5830 C.3   155  ASP155      0.1709
    188  C         -5.5900    9.3220   41.6550 C.2   155  ASP155      0.2293
    189  O         -4.8020    9.4790   42.5770 O.2   155  ASP155     -0.2864
    190  CB        -6.8000   11.4180   42.3880 C.3   155  ASP155      0.1436
    191  CG        -5.9500   12.4620   41.6960 C.2   155  ASP155      0.3671
    192  OD1       -5.5640   12.2440   40.5280 O.co2 155  ASP155     -0.2456
    193  OD2       -5.6650   13.5010   42.3230 O.co2 155  ASP155     -0.2456
@<TRIPOS>BOND
     1    79    78    2
     2    78    77    1
     3    76    77    1
     4    77    80    1
     5    80    82    1
     6    80    81    1
     7    70    69    2
     8    34    33    2
     9    81    83    1
    10    69    68    1
    11    35    32    1
    12    35    36    1
    13    38    36   ar
    14    38    40   ar
    15    33    32    1
    16    33    43    1
    17    67    68    1
    18    32    31    1
    19    68    71    1
    20    36    37   ar
    21    44    43    2
    22    44    45    1
    23    40    41   ar
    24    53    54    1
    25    53    52    1
    26    47    45   am
    27    47    48    1
    28    51    48    1
    29    51    52    1
    30    50    49    2
    31    45    46    2
    32    71    72    1
    33    48    49    1
    34    72    73    1
    35    92    93    1
    36    29    28    2
    37    49    55   am
    38    65    64    2
    39    31    28   am
    40    37    39   ar
    41    41    42    1
    42    41    39   ar
    43    64    63    1
    44    74    73    1
    45    74    75    1
    46    28    27    1
    47    93    94    1
    48    93    96    1
    49    55    56    1
    50    97    96    1
    51    97    98    1
    52    56    57    1
    53    56    59    1
    54    62    63    1
    55    57    58    2
    56    63    66    1
    57    95    94    2
    58    25    24    2
    59    94   101   am
    60   100    98   am
    61    98    99    2
    62    27    30    1
    63    27    26    1
    64    24    26   am
    65    24    23    1
    66    61    59    1
    67    59    60    1
    68   101   102    1
    69   107   106   ar
    70    22    23    1
    71    22    15   am
    72    12    11    2
    73   102   103    1
    74   102   105    1
    75     1     2    1
    76    17    14    1
    77    17    18    1
    78    14    15    1
    79    14    13    1
    80    20    19   ar
    81   106   105    1
    82   106   108   ar
    83    15    16    2
    84    11    13   am
    85    11    10    1
    86   103   109   am
    87   103   104    2
    88   109   110    1
    89     6     5    1
    90     6     8    1
    91    87    86    2
    92   113   110    1
    93   113   114    1
    94     5     2    1
    95     5     7    1
    96     9    10    1
    97     9     3   am
    98    86    85    1
    99    19    18    1
   100    19    21   ar
   101     2     3    1
   102   116   114    1
   103    89    91    1
   104    89    88    1
   105   110   111    1
   106   115   114    1
   107   192   191   ar
   108    90    88    1
   109     3     4    2
   110    88    85    1
   111    85    84    1
   112   187   188    1
   113   187   186    1
   114   187   190    1
   115   188   189    2
   116   191   193   ar
   117   191   190    1
   118   111   112    2
   119   111   117   am
   120   186   182   am
   121   117   118    1
   122   184   181    1
   123   184   185    1
   124   182   181    1
   125   182   183    2
   126   181   180    1
   127   178   177    1
   128   122   123    1
   129   122   121    1
   130   118   121    1
   131   118   119    1
   132   120   119    2
   133   123   124    1
   134   119   125   am
   135   177   179    1
   136   177   176    1
   137   170   169    2
   138   125   126    1
   139   169   171   am
   140   169   168    1
   141   176   173    1
   142   126   127    1
   143   126   129    1
   144   168   165    1
   145   132   131   ar
   146   161   160    2
   147   167   166    2
   148   128   127    2
   149   127   134   am
   150   165   166    1
   151   165   164    1
   152   173   172    1
   153   173   174    1
   154   156   157    1
   155   156   155    1
   156   134   135    1
   157   163   162    1
   158   129   130    1
   159   148   146   ar
   160   160   164   am
   161   160   159    1
   162   131   133   ar
   163   131   130    1
   164   137   136    2
   165   135   136    1
   166   135   138    1
   167   174   175    2
   168   136   141   am
   169   162   159    1
   170   145   146    1
   171   145   142    1
   172   146   147   ar
   173   155   154    1
   174   159   158    1
   175   141   142    1
   176   142   143    1
   177   138   139    1
   178   138   140    1
   179   154   153    1
   180   143   144    2
   181   153   150    1
   182   149   150    1
   183   150   151    1
   184   151   152    2
