@<TRIPOS>MOLECULE
tmp/5nhgC02.pdb
 106 103 0 0 0
SMALL
GASTEIGER

@<TRIPOS>ATOM
      1  N         -9.2020   49.3800  -61.9960 N.3   214  VAL214     -0.1231
      2  CA        -9.6810   50.3690  -61.0400 C.3   214  VAL214      0.1692
      3  C         -9.5770   51.7710  -61.6300 C.2   214  VAL214      0.2592
      4  O         -8.6100   52.1130  -62.3200 O.2   214  VAL214     -0.2718
      5  CB        -8.8880   50.2390  -59.7250 C.3   214  VAL214      0.0266
      6  CG1       -7.3640   50.3480  -59.9820 C.3   214  VAL214      0.0020
      7  CG2       -9.3570   51.2640  -58.7040 C.3   214  VAL214      0.0020
      8  N        -10.5760   52.5980  -61.3480 N.am  215  GLY215     -0.1957
      9  CA       -10.5540   53.9830  -61.7640 C.3   215  GLY215      0.1869
     10  C        -11.0770   54.2470  -63.1590 C.2   215  GLY215      0.2309
     11  O        -11.3040   55.4120  -63.5070 O.2   215  GLY215     -0.2863
     12  N         -0.7910   54.7850  -58.4190 N.3   323  PRO323     -0.2116
     13  CA        -0.9230   53.8460  -59.5370 C.3   323  PRO323      0.1372
     14  C          0.3830   53.1160  -59.8230 C.2   323  PRO323      0.2244
     15  O          1.4580   53.7210  -59.8860 O.2   323  PRO323     -0.2868
     16  CB        -1.3390   54.7500  -60.7030 C.3   323  PRO323      0.0268
     17  CG        -2.0250   55.9030  -60.0350 C.3   323  PRO323      0.0207
     18  CD        -1.2090   56.1440  -58.8020 C.3   323  PRO323      0.0892
     19  N          2.2790   52.0830  -62.2040 N.3   325  LEU325     -0.1245
     20  CA         2.5770   52.2970  -63.6090 C.3   325  LEU325      0.1561
     21  C          4.0120   52.7750  -63.7730 C.2   325  LEU325      0.2260
     22  O          4.6290   53.3070  -62.8480 O.2   325  LEU325     -0.2867
     23  CB         1.6070   53.2980  -64.2240 C.3   325  LEU325      0.0270
     24  CG         0.1450   52.8670  -64.1350 C.3   325  LEU325      0.0019
     25  CD1       -0.7930   54.0340  -64.4640 C.3   325  LEU325      0.0001
     26  CD2       -0.1100   51.6830  -65.0560 C.3   325  LEU325      0.0001
     27  N         -1.3110   62.5660  -58.4440 N.3   349  TYR349     -0.1227
     28  CA        -1.6440   61.3010  -59.0860 C.3   349  TYR349      0.1736
     29  C         -2.8950   61.4360  -59.9470 C.2   349  TYR349      0.2595
     30  O         -3.1660   60.5570  -60.7710 O.2   349  TYR349     -0.2718
     31  CB        -1.7930   60.2210  -58.0030 C.3   349  TYR349      0.0548
     32  CG        -0.4800   59.9660  -57.2890 C.ar  349  TYR349     -0.0200
     33  CD1        0.6830   59.7030  -58.0040 C.ar  349  TYR349     -0.0009
     34  CD2       -0.3880   60.0690  -55.9070 C.ar  349  TYR349     -0.0009
     35  CE1        1.8840   59.5070  -57.3620 C.ar  349  TYR349      0.0417
     36  CE2        0.8110   59.8750  -55.2560 C.ar  349  TYR349      0.0417
     37  CZ         1.9450   59.5980  -55.9870 C.ar  349  TYR349      0.1957
     38  OH         3.1460   59.4070  -55.3380 O.3   349  TYR349     -0.2866
     39  N         -3.6440   62.5320  -59.7860 N.am  350  ASN350     -0.1974
     40  CA        -4.7790   62.8110  -60.6560 C.3   350  ASN350      0.1688
     41  C         -4.3450   63.0570  -62.0920 C.2   350  ASN350      0.2292
     42  O         -5.1170   62.8060  -63.0220 O.2   350  ASN350     -0.2864
     43  CB        -5.5400   64.0320  -60.1450 C.3   350  ASN350      0.1181
     44  CG        -6.7960   64.3040  -60.9430 C.2   350  ASN350      0.2629
     45  OD1       -7.6860   63.4580  -61.0300 O.2   350  ASN350     -0.2716
     46  ND2       -6.8560   65.4800  -61.5680 N.am  350  ASN350     -0.0877
     47  N         -1.8450   61.5310  -63.5590 N.3   352  VAL352     -0.1231
     48  CA        -1.1510   60.3020  -64.0880 C.3   352  VAL352      0.1678
     49  C         -2.0850   59.6450  -65.0240 C.2   352  VAL352      0.2434
     50  O         -3.1860   59.2020  -64.6410 O.2   352  VAL352     -0.2733
     51  CB        -0.7720   59.3700  -62.9310 C.3   352  VAL352      0.0265
     52  CG1       -0.2450   58.0570  -63.5010 C.3   352  VAL352      0.0020
     53  CG2        0.2550   60.0010  -62.0220 C.3   352  VAL352      0.0020
     54  N         -1.7640   59.5280  -66.3210 N.am  353  PRO353     -0.2718
     55  CA        -2.6530   58.8640  -67.2600 C.3   353  PRO353      0.1535
     56  C         -2.5630   57.3500  -67.1600 C.2   353  PRO353      0.2599
     57  O         -1.5970   56.7880  -66.6460 O.2   353  PRO353     -0.2715
     58  CB        -2.1570   59.3550  -68.6190 C.3   353  PRO353      0.0310
     59  CG        -0.7250   59.6150  -68.4030 C.3   353  PRO353      0.0237
     60  CD        -0.6090   60.1470  -67.0040 C.3   353  PRO353      0.0939
     61  N         -3.6140   56.6990  -67.6570 N.am  354  SER354     -0.1950
     62  CA        -3.6830   55.2510  -67.7780 C.3   354  SER354      0.1924
     63  C         -3.9830   54.9070  -69.2200 C.2   354  SER354      0.2314
     64  O         -4.7840   55.5840  -69.8700 O.2   354  SER354     -0.2863
     65  CB        -4.7600   54.6260  -66.9010 C.3   354  SER354      0.2116
     66  OG        -4.6040   54.9610  -65.5420 O.3   354  SER354     -0.2180
     67  N         -7.1380   57.3470  -70.3470 N.3   364  TRP364     -0.1227
     68  CA        -7.8230   58.3840  -69.5960 C.3   364  TRP364      0.1737
     69  C         -6.8640   59.0600  -68.6320 C.2   364  TRP364      0.2595
     70  O         -5.8160   58.5190  -68.2660 O.2   364  TRP364     -0.2718
     71  CB        -9.0390   57.8130  -68.8670 C.3   364  TRP364      0.0564
     72  CG        -8.7340   56.7990  -67.8220 C.ar  364  TRP364      0.0003
     73  CD1       -8.5950   57.0230  -66.5020 C.ar  364  TRP364      0.0946
     74  CD2       -8.5610   55.3830  -68.0120 C.ar  364  TRP364      0.0152
     75  NE1       -8.3440   55.8470  -65.8430 N.ar  364  TRP364     -0.2442
     76  CE2       -8.3130   54.8230  -66.7490 C.ar  364  TRP364      0.0810
     77  CE3       -8.5840   54.5420  -69.1270 C.ar  364  TRP364      0.0012
     78  CZ2       -8.0850   53.4560  -66.5620 C.ar  364  TRP364      0.0191
     79  CZ3       -8.3580   53.1770  -68.9420 C.ar  364  TRP364      0.0001
     80  CH2       -8.1100   52.6530  -67.6710 C.ar  364  TRP364      0.0015
     81  N         -7.2230   60.2850  -68.2670 N.am  365  VAL365     -0.1966
     82  CA        -6.4790   61.0520  -67.2810 C.3   365  VAL365      0.1727
     83  C         -7.4500   61.9970  -66.5860 C.2   365  VAL365      0.2616
     84  O         -8.3830   62.5190  -67.2030 O.2   365  VAL365     -0.2715
     85  CB        -5.3040   61.8030  -67.9350 C.3   365  VAL365      0.0290
     86  CG1       -5.8110   62.8480  -68.9120 C.3   365  VAL365      0.0023
     87  CG2       -4.4460   62.4550  -66.8560 C.3   365  VAL365      0.0023
     88  N         -7.2270   62.2180  -65.3000 N.am  366  GLY366     -0.1955
     89  CA        -8.1580   63.0140  -64.5360 C.3   366  GLY366      0.1869
     90  C         -9.2500   62.1300  -63.9790 C.2   366  GLY366      0.2309
     91  O         -9.0210   60.9440  -63.7650 O.2   366  GLY366     -0.2863
     92  N        -13.1050   60.2000  -63.5210 N.3   368  SER368     -0.1217
     93  CA       -14.2530   59.5570  -64.1370 C.3   368  SER368      0.1889
     94  C        -15.5420   60.1940  -63.6310 C.2   368  SER368      0.2288
     95  O        -15.5480   60.9420  -62.6520 O.2   368  SER368     -0.2866
     96  CB       -14.2690   58.0590  -63.8170 C.3   368  SER368      0.2089
     97  OG       -14.5340   57.8480  -62.4350 O.3   368  SER368     -0.2183
     98  N        -16.0730   59.1890  -60.0550 N.3   371  GLN371     -0.1245
     99  CA       -15.3050   59.9680  -59.0850 C.3   371  GLN371      0.1566
    100  C        -15.9410   61.3300  -58.8480 C.2   371  GLN371      0.2260
    101  O        -15.9840   61.8170  -57.7120 O.2   371  GLN371     -0.2867
    102  CB       -13.8650   60.1510  -59.5550 C.3   371  GLN371      0.0367
    103  CG       -12.9990   58.9150  -59.4300 C.3   371  GLN371      0.0905
    104  CD       -11.6960   59.0270  -60.2060 C.2   371  GLN371      0.2608
    105  OE1      -11.5510   58.4580  -61.2890 O.2   371  GLN371     -0.2717
    106  NE2      -10.7330   59.7520  -59.6430 N.am  371  GLN371     -0.0878
@<TRIPOS>BOND
     1    67    68    1
     2    64    63    2
     3    68    71    1
     4    68    69    1
     5    63    62    1
     6    77    79   ar
     7    77    74   ar
     8    79    80   ar
     9    86    85    1
    10    71    72    1
    11    69    81   am
    12    69    70    2
    13    58    59    1
    14    58    55    1
    15    59    60    1
    16    81    82    1
    17    74    72   ar
    18    74    76   ar
    19    85    82    1
    20    85    87    1
    21    72    73   ar
    22    62    61    1
    23    62    65    1
    24    80    78   ar
    25    61    56   am
    26    82    83    1
    27    55    56    1
    28    55    54    1
    29    84    83    2
    30    56    57    2
    31    60    54    1
    32    65    66    1
    33    76    78   ar
    34    76    75   ar
    35    83    88   am
    36    73    75   ar
    37    54    49   am
    38    88    89    1
    39    26    24    1
    40    49    50    2
    41    49    48    1
    42    89    90    1
    43    25    24    1
    44    23    24    1
    45    23    20    1
    46    93    96    1
    47    93    94    1
    48    93    92    1
    49    48    47    1
    50    48    51    1
    51    90    91    2
    52    96    97    1
    53    21    20    1
    54    21    22    2
    55    94    95    2
    56    20    19    1
    57    11    10    2
    58    52    51    1
    59    10     9    1
    60    42    41    2
    61    51    53    1
    62     4     3    2
    63    41    40    1
    64     1     2    1
    65     9     8    1
    66     3     8   am
    67     3     2    1
    68    46    44   am
    69   105   104    2
    70     2     5    1
    71    45    44    2
    72    44    43    1
    73    30    29    2
    74    16    17    1
    75    16    13    1
    76    40    43    1
    77    40    39    1
    78   104   106   am
    79   104   103    1
    80    98    99    1
    81    17    18    1
    82     6     5    1
    83    29    39   am
    84    29    28    1
    85    15    14    2
    86    14    13    1
    87     5     7    1
    88   102   103    1
    89   102    99    1
    90    13    12    1
    91    28    27    1
    92    28    31    1
    93    99   100    1
    94   100   101    2
    95    18    12    1
    96    33    35   ar
    97    33    32   ar
    98    31    32    1
    99    35    37   ar
   100    32    34   ar
   101    37    38    1
   102    37    36   ar
   103    34    36   ar
