@<TRIPOS>MOLECULE
tmp/5nhgA01.pdb
 86 80 0 0 0
SMALL
GASTEIGER

@<TRIPOS>ATOM
      1  N         20.6660   -5.8480    4.2730 N.3    34  LYS34      -0.1231
      2  CA        21.0520   -7.2530    4.3470 C.3    34  LYS34       0.1693
      3  C         20.8260   -8.0040    3.0340 C.2    34  LYS34       0.2592
      4  O         21.5740   -8.9380    2.7190 O.2    34  LYS34      -0.2718
      5  CB        20.2820   -7.9380    5.4780 C.3    34  LYS34       0.0285
      6  CG        18.7580   -7.9530    5.2990 C.3    34  LYS34       0.0035
      7  CD        18.0820   -8.6360    6.4920 C.3    34  LYS34       0.0206
      8  CE        16.5630   -8.5900    6.4170 C.3    34  LYS34       0.1093
      9  NZ        16.0240   -9.2700    5.2260 N.3    34  LYS34      -0.1314
     10  N         19.7850   -7.6530    2.2860 N.am   35  ASN35      -0.1974
     11  CA        19.4530   -8.3730    1.0650 C.3    35  ASN35       0.1688
     12  C         20.4390   -8.0330   -0.0560 C.2    35  ASN35       0.2292
     13  O         21.3140   -7.1780    0.0770 O.2    35  ASN35      -0.2864
     14  CB        18.0160   -8.0660    0.6350 C.3    35  ASN35       0.1181
     15  CG        16.9810   -8.6380    1.5940 C.2    35  ASN35       0.2629
     16  OD1       17.2880   -9.4930    2.4160 O.2    35  ASN35      -0.2716
     17  ND2       15.7420   -8.1770    1.4760 N.am   35  ASN35      -0.0877
     18  N         14.1050   -2.4900   -0.7520 N.3    40  GLY40      -0.1210
     19  CA        13.2390   -3.0930    0.2390 C.3    40  GLY40       0.1956
     20  C         12.0920   -3.8860   -0.3490 C.2    40  GLY40       0.2612
     21  O         12.1520   -4.4080   -1.4680 O.2    40  GLY40      -0.2717
     22  N         11.0200   -3.9820    0.4420 N.am   41  THR41      -0.1952
     23  CA         9.8510   -4.7530    0.0380 C.3    41  THR41       0.1897
     24  C          9.2230   -4.1700   -1.2170 C.2    41  THR41       0.2313
     25  O          8.9040   -4.8930   -2.1710 O.2    41  THR41      -0.2863
     26  CB         8.8170   -4.7520    1.1680 C.3    41  THR41       0.1794
     27  OG1        9.3710   -5.3410    2.3470 O.3    41  THR41      -0.2208
     28  CG2        7.5620   -5.4870    0.7770 C.3    41  THR41       0.0378
     29  N          9.6240   -7.0500   -3.9660 N.3    45  VAL45      -0.1245
     30  CA         8.5360   -8.0180   -3.8530 C.3    45  VAL45       0.1561
     31  C          7.2110   -7.3480   -3.5040 C.2    45  VAL45       0.2260
     32  O          6.3290   -7.9770   -2.9080 O.2    45  VAL45      -0.2867
     33  CB         8.8760   -9.0960   -2.8100 C.3    45  VAL45       0.0252
     34  CG1       10.1760   -9.8020   -3.1740 C.3    45  VAL45       0.0019
     35  CG2        8.9860   -8.4830   -1.4250 C.3    45  VAL45       0.0019
     36  N         13.7470   -0.7950    9.1590 N.3   145  THR145     -0.1218
     37  CA        13.8510   -2.2230    8.9190 C.3   145  THR145      0.1862
     38  C         12.5790   -2.8270    8.3330 C.2   145  THR145      0.2287
     39  O         12.6080   -3.9850    7.9020 O.2   145  THR145     -0.2866
     40  CB        14.2430   -2.9200   10.2150 C.3   145  THR145      0.1770
     41  OG1       13.4100   -2.4630   11.2880 O.3   145  THR145     -0.2211
     42  CG2       15.6780   -2.5870   10.5440 C.3   145  THR145      0.0375
     43  N          8.9570   -4.4680    7.2270 N.3   147  SER147     -0.1202
     44  CA         7.9540   -5.4530    7.6040 C.3   147  SER147      0.2020
     45  C          8.2600   -6.8010    6.9670 C.2   147  SER147      0.2619
     46  O          9.1170   -6.9280    6.0920 O.2   147  SER147     -0.2717
     47  CB         6.5510   -4.9950    7.1870 C.3   147  SER147      0.2103
     48  OG         6.5180   -4.6740    5.8020 O.3   147  SER147     -0.2182
     49  N          7.5080   -7.8070    7.4030 N.am  148  GLU148     -0.1965
     50  CA         7.5610   -9.1530    6.8490 C.3   148  GLU148      0.1733
     51  C          6.1290   -9.6620    6.7410 C.2   148  GLU148      0.2616
     52  O          5.2130   -9.0910    7.3420 O.2   148  GLU148     -0.2715
     53  CB         8.4200  -10.0700    7.7340 C.3   148  GLU148      0.0429
     54  CG         7.7460  -10.4480    9.0480 C.3   148  GLU148      0.1163
     55  CD         8.6160  -11.3310    9.9240 C.2   148  GLU148      0.3649
     56  OE1        9.6450  -11.8470    9.4230 O.co2 148  GLU148     -0.2457
     57  OE2        8.2700  -11.4950   11.1150 O.co2 148  GLU148     -0.2457
     58  N          5.9140  -10.7240    5.9540 N.am  149  VAL149     -0.1977
     59  CA         4.5640  -11.2790    5.8920 C.3   149  VAL149      0.1596
     60  C          4.1970  -11.8120    7.2640 C.2   149  VAL149      0.2287
     61  O          5.0160  -12.4240    7.9590 O.2   149  VAL149     -0.2864
     62  CB         4.3960  -12.3680    4.8130 C.3   149  VAL149      0.0276
     63  CG1        4.8120  -11.8580    3.4300 C.3   149  VAL149      0.0022
     64  CG2        5.1180  -13.6440    5.1740 C.3   149  VAL149      0.0022
     65  N          0.8400   -7.8170    7.0090 N.3   277  ARG277     -0.1245
     66  CA         2.2730   -7.6290    7.1090 C.3   277  ARG277      0.1563
     67  C          2.5370   -7.0410    8.4880 C.2   277  ARG277      0.2260
     68  O          1.6720   -6.3710    9.0600 O.2   277  ARG277     -0.2867
     69  CB         2.7980   -6.6970    5.9940 C.3   277  ARG277      0.0307
     70  CG         2.8770   -7.3470    4.6280 C.3   277  ARG277      0.0489
     71  CD         3.5750   -6.4470    3.6450 C.3   277  ARG277      0.2205
     72  NE         5.0110   -6.4000    3.9040 N.pl3 277  ARG277     -0.0865
     73  CZ         5.8850   -7.3140    3.4940 C.cat 277  ARG277      0.5346
     74  NH1        5.4700   -8.3980    2.8430 N.pl3 277  ARG277      0.1354
     75  NH2        7.1710   -7.1670    3.7930 N.pl3 277  ARG277      0.1354
     76  N          9.2010   -5.6610   11.2310 N.3   280  PHE280     -0.1241
     77  CA        10.3440   -6.5620   11.3280 C.3   280  PHE280      0.1605
     78  C         11.4580   -5.9140   12.1420 C.2   280  PHE280      0.2264
     79  O         11.9860   -4.8710   11.7440 O.2   280  PHE280     -0.2867
     80  CB        10.8400   -6.9110    9.9280 C.3   280  PHE280      0.0534
     81  CG        11.9980   -7.8500    9.9190 C.ar  280  PHE280     -0.0203
     82  CD1       11.8230   -9.1980   10.1920 C.ar  280  PHE280     -0.0042
     83  CD2       13.2720   -7.3800    9.6310 C.ar  280  PHE280     -0.0042
     84  CE1       12.8940  -10.0580   10.1840 C.ar  280  PHE280     -0.0003
     85  CE2       14.3490   -8.2330    9.6210 C.ar  280  PHE280     -0.0003
     86  CZ        14.1630   -9.5790    9.8980 C.ar  280  PHE280     -0.0000
@<TRIPOS>BOND
     1    29    30    1
     2    30    31    1
     3    30    33    1
     4    31    32    2
     5    34    33    1
     6    33    35    1
     7    25    24    2
     8    21    20    2
     9    24    23    1
    10    18    19    1
    11    20    19    1
    12    20    22   am
    13    12    13    2
    14    12    11    1
    15    23    22    1
    16    23    26    1
    17    14    11    1
    18    14    15    1
    19    28    26    1
    20    11    10    1
    21    26    27    1
    22    17    15   am
    23    15    16    2
    24    10     3   am
    25     4     3    2
    26    74    73    1
    27     3     2    1
    28    63    62    1
    29    73    75    1
    30    73    72    2
    31    71    72    1
    32    71    70    1
    33     1     2    1
    34     2     5    1
    35    70    69    1
    36    62    64    1
    37    62    59    1
    38     9     8    1
    39     6     5    1
    40     6     7    1
    41    48    47    1
    42    59    58    1
    43    59    60    1
    44    58    51   am
    45    69    66    1
    46    46    45    2
    47     8     7    1
    48    51    50    1
    49    51    52    2
    50    50    49    1
    51    50    53    1
    52    45    49   am
    53    45    44    1
    54    65    66    1
    55    66    67    1
    56    47    44    1
    57    43    44    1
    58    60    61    2
    59    53    54    1
    60    39    38    2
    61    38    37    1
    62    67    68    2
    63    37    36    1
    64    37    40    1
    65    54    55    1
    66    56    55   ar
    67    85    83   ar
    68    85    86   ar
    69    83    81   ar
    70    86    84   ar
    71    81    80    1
    72    81    82   ar
    73    55    57   ar
    74    80    77    1
    75    84    82   ar
    76    40    42    1
    77    40    41    1
    78    76    77    1
    79    77    78    1
    80    79    78    2
