@<TRIPOS>MOLECULE
tmp/5nhgE03.pdb
 85 82 0 0 0
SMALL
GASTEIGER

@<TRIPOS>ATOM
      1  N        -12.6500   32.4480   32.3980 N.3   213  VAL213     -0.1231
      2  CA       -12.3230   31.2010   31.7090 C.3   213  VAL213      0.1692
      3  C        -12.1810   31.4450   30.2170 C.2   213  VAL213      0.2592
      4  O        -12.9430   32.2090   29.6140 O.2   213  VAL213     -0.2718
      5  CB       -13.4290   30.1490   31.9450 C.3   213  VAL213      0.0266
      6  CG1      -13.2790   29.4680   33.2900 C.3   213  VAL213      0.0020
      7  CG2      -14.8560   30.7690   31.7830 C.3   213  VAL213      0.0020
      8  N        -11.2150   30.7650   29.6080 N.am  214  GLY214     -0.1957
      9  CA       -11.0590   30.7860   28.1710 C.3   214  GLY214      0.1869
     10  C        -10.2770   31.9500   27.6190 C.2   214  GLY214      0.2309
     11  O         -9.8660   31.9040   26.4490 O.2   214  GLY214     -0.2863
     12  N        -20.7300   28.2620   27.7700 N.3   322  PRO322     -0.2116
     13  CA       -20.5100   29.6340   28.2530 C.3   322  PRO322      0.1372
     14  C        -21.8170   30.2800   28.6720 C.2   322  PRO322      0.2244
     15  O        -22.7940   30.2830   27.9220 O.2   322  PRO322     -0.2868
     16  CB       -19.9220   30.3410   27.0290 C.3   322  PRO322      0.0268
     17  CG       -19.3270   29.2450   26.2160 C.3   322  PRO322      0.0207
     18  CD       -20.2880   28.1080   26.3750 C.3   322  PRO322      0.0892
     19  N        -19.5020   25.5950   20.5280 N.3   348  TYR348     -0.1227
     20  CA       -19.2870   26.6940   21.4590 C.3   348  TYR348      0.1736
     21  C        -17.9790   27.4180   21.1690 C.2   348  TYR348      0.2595
     22  O        -17.7490   28.5050   21.7120 O.2   348  TYR348     -0.2718
     23  CB       -19.3110   26.1660   22.8950 C.3   348  TYR348      0.0548
     24  CG       -20.6580   25.6010   23.3040 C.ar  348  TYR348     -0.0200
     25  CD1      -21.8370   26.3110   23.0760 C.ar  348  TYR348     -0.0009
     26  CD2      -20.7530   24.3450   23.9010 C.ar  348  TYR348     -0.0009
     27  CE1      -23.0660   25.7880   23.4320 C.ar  348  TYR348      0.0417
     28  CE2      -21.9830   23.8110   24.2650 C.ar  348  TYR348      0.0417
     29  CZ       -23.1360   24.5380   24.0290 C.ar  348  TYR348      0.1957
     30  OH       -24.3590   24.0170   24.3950 O.3   348  TYR348     -0.2866
     31  N        -17.1320   26.8300   20.3220 N.am  349  ASN349     -0.1974
     32  CA       -15.8900   27.4590   19.8890 C.3   349  ASN349      0.1688
     33  C        -16.1410   28.7180   19.0710 C.2   349  ASN349      0.2292
     34  O        -15.2670   29.5890   19.0040 O.2   349  ASN349     -0.2864
     35  CB       -15.0900   26.4500   19.0680 C.3   349  ASN349      0.1181
     36  CG       -13.7050   26.9260   18.7570 C.2   349  ASN349      0.2629
     37  OD1      -12.9440   27.2430   19.6660 O.2   349  ASN349     -0.2716
     38  ND2      -13.3420   26.9320   17.4740 N.am  349  ASN349     -0.0877
     39  N        -18.5900   30.8560   19.6950 N.3   351  VAL351     -0.1245
     40  CA       -19.2870   31.8210   20.5490 C.3   351  VAL351      0.1561
     41  C        -18.2800   32.8530   21.0370 C.2   351  VAL351      0.2260
     42  O        -17.3410   32.4960   21.7670 O.2   351  VAL351     -0.2867
     43  CB       -19.9640   31.1300   21.7390 C.3   351  VAL351      0.0252
     44  CG1      -20.4490   32.1670   22.7490 C.3   351  VAL351      0.0019
     45  CG2      -21.1360   30.3040   21.2540 C.3   351  VAL351      0.0019
     46  N        -16.7160   36.0780   23.2210 N.3   353  SER353     -0.1217
     47  CA       -16.7920   36.6550   24.5540 C.3   353  SER353      0.1889
     48  C        -16.3160   38.0920   24.4500 C.2   353  SER353      0.2288
     49  O        -15.4050   38.3990   23.6720 O.2   353  SER353     -0.2866
     50  CB       -15.9330   35.9110   25.5850 C.3   353  SER353      0.2089
     51  OG       -16.2030   34.5320   25.6180 O.3   353  SER353     -0.2183
     52  N        -12.8620   37.9720   22.0930 N.3   363  TRP363     -0.1227
     53  CA       -12.1990   36.8730   21.4220 C.3   363  TRP363      0.1737
     54  C        -13.2290   35.8510   20.9730 C.2   363  TRP363      0.2595
     55  O        -14.3530   35.7990   21.4740 O.2   363  TRP363     -0.2718
     56  CB       -11.1310   36.2400   22.3190 C.3   363  TRP363      0.0564
     57  CG       -11.6460   35.5590   23.5290 C.ar  363  TRP363      0.0003
     58  CD1      -11.9510   34.2360   23.6450 C.ar  363  TRP363      0.0946
     59  CD2      -11.8950   36.1440   24.8170 C.ar  363  TRP363      0.0152
     60  NE1      -12.3800   33.9600   24.9170 N.ar  363  TRP363     -0.2442
     61  CE2      -12.3660   35.1150   25.6540 C.ar  363  TRP363      0.0810
     62  CE3      -11.7770   37.4390   25.3400 C.ar  363  TRP363      0.0012
     63  CZ2      -12.7140   35.3320   26.9880 C.ar  363  TRP363      0.0191
     64  CZ3      -12.1260   37.6550   26.6720 C.ar  363  TRP363      0.0001
     65  CH2      -12.5910   36.6020   27.4780 C.ar  363  TRP363      0.0015
     66  N        -12.8310   35.0600   19.9810 N.am  364  VAL364     -0.1966
     67  CA       -13.6560   33.9760   19.4800 C.3   364  VAL364      0.1727
     68  C        -12.7010   32.8970   18.9950 C.2   364  VAL364      0.2616
     69  O        -11.6090   33.1880   18.5030 O.2   364  VAL364     -0.2715
     70  CB       -14.6050   34.4480   18.3530 C.3   364  VAL364      0.0290
     71  CG1      -13.8280   34.7780   17.0820 C.3   364  VAL364      0.0023
     72  CG2      -15.7180   33.4220   18.0870 C.3   364  VAL364      0.0023
     73  N        -13.1040   31.6510   19.1560 N.am  365  GLY365     -0.1955
     74  CA       -12.2340   30.5590   18.7960 C.3   365  GLY365      0.1869
     75  C        -11.3730   30.1710   19.9720 C.2   365  GLY365      0.2309
     76  O        -11.7830   30.3490   21.1220 O.2   365  GLY365     -0.2863
     77  N         -5.4550   26.5860   24.7430 N.3   370  GLN370     -0.1245
     78  CA        -6.2640   25.4660   24.2720 C.3   370  GLN370      0.1566
     79  C         -5.5660   24.7360   23.1380 C.2   370  GLN370      0.2260
     80  O         -5.5830   23.5040   23.0810 O.2   370  GLN370     -0.2867
     81  CB        -7.6350   25.9290   23.7900 C.3   370  GLN370      0.0367
     82  CG        -8.5780   26.3970   24.8570 C.3   370  GLN370      0.0905
     83  CD        -9.7810   27.0630   24.2510 C.2   370  GLN370      0.2608
     84  OE1      -10.6430   26.3870   23.6910 O.2   370  GLN370     -0.2717
     85  NE2       -9.8450   28.3880   24.3340 N.am  370  GLN370     -0.0878
@<TRIPOS>BOND
     1    71    70    1
     2    38    36   am
     3    72    70    1
     4    70    67    1
     5    69    68    2
     6    36    35    1
     7    36    37    2
     8    74    73    1
     9    74    75    1
    10    68    73   am
    11    68    67    1
    12    34    33    2
    13    35    32    1
    14    33    32    1
    15    67    66    1
    16    39    40    1
    17    32    31    1
    18    75    76    2
    19    66    54   am
    20    31    21   am
    21    19    20    1
    22    40    41    1
    23    40    43    1
    24    54    53    1
    25    54    55    2
    26    41    42    2
    27    21    20    1
    28    21    22    2
    29    45    43    1
    30    53    52    1
    31    53    56    1
    32    20    23    1
    33    43    44    1
    34    56    57    1
    35    23    24    1
    36    25    24   ar
    37    25    27   ar
    38    80    79    2
    39    79    78    1
    40    46    47    1
    41    24    26   ar
    42    27    29   ar
    43    57    58   ar
    44    57    59   ar
    45    58    60   ar
    46    49    48    2
    47    84    83    2
    48    81    78    1
    49    81    82    1
    50    26    28   ar
    51    29    28   ar
    52    29    30    1
    53    83    85   am
    54    83    82    1
    55    78    77    1
    56    48    47    1
    57    47    50    1
    58    59    62   ar
    59    59    61   ar
    60    60    61   ar
    61    62    64   ar
    62    50    51    1
    63    61    63   ar
    64    17    18    1
    65    17    16    1
    66    18    12    1
    67    11    10    2
    68    64    65   ar
    69    63    65   ar
    70    16    13    1
    71    10     9    1
    72    12    13    1
    73    15    14    2
    74     9     8    1
    75    13    14    1
    76     8     3   am
    77     4     3    2
    78     3     2    1
    79     2     5    1
    80     2     1    1
    81     7     5    1
    82     5     6    1
