@<TRIPOS>MOLECULE
tmp/5nhhA00.pdb
 168 158 0 0 0
SMALL
GASTEIGER

@<TRIPOS>ATOM
      1  N        -19.7480   19.8010   38.8940 N.3    21  ILE21      -0.1231
      2  CA       -19.7490   19.0110   40.1390 C.3    21  ILE21       0.1696
      3  C        -18.3450   18.8390   40.7520 C.2    21  ILE21       0.2632
      4  O        -18.2330   18.3120   41.8710 O.2    21  ILE21      -0.2714
      5  CB       -20.4910   17.6340   40.0490 C.3    21  ILE21       0.0266
      6  CG1      -19.8320   16.6800   39.0440 C.3    21  ILE21       0.0019
      7  CG2      -22.0000   17.7720   39.7960 C.3    21  ILE21       0.0020
      8  CD1      -20.1810   15.2200   39.2260 C.3    21  ILE21       0.0001
      9  N        -17.3030   19.2740   40.0420 N.am   22  GLY22      -0.1718
     10  CA       -15.9290   19.1380   40.5250 C.2    22  GLY22       0.1480
     11  C        -14.8530   19.5910   39.5540 C.2    22  GLY22       0.2823
     12  O        -15.1330   19.8330   38.3760 O.2    22  GLY22      -0.2669
     13  N        -13.5980   19.6830   40.0430 N.am   23  GLU23      -0.1883
     14  CA       -12.4620   20.1650   39.2440 C.3    23  GLU23       0.1952
     15  C        -11.1080   19.6650   39.7710 C.2    23  GLU23       0.2659
     16  O        -10.9980   19.2190   40.9210 O.2    23  GLU23      -0.2711
     17  CB       -12.4550   21.7020   39.2840 C.2    23  GLU23       0.0111
     18  CG       -11.9690   22.3900   38.0180 C.2    23  GLU23       0.0838
     19  CD       -12.1090   23.9040   38.0110 C.2    23  GLU23       0.3877
     20  OE1      -12.6910   24.4610   38.9710 O.co2  23  GLU23      -0.2406
     21  OE2      -11.6490   24.5340   37.0310 O.co2  23  GLU23      -0.2406
     22  N        -10.0910   19.8000   38.9270 N.am   24  GLY24      -0.1952
     23  CA        -8.7020   19.4840   39.2270 C.3    24  GLY24       0.1869
     24  C         -7.8090   20.4040   38.4260 C.2    24  GLY24       0.2309
     25  O         -8.3120   21.3240   37.7730 O.2    24  GLY24      -0.2863
     26  N         -8.4820   18.8880   34.6510 N.3    27  GLY27      -0.1210
     27  CA        -9.7700   18.2710   34.3740 C.3    27  GLY27       0.1956
     28  C        -10.9700   18.9290   35.0020 C.2    27  GLY27       0.2612
     29  O        -10.8500   19.6340   36.0090 O.2    27  GLY27      -0.2717
     30  N        -12.1460   18.6430   34.4580 N.am   28  MET28      -0.1965
     31  CA       -13.3810   19.1550   35.0210 C.3    28  MET28       0.1736
     32  C        -14.4390   18.0720   35.0750 C.2    28  MET28       0.2616
     33  O        -14.6090   17.3200   34.1210 O.2    28  MET28      -0.2715
     34  CB       -13.8770   20.4050   34.2900 C.3    28  MET28       0.0427
     35  CG       -14.9520   21.1440   35.0610 C.3    28  MET28       0.0599
     36  SD       -15.5750   22.6250   34.2420 S.3    28  MET28      -0.1393
     37  CE       -16.7250   21.9370   33.2270 C.3    28  MET28       0.0692
     38  N        -15.1850   18.0260   36.1750 N.am   29  VAL29      -0.1977
     39  CA       -16.2360   17.0350   36.3440 C.3    29  VAL29       0.1596
     40  C        -17.6160   17.6850   36.2860 C.2    29  VAL29       0.2287
     41  O        -17.8190   18.7590   36.8560 O.2    29  VAL29      -0.2864
     42  CB       -16.0360   16.1380   37.6040 C.3    29  VAL29       0.0276
     43  CG1      -16.9450   14.9180   37.5540 C.3    29  VAL29       0.0022
     44  CG2      -14.5800   15.6960   37.7580 C.3    29  VAL29       0.0022
     45  N        -21.8370   10.9670   35.8520 N.3    42  ALA42      -0.1245
     46  CA       -20.7690   11.9230   36.0910 C.3    42  ALA42       0.1562
     47  C        -19.8200   11.8130   34.9110 C.2    42  ALA42       0.2260
     48  O        -19.5170   10.7080   34.4610 O.2    42  ALA42      -0.2867
     49  CB       -20.0350   11.5950   37.3810 C.3    42  ALA42       0.0290
     50  N        -16.1230   13.2570   33.4320 N.3    44  LYS44      -0.1245
     51  CA       -14.8870   13.9590   33.7200 C.3    44  LYS44       0.1561
     52  C        -14.1760   14.2650   32.4160 C.2    44  LYS44       0.2260
     53  O        -13.8300   13.3470   31.6700 O.2    44  LYS44      -0.2867
     54  CB       -13.9950   13.1200   34.6540 C.3    44  LYS44       0.0271
     55  CG       -12.6180   13.7160   34.9030 C.3    44  LYS44       0.0035
     56  CD       -12.1180   13.1590   36.2110 C.3    44  LYS44       0.0206
     57  CE       -10.7420   12.5880   36.1360 C.3    44  LYS44       0.1093
     58  NZ       -10.3200   12.1540   37.4850 N.3    44  LYS44      -0.1314
     59  N        -15.1740    3.8060   42.2820 N.3    74  ILE74      -0.1245
     60  CA       -15.8040    4.4110   41.1060 C.3    74  ILE74       0.1561
     61  C        -15.2470    3.6860   39.8450 C.2    74  ILE74       0.2260
     62  O        -14.0550    3.4490   39.7430 O.2    74  ILE74      -0.2867
     63  CB       -15.5540    5.9720   41.0610 C.3    74  ILE74       0.0252
     64  CG1      -16.6650    6.7100   40.2690 C.3    74  ILE74       0.0019
     65  CG2      -14.1490    6.3330   40.4850 C.3    74  ILE74       0.0019
     66  CD1      -18.1420    6.4250   40.6980 C.3    74  ILE74       0.0001
     67  N        -18.7140    8.0870   34.4750 N.3    95  GLN95      -0.1231
     68  CA       -18.7500    7.3280   35.7270 C.3    95  GLN95       0.1698
     69  C        -20.1380    7.3480   36.3300 C.2    95  GLN95       0.2592
     70  O        -20.9480    8.2050   35.9840 O.2    95  GLN95      -0.2718
     71  CB       -17.7370    7.9340   36.7320 C.3    95  GLN95       0.0381
     72  CG       -16.2780    7.9100   36.2390 C.3    95  GLN95       0.0905
     73  CD       -15.2170    8.3490   37.2290 C.2    95  GLN95       0.2608
     74  OE1      -15.3130    9.3860   37.8980 O.2    95  GLN95      -0.2717
     75  NE2      -14.1100    7.6170   37.2510 N.am   95  GLN95      -0.0878
     76  N        -20.4080    6.4300   37.2710 N.am   96  ASP96      -0.1960
     77  CA       -21.6740    6.4360   38.0060 C.3    96  ASP96       0.1840
     78  C        -21.7040    7.7550   38.7820 C.2    96  ASP96       0.2622
     79  O        -20.6520    8.2150   39.2260 O.2    96  ASP96      -0.2715
     80  CB       -21.7240    5.2600   39.0010 C.3    96  ASP96       0.1450
     81  CG       -21.9870    3.8940   38.3930 C.2    96  ASP96       0.3671
     82  OD1      -22.4520    3.8360   37.2310 O.co2  96  ASP96      -0.2456
     83  OD2      -21.8030    2.8860   39.1060 O.co2  96  ASP96      -0.2456
     84  N        -22.8660    8.4030   38.8640 N.am   97  LEU97      -0.1963
     85  CA       -22.9800    9.6580   39.5840 C.3    97  LEU97       0.1728
     86  C        -23.3180    9.3660   41.0520 C.2    97  LEU97       0.2616
     87  O        -24.2150    8.5620   41.3450 O.2    97  LEU97      -0.2715
     88  CB       -24.0430   10.5690   38.9310 C.3    97  LEU97       0.0311
     89  CG       -24.3560   11.9190   39.6220 C.3    97  LEU97       0.0022
     90  CD1      -23.2370   12.9520   39.4440 C.3    97  LEU97       0.0001
     91  CD2      -25.6770   12.4620   39.1690 C.3    97  LEU97       0.0001
     92  N        -22.6050   10.0490   41.9590 N.am   98  MET98      -0.1963
     93  CA       -22.7990    9.9650   43.4040 C.3    98  MET98       0.1736
     94  C        -23.3550   11.2910   43.8740 C.2    98  MET98       0.2616
     95  O        -23.1680   12.3060   43.2070 O.2    98  MET98      -0.2715
     96  CB       -21.4980    9.5850   44.1300 C.3    98  MET98       0.0427
     97  CG       -20.9790    8.1780   43.7660 C.3    98  MET98       0.0599
     98  SD       -22.0770    6.8170   44.2520 S.3    98  MET98      -0.1393
     99  CE       -21.6920    6.6510   45.9680 C.3    98  MET98       0.0692
    100  N        -24.1140   11.2720   44.9720 N.am   99  GLU99      -0.1963
    101  CA       -24.8380   12.4560   45.4340 C.3    99  GLU99       0.1733
    102  C        -23.9470   13.5140   46.0240 C.2    99  GLU99       0.2617
    103  O        -24.1360   14.6920   45.7460 O.2    99  GLU99      -0.2715
    104  CB       -25.9580   12.0610   46.4140 C.3    99  GLU99       0.0429
    105  CG       -27.0170   11.1760   45.8070 C.3    99  GLU99       0.1163
    106  CD       -27.8470   11.8140   44.7400 C.2    99  GLU99       0.3649
    107  OE1      -27.8600   13.0660   44.6040 O.co2  99  GLU99      -0.2457
    108  OE2      -28.5800   11.0450   44.1010 O.co2  99  GLU99      -0.2457
    109  N        -22.9750   13.1010   46.8540 N.am  100  THR100     -0.1937
    110  CA       -22.1030   14.0380   47.5300 C.3   100  THR100      0.2028
    111  C        -20.7290   13.3970   47.7820 C.2   100  THR100      0.2642
    112  O        -20.4460   12.3040   47.2800 O.2   100  THR100     -0.2714
    113  CB       -22.8340   14.5400   48.8130 C.3   100  THR100      0.1808
    114  OG1      -22.1550   15.6860   49.3420 O.3   100  THR100     -0.2208
    115  CG2      -22.9840   13.4410   49.8850 C.3   100  THR100      0.0379
    116  N        -19.8830   14.0790   48.5520 N.am  101  ASP101     -0.1971
    117  CA       -18.5970   13.5300   48.9730 C.3   101  ASP101      0.1709
    118  C        -18.4730   13.7370   50.4790 C.2   101  ASP101      0.2293
    119  O        -19.2750   14.4790   51.0790 O.2   101  ASP101     -0.2864
    120  CB       -17.3960   14.0800   48.1720 C.3   101  ASP101      0.1436
    121  CG       -17.1970   15.5660   48.2730 C.2   101  ASP101      0.3671
    122  OD1      -17.1530   16.0750   49.3960 O.co2 101  ASP101     -0.2456
    123  OD2      -17.0690   16.2270   47.2140 O.co2 101  ASP101     -0.2456
    124  N        -17.8110   17.4750   51.6590 N.3   104  LYS104     -0.1245
    125  CA       -19.0480   18.2720   51.7220 C.3   104  LYS104      0.1561
    126  C        -19.8670   17.9020   52.9500 C.2   104  LYS104      0.2260
    127  O        -20.3710   18.7780   53.6310 O.2   104  LYS104     -0.2867
    128  CB       -19.8950   18.0550   50.4620 C.3   104  LYS104      0.0271
    129  CG       -19.3510   18.7570   49.2320 C.3   104  LYS104      0.0035
    130  CD       -20.3690   18.6830   48.1150 C.3   104  LYS104      0.0206
    131  CE       -19.8200   19.2420   46.8290 C.3   104  LYS104      0.1093
    132  NZ       -20.8760   19.3350   45.7940 N.3   104  LYS104     -0.1314
    133  N        -12.7890   14.6340   49.8730 N.3   143  SER143     -0.1202
    134  CA       -13.4140   14.9790   48.5930 C.3   143  SER143      0.2020
    135  C        -13.2850   13.8480   47.5340 C.2   143  SER143      0.2618
    136  O        -13.9910   13.8740   46.5180 O.2   143  SER143     -0.2717
    137  CB       -12.8800   16.3150   48.0670 C.3   143  SER143      0.2103
    138  OG       -11.4720   16.2330   47.8990 O.3   143  SER143     -0.2182
    139  N        -12.4060   12.8670   47.7770 N.am  144  ASN144     -0.1974
    140  CA       -12.2610   11.6840   46.9130 C.3   144  ASN144      0.1688
    141  C        -13.0660   10.5130   47.4290 C.2   144  ASN144      0.2292
    142  O        -12.9630    9.3960   46.8860 O.2   144  ASN144     -0.2864
    143  CB       -10.7840   11.3090   46.6530 C.3   144  ASN144      0.1181
    144  CG       -10.1780   12.3040   45.7120 C.2   144  ASN144      0.2629
    145  OD1      -10.9100   12.9960   44.9890 O.2   144  ASN144     -0.2716
    146  ND2       -8.8450   12.4040   45.6850 N.am  144  ASN144     -0.0877
    147  N        -16.8050    9.4500   47.6930 N.3   146  LEU146     -0.1245
    148  CA       -18.1520    9.7670   47.2550 C.3   146  LEU146      0.1561
    149  C        -19.1880    8.9850   48.0110 C.2   146  LEU146      0.2260
    150  O        -18.9280    7.8490   48.3910 O.2   146  LEU146     -0.2867
    151  CB       -18.2740    9.5150   45.7520 C.3   146  LEU146      0.0270
    152  CG       -17.1940   10.1500   44.8730 C.3   146  LEU146      0.0019
    153  CD1      -17.3150    9.6690   43.4350 C.3   146  LEU146      0.0001
    154  CD2      -17.2180   11.6950   44.9790 C.3   146  LEU146      0.0001
    155  N        -12.8920    7.6360   44.6110 N.3   156  CYS156     -0.1221
    156  CA       -12.6920    8.1350   43.2450 C.3   156  CYS156      0.1808
    157  C        -11.2960    8.7460   43.1120 C.2   156  CYS156      0.2601
    158  O        -10.4990    8.6630   44.0460 O.2   156  CYS156     -0.2717
    159  CB       -13.7850    9.1180   42.8350 C.3   156  CYS156      0.0970
    160  SG       -13.7170   10.7180   43.6740 S.3   156  CYS156     -0.0800
    161  N        -11.0230    9.3660   41.9430 N.am  157  ASP157     -0.1973
    162  CA        -9.8000   10.0770   41.6040 C.3   157  ASP157      0.1709
    163  C         -8.4940    9.2430   41.7310 C.2   157  ASP157      0.2293
    164  O         -7.7450    9.3630   42.7110 O.2   157  ASP157     -0.2864
    165  CB        -9.6890   11.3940   42.4030 C.3   157  ASP157      0.1436
    166  CG        -8.4380   12.1950   42.0850 C.2   157  ASP157      0.3671
    167  OD1       -7.8690   11.9970   40.9840 O.co2 157  ASP157     -0.2456
    168  OD2       -8.0170   12.9890   42.9410 O.co2 157  ASP157     -0.2456
@<TRIPOS>BOND
     1    53    52    2
     2    52    51    1
     3    37    36    1
     4    50    51    1
     5    51    54    1
     6    33    32    2
     7    36    35    1
     8    34    31    1
     9    34    35    1
    10    27    26    1
    11    27    28    1
    12    30    28   am
    13    30    31    1
    14    48    47    2
    15    67    68    1
    16    54    55    1
    17    55    56    1
    18    47    46    1
    19    28    29    2
    20    31    32    1
    21    32    38   am
    22    68    69    1
    23    68    71    1
    24    45    46    1
    25    70    69    2
    26    46    49    1
    27    57    56    1
    28    57    58    1
    29    38    39    1
    30    72    71    1
    31    72    73    1
    32    40    39    1
    33    40    41    2
    34    69    76   am
    35    39    42    1
    36    21    19   ar
    37    73    75   am
    38    73    74    2
    39    82    81   ar
    40    76    77    1
    41    43    42    1
    42    42    44    1
    43    25    24    2
    44    77    78    1
    45    77    80    1
    46    19    18    1
    47    19    20   ar
    48    18    17    2
    49    12    11    2
    50    81    80    1
    51    81    83   ar
    52    24    23    1
    53    78    84   am
    54    78    79    2
    55    84    85    1
    56     1     2    1
    57    22    23    1
    58    22    15   am
    59    88    85    1
    60    88    89    1
    61     6     8    1
    62     6     5    1
    63    91    89    1
    64    14    17    1
    65    14    15    1
    66    14    13    1
    67    90    89    1
    68    11    13   am
    69    11    10    1
    70    85    86    1
    71    62    61    2
    72    15    16    2
    73     7     5    1
    74    61    60    1
    75     9    10    2
    76     9     3    1
    77     5     2    1
    78     2     3    1
    79    64    66    1
    80    64    63    1
    81    65    63    1
    82     3     4    2
    83   167   166   ar
    84    86    87    2
    85    86    92   am
    86    63    60    1
    87    60    59    1
    88   162   163    1
    89   162   161    1
    90   162   165    1
    91   163   164    2
    92   161   157   am
    93    92    93    1
    94   166   165    1
    95   166   168   ar
    96   159   156    1
    97   159   160    1
    98   157   156    1
    99   157   158    2
   100    95    94    2
   101   156   155    1
   102    93    94    1
   103    93    96    1
   104   153   152    1
   105    97    96    1
   106    97    98    1
   107    94   100   am
   108   108   106   ar
   109    98    99    1
   110   107   106   ar
   111   106   105    1
   112   152   154    1
   113   152   151    1
   114   100   101    1
   115   145   144    2
   116   101   102    1
   117   101   104    1
   118   146   144   am
   119   144   143    1
   120   103   102    2
   121   151   148    1
   122   132   131    1
   123   105   104    1
   124   102   109   am
   125   136   135    2
   126   143   140    1
   127   131   130    1
   128   109   110    1
   129   142   141    2
   130   140   141    1
   131   140   139    1
   132   123   121   ar
   133   148   147    1
   134   148   149    1
   135   112   111    2
   136   110   111    1
   137   110   113    1
   138   135   139   am
   139   135   134    1
   140   111   116   am
   141   138   137    1
   142   149   150    2
   143   137   134    1
   144   130   129    1
   145   120   121    1
   146   120   117    1
   147   121   122   ar
   148   116   117    1
   149   134   133    1
   150   113   114    1
   151   113   115    1
   152   117   118    1
   153   129   128    1
   154   128   125    1
   155   118   119    2
   156   124   125    1
   157   125   126    1
   158   126   127    2
