@<TRIPOS>MOLECULE
tmp/5nhjA00.pdb
 174 163 0 0 0
SMALL
GASTEIGER

@<TRIPOS>ATOM
      1  N        -19.3730   19.9280   39.0520 N.3    21  ILE21      -0.1231
      2  CA       -19.1810   19.1170   40.2500 C.3    21  ILE21       0.1692
      3  C        -17.8640   19.4710   40.9350 C.2    21  ILE21       0.2593
      4  O        -17.8300   19.7760   42.1190 O.2    21  ILE21      -0.2718
      5  CB       -19.2100   17.6100   39.9360 C.3    21  ILE21       0.0266
      6  CG1      -20.6350   17.1510   39.6450 C.3    21  ILE21       0.0019
      7  CG2      -18.6290   16.8140   41.0940 C.3    21  ILE21       0.0020
      8  CD1      -20.7460   15.6770   39.3390 C.3    21  ILE21       0.0001
      9  N        -16.7790   19.4430   40.1730 N.am   22  GLY22      -0.1942
     10  CA       -15.4780   19.7860   40.7060 C.3    22  GLY22       0.2014
     11  C        -14.4340   20.0440   39.6450 C.2    22  GLY22       0.2639
     12  O        -14.7080   19.9640   38.4540 O.2    22  GLY22      -0.2714
     13  N        -13.2240   20.3520   40.0910 N.am   23  GLU23      -0.1963
     14  CA       -12.1330   20.6850   39.1910 C.3    23  GLU23       0.1733
     15  C        -10.8360   20.0380   39.6380 C.2    23  GLU23       0.2616
     16  O        -10.7180   19.5590   40.7610 O.2    23  GLU23      -0.2715
     17  CB       -11.9320   22.1960   39.1540 C.3    23  GLU23       0.0429
     18  CG       -12.6200   22.9040   38.0020 C.3    23  GLU23       0.1163
     19  CD       -12.1910   24.3510   37.8870 C.2    23  GLU23       0.3649
     20  OE1      -13.0700   25.2330   37.8690 O.co2  23  GLU23      -0.2457
     21  OE2      -10.9720   24.6040   37.8190 O.co2  23  GLU23      -0.2457
     22  N         -9.8580   20.0520   38.7460 N.am   24  GLY24      -0.1955
     23  CA        -8.5250   19.5830   39.0490 C.3    24  GLY24       0.1869
     24  C         -7.5350   20.4640   38.3220 C.2    24  GLY24       0.2309
     25  O         -7.8900   21.5390   37.8610 O.2    24  GLY24      -0.2863
     26  N         -8.2520   18.7840   34.5200 N.3    27  GLY27      -0.1210
     27  CA        -9.5410   18.1830   34.2440 C.3    27  GLY27       0.1956
     28  C        -10.7130   18.8210   34.9590 C.2    27  GLY27       0.2612
     29  O        -10.5320   19.5700   35.9120 O.2    27  GLY27      -0.2717
     30  N        -11.9190   18.5150   34.4960 N.am   28  MET28      -0.1965
     31  CA       -13.1380   19.0210   35.1150 C.3    28  MET28       0.1736
     32  C        -14.2600   17.9880   35.1520 C.2    28  MET28       0.2616
     33  O        -14.4640   17.2470   34.1990 O.2    28  MET28      -0.2715
     34  CB       -13.6170   20.2800   34.3910 C.3    28  MET28       0.0427
     35  CG       -14.8440   20.9150   35.0190 C.3    28  MET28       0.0599
     36  SD       -15.3350   22.4570   34.2330 S.3    28  MET28      -0.1393
     37  CE       -14.1430   23.5830   34.9360 C.3    28  MET28       0.0692
     38  N        -14.9840   17.9500   36.2640 N.am   29  VAL29      -0.1977
     39  CA       -16.0500   16.9800   36.4630 C.3    29  VAL29       0.1596
     40  C        -17.4260   17.6370   36.4720 C.2    29  VAL29       0.2287
     41  O        -17.6480   18.6280   37.1590 O.2    29  VAL29      -0.2864
     42  CB       -15.8740   16.1750   37.7660 C.3    29  VAL29       0.0276
     43  CG1      -16.9930   15.1580   37.9210 C.3    29  VAL29       0.0022
     44  CG2      -14.5190   15.4910   37.7950 C.3    29  VAL29       0.0022
     45  N        -21.9420   16.7840   36.0610 N.3    31  SER31      -0.1217
     46  CA       -23.0470   15.8480   35.9790 C.3    31  SER31       0.1889
     47  C        -23.7910   16.1120   34.6770 C.2    31  SER31       0.2288
     48  O        -23.7510   17.2150   34.1490 O.2    31  SER31      -0.2866
     49  CB       -23.9820   16.0020   37.1780 C.3    31  SER31       0.2089
     50  OG       -24.4890   17.3180   37.2640 O.3    31  SER31      -0.2183
     51  N        -21.9380   11.1280   35.7550 N.3    42  ALA42      -0.1245
     52  CA       -20.8110   12.0200   35.9790 C.3    42  ALA42       0.1562
     53  C        -19.8620   11.9400   34.7940 C.2    42  ALA42       0.2260
     54  O        -19.5970   10.8610   34.2790 O.2    42  ALA42      -0.2867
     55  CB       -20.0890   11.6610   37.2660 C.3    42  ALA42       0.0290
     56  N        -16.0730   13.3320   33.3730 N.3    44  LYS44      -0.1245
     57  CA       -14.8100   13.9920   33.6530 C.3    44  LYS44       0.1561
     58  C        -14.0550   14.3510   32.3850 C.2    44  LYS44       0.2260
     59  O        -13.6620   13.4820   31.6170 O.2    44  LYS44      -0.2867
     60  CB       -13.9370   13.1360   34.5750 C.3    44  LYS44       0.0271
     61  CG       -12.4860   13.5820   34.6380 C.3    44  LYS44       0.0035
     62  CD       -11.8730   13.3180   35.9990 C.3    44  LYS44       0.0206
     63  CE       -11.0440   12.0480   36.0010 C.3    44  LYS44       0.1093
     64  NZ       -10.3140   11.8940   37.2850 N.3    44  LYS44      -0.1314
     65  N        -15.3600    3.6780   42.0860 N.3    74  ILE74      -0.1245
     66  CA       -15.9730    4.2560   40.8980 C.3    74  ILE74       0.1561
     67  C        -15.4400    3.5860   39.6320 C.2    74  ILE74       0.2260
     68  O        -14.2420    3.4260   39.4660 O.2    74  ILE74      -0.2867
     69  CB       -15.7560    5.7850   40.8270 C.3    74  ILE74       0.0252
     70  CG1      -16.7970    6.4380   39.9170 C.3    74  ILE74       0.0019
     71  CG2      -14.3480    6.1210   40.3550 C.3    74  ILE74       0.0019
     72  CD1      -18.1630    6.5770   40.5490 C.3    74  ILE74       0.0001
     73  N        -18.8490    8.1950   34.2300 N.3    95  GLN95      -0.1231
     74  CA       -18.9640    7.3630   35.4160 C.3    95  GLN95       0.1698
     75  C        -20.3560    7.4880   36.0140 C.2    95  GLN95       0.2592
     76  O        -21.0940    8.4160   35.7010 O.2    95  GLN95      -0.2718
     77  CB       -17.9250    7.7790   36.4600 C.3    95  GLN95       0.0381
     78  CG       -16.4930    7.7580   35.9570 C.3    95  GLN95       0.0905
     79  CD       -15.5100    8.3780   36.9300 C.2    95  GLN95       0.2608
     80  OE1      -15.7630    9.4320   37.4980 O.2    95  GLN95      -0.2717
     81  NE2      -14.3790    7.7210   37.1210 N.am   95  GLN95      -0.0878
     82  N        -20.7060    6.5500   36.8830 N.am   96  ASP96      -0.1960
     83  CA       -21.9670    6.6240   37.5980 C.3    96  ASP96       0.1840
     84  C        -21.9450    7.8740   38.4630 C.2    96  ASP96       0.2622
     85  O        -20.8990    8.2720   38.9580 O.2    96  ASP96      -0.2715
     86  CB       -22.1810    5.3760   38.4580 C.3    96  ASP96       0.1450
     87  CG       -22.5150    4.1430   37.6300 C.2    96  ASP96       0.3671
     88  OD1      -23.1700    4.2770   36.5820 O.co2  96  ASP96      -0.2456
     89  OD2      -22.1210    3.0330   38.0320 O.co2  96  ASP96      -0.2456
     90  N        -23.0990    8.5020   38.6280 N.am   97  LEU97      -0.1963
     91  CA       -23.1800    9.7180   39.4160 C.3    97  LEU97       0.1728
     92  C        -23.4860    9.4080   40.8780 C.2    97  LEU97       0.2616
     93  O        -24.3460    8.5890   41.1800 O.2    97  LEU97      -0.2715
     94  CB       -24.2290   10.6630   38.8340 C.3    97  LEU97       0.0311
     95  CG       -24.5190   11.9490   39.6030 C.3    97  LEU97       0.0022
     96  CD1      -23.3750   12.9370   39.4550 C.3    97  LEU97       0.0001
     97  CD2      -25.8230   12.5600   39.1260 C.3    97  LEU97       0.0001
     98  N        -22.7580   10.0580   41.7760 N.am   98  MET98      -0.1963
     99  CA       -22.9880    9.9080   43.2030 C.3    98  MET98       0.1736
    100  C        -23.5020   11.2430   43.7210 C.2    98  MET98       0.2616
    101  O        -23.0910   12.2940   43.2460 O.2    98  MET98      -0.2715
    102  CB       -21.7080    9.4870   43.9230 C.3    98  MET98       0.0427
    103  CG       -21.2050    8.1020   43.5490 C.3    98  MET98       0.0599
    104  SD       -22.1720    6.7420   44.2320 S.3    98  MET98      -0.1393
    105  CE       -21.6210    6.7300   45.9340 C.3    98  MET98       0.0692
    106  N        -24.4110   11.1840   44.6840 N.am   99  GLU99      -0.1963
    107  CA       -25.0840   12.3700   45.1920 C.3    99  GLU99       0.1733
    108  C        -24.1470   13.4410   45.7330 C.2    99  GLU99       0.2617
    109  O        -24.3630   14.6310   45.5300 O.2    99  GLU99      -0.2715
    110  CB       -26.0590   11.9810   46.3020 C.3    99  GLU99       0.0429
    111  CG       -26.8600   13.1450   46.8440 C.3    99  GLU99       0.1163
    112  CD       -27.8500   12.7220   47.9060 C.2    99  GLU99       0.3649
    113  OE1      -27.8790   11.5220   48.2430 O.co2  99  GLU99      -0.2457
    114  OE2      -28.5960   13.5900   48.4040 O.co2  99  GLU99      -0.2457
    115  N        -23.1060   13.0070   46.4300 N.am  100  THR100     -0.1937
    116  CA       -22.2140   13.9200   47.1160 C.3   100  THR100      0.2028
    117  C        -20.8790   13.2660   47.4590 C.2   100  THR100      0.2642
    118  O        -20.6040   12.1490   47.0410 O.2   100  THR100     -0.2714
    119  CB       -22.8730   14.4960   48.3890 C.3   100  THR100      0.1808
    120  OG1      -22.1430   15.6360   48.8460 O.3   100  THR100     -0.2208
    121  CG2      -22.9270   13.4590   49.4880 C.3   100  THR100      0.0379
    122  N        -20.0470   13.9740   48.2100 N.am  101  ASP101     -0.1971
    123  CA       -18.8060   13.4090   48.7200 C.3   101  ASP101      0.1709
    124  C        -18.6310   13.7530   50.1900 C.2   101  ASP101      0.2293
    125  O        -19.3750   14.5580   50.7330 O.2   101  ASP101     -0.2864
    126  CB       -17.5950   13.8410   47.8880 C.3   101  ASP101      0.1436
    127  CG       -17.3160   15.3230   47.9760 C.2   101  ASP101      0.3671
    128  OD1      -17.2180   15.8470   49.0990 O.co2 101  ASP101     -0.2456
    129  OD2      -17.1750   15.9620   46.9160 O.co2 101  ASP101     -0.2456
    130  N        -17.9880   17.5040   51.3050 N.3   104  LYS104     -0.1245
    131  CA       -19.2200   18.2740   51.3890 C.3   104  LYS104      0.1561
    132  C        -20.0390   17.9030   52.6200 C.2   104  LYS104      0.2260
    133  O        -20.6360   18.7620   53.2490 O.2   104  LYS104     -0.2867
    134  CB       -20.0590   18.0750   50.1250 C.3   104  LYS104      0.0271
    135  CG       -19.4190   18.6480   48.8770 C.3   104  LYS104      0.0035
    136  CD       -20.3500   18.5500   47.6840 C.3   104  LYS104      0.0206
    137  CE       -19.9510   17.4120   46.7560 C.3   104  LYS104      0.1093
    138  NZ       -20.8140   17.5060   45.4950 N.3   104  LYS104     -0.1314
    139  N        -12.8580   14.5880   49.7360 N.3   143  SER143     -0.1202
    140  CA       -13.4500   14.9570   48.4550 C.3   143  SER143      0.2020
    141  C        -13.3090   13.8580   47.4000 C.2   143  SER143      0.2618
    142  O        -13.9250   13.9280   46.3460 O.2   143  SER143     -0.2717
    143  CB       -12.8950   16.2910   47.9460 C.3   143  SER143      0.2103
    144  OG       -11.5680   16.1630   47.4790 O.3   143  SER143     -0.2182
    145  N        -12.5470   12.8210   47.7340 N.am  144  ASN144     -0.1974
    146  CA       -12.3440   11.6860   46.8430 C.3   144  ASN144      0.1688
    147  C        -13.1440   10.4620   47.2660 C.2   144  ASN144      0.2292
    148  O        -12.9690    9.3770   46.7310 O.2   144  ASN144     -0.2864
    149  CB       -10.8630   11.3560   46.7110 C.3   144  ASN144      0.1181
    150  CG       -10.2250   12.1230   45.5890 C.2   144  ASN144      0.2629
    151  OD1      -10.9330   12.6690   44.7620 O.2   144  ASN144     -0.2716
    152  ND2       -8.9030   12.1840   45.5590 N.am  144  ASN144     -0.0877
    153  N        -16.9670    9.3120   47.5170 N.3   146  LEU146     -0.1245
    154  CA       -18.3380    9.6270   47.1430 C.3   146  LEU146      0.1561
    155  C        -19.4160    8.8850   47.9350 C.2   146  LEU146      0.2260
    156  O        -19.2370    7.7350   48.3110 O.2   146  LEU146     -0.2867
    157  CB       -18.5230    9.4440   45.6380 C.3   146  LEU146      0.0270
    158  CG       -17.3920   10.0030   44.7750 C.3   146  LEU146      0.0019
    159  CD1      -17.4600    9.4800   43.3520 C.3   146  LEU146      0.0001
    160  CD2      -17.3960   11.5220   44.7970 C.3   146  LEU146      0.0001
    161  N        -12.9360    7.4120   44.3540 N.3   156  CYS156     -0.1221
    162  CA       -12.7430    7.9810   43.0260 C.3   156  CYS156      0.1808
    163  C        -11.3750    8.6510   42.8950 C.2   156  CYS156      0.2601
    164  O        -10.5800    8.6170   43.8280 O.2   156  CYS156     -0.2717
    165  CB       -13.8770    8.9460   42.6720 C.3   156  CYS156      0.0970
    166  SG       -13.8370   10.5530   43.4900 S.3   156  CYS156     -0.0800
    167  N        -11.0990    9.2090   41.7170 N.am  157  ASP157     -0.1973
    168  CA        -9.8360    9.9020   41.4310 C.3   157  ASP157      0.1709
    169  C         -8.5300    9.1110   41.5340 C.2   157  ASP157      0.2293
    170  O         -7.7860    9.2370   42.4970 O.2   157  ASP157     -0.2864
    171  CB        -9.7090   11.2320   42.1770 C.3   157  ASP157      0.1436
    172  CG        -8.5120   12.0240   41.7220 C.2   157  ASP157      0.3671
    173  OD1       -8.1620   11.9250   40.5290 O.co2 157  ASP157     -0.2456
    174  OD2       -7.9140   12.7330   42.5510 O.co2 157  ASP157     -0.2456
@<TRIPOS>BOND
     1    59    58    2
     2    58    57    1
     3    56    57    1
     4    57    60    1
     5    48    47    2
     6    33    32    2
     7    73    74    1
     8    36    37    1
     9    36    35    1
    10    27    26    1
    11    27    28    1
    12    54    53    2
    13    34    35    1
    14    34    31    1
    15    30    28   am
    16    30    31    1
    17    60    61    1
    18    61    62    1
    19    47    46    1
    20    53    52    1
    21    28    29    2
    22    31    32    1
    23    32    38   am
    24    74    75    1
    25    74    77    1
    26    76    75    2
    27    51    52    1
    28    78    77    1
    29    78    79    1
    30    52    55    1
    31    46    45    1
    32    46    49    1
    33    62    63    1
    34    63    64    1
    35    75    82   am
    36    38    39    1
    37    39    40    1
    38    39    42    1
    39    40    41    2
    40    88    87   ar
    41    82    83    1
    42    79    81   am
    43    79    80    2
    44    49    50    1
    45    83    86    1
    46    83    84    1
    47    87    89   ar
    48    87    86    1
    49    42    44    1
    50    42    43    1
    51    21    19   ar
    52    25    24    2
    53    20    19   ar
    54    19    18    1
    55    18    17    1
    56    24    23    1
    57    12    11    2
    58    84    90   am
    59    84    85    2
    60    90    91    1
    61    22    23    1
    62    22    15   am
    63    94    91    1
    64    94    95    1
    65     1     2    1
    66    97    95    1
    67    17    14    1
    68    14    15    1
    69    14    13    1
    70     8     6    1
    71    91    92    1
    72    96    95    1
    73    68    67    2
    74    67    66    1
    75    15    16    2
    76     6     5    1
    77    11    13   am
    78    11    10    1
    79    70    72    1
    80    70    69    1
    81     5     2    1
    82     5     7    1
    83     9    10    1
    84     9     3   am
    85     2     3    1
    86    71    69    1
    87   173   172   ar
    88    69    66    1
    89    92    93    2
    90    92    98   am
    91    66    65    1
    92     3     4    2
    93   168   169    1
    94   168   167    1
    95   168   171    1
    96   169   170    2
    97   167   163   am
    98   172   171    1
    99   172   174   ar
   100    98    99    1
   101   165   162    1
   102   165   166    1
   103   163   162    1
   104   163   164    2
   105   162   161    1
   106    99   100    1
   107    99   102    1
   108   101   100    2
   109   159   158    1
   110   103   102    1
   111   103   104    1
   112   100   106   am
   113   104   105    1
   114   106   107    1
   115   151   150    2
   116   158   160    1
   117   158   157    1
   118   107   108    1
   119   107   110    1
   120   138   137    1
   121   109   108    2
   122   152   150   am
   123   150   149    1
   124   157   154    1
   125   108   115   am
   126   110   111    1
   127   142   141    2
   128   115   116    1
   129   149   146    1
   130   148   147    2
   131   137   136    1
   132   146   147    1
   133   146   145    1
   134   111   112    1
   135   129   127   ar
   136   118   117    2
   137   116   117    1
   138   116   119    1
   139   154   153    1
   140   154   155    1
   141   141   145   am
   142   141   140    1
   143   117   122   am
   144   144   143    1
   145   136   135    1
   146   126   127    1
   147   126   123    1
   148   112   113   ar
   149   112   114   ar
   150   155   156    2
   151   143   140    1
   152   127   128   ar
   153   122   123    1
   154   119   120    1
   155   119   121    1
   156   140   139    1
   157   123   124    1
   158   135   134    1
   159   134   131    1
   160   124   125    2
   161   130   131    1
   162   131   132    1
   163   132   133    2
