@<TRIPOS>MOLECULE
tmp/5nhvA00.pdb
 160 149 0 0 0
SMALL
GASTEIGER

@<TRIPOS>ATOM
      1  N        -19.5650   20.4210   38.4590 N.3    21  ILE21      -0.1245
      2  CA       -19.2580   19.7950   39.7510 C.3    21  ILE21       0.1561
      3  C        -18.0550   20.5080   40.3930 C.2    21  ILE21       0.2260
      4  O        -18.2440   21.2730   41.3430 O.2    21  ILE21      -0.2867
      5  CB       -19.1190   18.2340   39.6860 C.3    21  ILE21       0.0252
      6  CG1      -20.4900   17.5640   39.4370 C.3    21  ILE21       0.0019
      7  CG2      -18.4420   17.6590   40.9600 C.3    21  ILE21       0.0019
      8  CD1      -20.4450   16.0380   39.2100 C.3    21  ILE21       0.0001
      9  N         -6.6710   17.7520   37.9410 N.3    26  TYR26      -0.1241
     10  CA        -7.0450   16.4820   37.3400 C.3    26  TYR26       0.1605
     11  C         -7.8780   16.7110   36.0870 C.2    26  TYR26       0.2264
     12  O         -8.2500   15.7640   35.4000 O.2    26  TYR26      -0.2867
     13  CB        -7.8530   15.6640   38.3400 C.3    26  TYR26       0.0534
     14  CG        -8.9040   16.4810   39.0470 C.ar   26  TYR26      -0.0201
     15  CD1      -10.1330   16.7130   38.4600 C.ar   26  TYR26      -0.0009
     16  CD2       -8.6590   17.0370   40.2940 C.ar   26  TYR26      -0.0009
     17  CE1      -11.0970   17.4630   39.0950 C.ar   26  TYR26       0.0417
     18  CE2       -9.6200   17.7900   40.9400 C.ar   26  TYR26       0.0417
     19  CZ       -10.8370   18.0000   40.3330 C.ar   26  TYR26       0.1957
     20  OH       -11.8030   18.7460   40.9630 O.3    26  TYR26      -0.2866
     21  N        -14.5420   18.2350   36.1810 N.3    29  VAL29      -0.1245
     22  CA       -15.6310   17.2810   36.3590 C.3    29  VAL29       0.1561
     23  C        -17.0220   17.9120   36.2600 C.2    29  VAL29       0.2260
     24  O        -17.2260   19.0540   36.6590 O.2    29  VAL29      -0.2867
     25  CB       -15.4990   16.5370   37.6960 C.3    29  VAL29       0.0252
     26  CG1      -16.6650   15.5840   37.8890 C.3    29  VAL29       0.0019
     27  CG2      -14.1770   15.7940   37.7520 C.3    29  VAL29       0.0019
     28  N        -21.0400   11.0820   36.1110 N.3    42  ALA42      -0.1245
     29  CA       -19.9930   12.0630   36.3060 C.3    42  ALA42       0.1562
     30  C        -19.0320   11.9470   35.1090 C.2    42  ALA42       0.2260
     31  O        -18.7280   10.8370   34.6550 O.2    42  ALA42      -0.2867
     32  CB       -19.2640   11.7960   37.6020 C.3    42  ALA42       0.0290
     33  N        -15.3470   13.4810   33.5670 N.3    44  LYS44      -0.1245
     34  CA       -14.0940   14.1720   33.8420 C.3    44  LYS44       0.1561
     35  C        -13.4140   14.4920   32.5130 C.2    44  LYS44       0.2260
     36  O        -13.0730   13.5760   31.7720 O.2    44  LYS44      -0.2867
     37  CB       -13.1970   13.3070   34.7580 C.3    44  LYS44       0.0271
     38  CG       -11.8860   13.9610   35.1740 C.3    44  LYS44       0.0035
     39  CD       -11.2830   13.2930   36.4090 C.3    44  LYS44       0.0206
     40  CE       -10.2490   12.2380   36.0990 C.3    44  LYS44       0.1093
     41  NZ        -9.3480   12.0050   37.2620 N.3    44  LYS44      -0.1314
     42  N         -3.9700    6.6120   35.2860 N.3    61  GLU61      -0.1245
     43  CA        -5.3300    6.4490   35.7580 C.3    61  GLU61       0.1567
     44  C         -6.1610    5.5440   34.8570 C.2    61  GLU61       0.2260
     45  O         -6.7610    4.5860   35.3260 O.2    61  GLU61      -0.2867
     46  CB        -6.0160    7.7990   35.8930 C.3    61  GLU61       0.0388
     47  CG        -7.4420    7.6790   36.3850 C.3    61  GLU61       0.1160
     48  CD        -8.0300    9.0050   36.7970 C.2    61  GLU61       0.3649
     49  OE1       -8.0420    9.9230   35.9550 O.co2  61  GLU61      -0.2457
     50  OE2       -8.4740    9.1250   37.9560 O.co2  61  GLU61      -0.2457
     51  N        -13.9060    3.6280   42.4000 N.3    74  ILE74      -0.1245
     52  CA       -14.6620    4.1550   41.2470 C.3    74  ILE74       0.1561
     53  C        -14.2620    3.4430   39.9120 C.2    74  ILE74       0.2260
     54  O        -13.0810    3.2520   39.6070 O.2    74  ILE74      -0.2867
     55  CB       -14.5660    5.7150   41.1680 C.3    74  ILE74       0.0252
     56  CG1      -15.7090    6.3350   40.3230 C.3    74  ILE74       0.0019
     57  CG2      -13.1940    6.1800   40.6880 C.3    74  ILE74       0.0019
     58  CD1      -17.1640    6.3090   40.9680 C.3    74  ILE74       0.0001
     59  N        -17.9350    8.1790   34.7490 N.3    95  GLN95      -0.1231
     60  CA       -18.0090    7.4030   35.9900 C.3    95  GLN95       0.1698
     61  C        -19.3950    7.4710   36.6210 C.2    95  GLN95       0.2592
     62  O        -20.1460    8.4260   36.3840 O.2    95  GLN95      -0.2718
     63  CB       -16.9440    7.9170   36.9800 C.3    95  GLN95       0.0381
     64  CG       -15.5110    7.6520   36.4770 C.3    95  GLN95       0.0905
     65  CD       -14.4280    8.2740   37.3200 C.2    95  GLN95       0.2608
     66  OE1      -14.5500    9.3980   37.8260 O.2    95  GLN95      -0.2717
     67  NE2      -13.3240    7.5540   37.4620 N.am   95  GLN95      -0.0878
     68  N        -19.7250    6.4710   37.4590 N.am   96  ASP96      -0.1960
     69  CA       -20.9860    6.4560   38.2130 C.3    96  ASP96       0.1840
     70  C        -21.0290    7.7360   39.0440 C.2    96  ASP96       0.2622
     71  O        -19.9990    8.1320   39.6020 O.2    96  ASP96      -0.2715
     72  CB       -21.0460    5.2390   39.1570 C.3    96  ASP96       0.1450
     73  CG       -21.2280    3.8880   38.4880 C.2    96  ASP96       0.3671
     74  OD1      -21.7120    3.8520   37.3290 O.co2  96  ASP96      -0.2456
     75  OD2      -20.9530    2.8620   39.1490 O.co2  96  ASP96      -0.2456
     76  N        -22.1720    8.4260   39.0510 N.am   97  LEU97      -0.1963
     77  CA       -22.2850    9.6650   39.8040 C.3    97  LEU97       0.1728
     78  C        -22.4200    9.3680   41.2990 C.2    97  LEU97       0.2616
     79  O        -23.2340    8.5310   41.6920 O.2    97  LEU97      -0.2715
     80  CB       -23.4490   10.5370   39.2990 C.3    97  LEU97       0.0311
     81  CG       -23.6630   11.8970   39.9880 C.3    97  LEU97       0.0022
     82  CD1      -22.5020   12.8570   39.7340 C.3    97  LEU97       0.0001
     83  CD2      -24.9540   12.5230   39.5290 C.3    97  LEU97       0.0001
     84  N        -21.6040   10.0380   42.1020 N.am   98  MET98      -0.1963
     85  CA       -21.6710    9.9300   43.5480 C.3    98  MET98       0.1736
     86  C        -22.2010   11.2460   44.1020 C.2    98  MET98       0.2616
     87  O        -21.9680   12.2990   43.5250 O.2    98  MET98      -0.2715
     88  CB       -20.2930    9.6040   44.1280 C.3    98  MET98       0.0427
     89  CG       -19.7280    8.2650   43.6760 C.3    98  MET98       0.0599
     90  SD       -20.6890    6.8330   44.2060 S.3    98  MET98      -0.1393
     91  CE       -20.0440    6.5780   45.8530 C.3    98  MET98       0.0692
     92  N        -22.9280   11.1790   45.2090 N.am   99  GLU99      -0.1963
     93  CA       -23.5910   12.3550   45.7590 C.3    99  GLU99       0.1733
     94  C        -22.6370   13.4020   46.3390 C.2    99  GLU99       0.2617
     95  O        -22.8460   14.5960   46.1670 O.2    99  GLU99      -0.2715
     96  CB       -24.6310   11.9440   46.8030 C.3    99  GLU99       0.0429
     97  CG       -25.9290   12.7270   46.7180 C.3    99  GLU99       0.1163
     98  CD       -27.1490   11.8760   47.0060 C.2    99  GLU99       0.3649
     99  OE1      -27.2030   11.2670   48.0950 O.co2  99  GLU99      -0.2457
    100  OE2      -28.0510   11.8130   46.1440 O.co2  99  GLU99      -0.2457
    101  N        -21.5930   12.9540   47.0230 N.am  100  THR100     -0.1937
    102  CA       -20.6720   13.8730   47.6770 C.3   100  THR100      0.2028
    103  C        -19.3010   13.2350   47.9240 C.2   100  THR100      0.2642
    104  O        -19.0210   12.1490   47.4430 O.2   100  THR100     -0.2714
    105  CB       -21.2750   14.3990   49.0000 C.3   100  THR100      0.1808
    106  OG1      -20.4590   15.4480   49.5320 O.3   100  THR100     -0.2208
    107  CG2      -21.4090   13.2800   50.0240 C.3   100  THR100      0.0379
    108  N        -18.4470   13.9280   48.6650 N.am  101  ASP101     -0.1971
    109  CA       -17.1690   13.3830   49.0590 C.3   101  ASP101      0.1709
    110  C        -17.0410   13.6110   50.5590 C.2   101  ASP101      0.2293
    111  O        -17.7960   14.4200   51.1180 O.2   101  ASP101     -0.2864
    112  CB       -15.9940   13.9500   48.2280 C.3   101  ASP101      0.1436
    113  CG       -15.8270   15.4570   48.2580 C.2   101  ASP101      0.3671
    114  OD1      -15.6270   16.0080   49.3530 O.co2 101  ASP101     -0.2456
    115  OD2      -15.7870   16.0730   47.1700 O.co2 101  ASP101     -0.2456
    116  N        -16.2840   17.4450   51.7200 N.3   104  LYS104     -0.1245
    117  CA       -17.5230   18.2390   51.8380 C.3   104  LYS104      0.1561
    118  C        -18.3430   17.8170   53.0720 C.2   104  LYS104      0.2260
    119  O        -18.7630   18.6750   53.8360 O.2   104  LYS104     -0.2867
    120  CB       -18.3630   18.1080   50.5620 C.3   104  LYS104      0.0271
    121  CG       -17.7140   18.7890   49.3680 C.3   104  LYS104      0.0035
    122  CD       -18.5630   18.4890   48.1470 C.3   104  LYS104      0.0206
    123  CE       -18.1080   19.0890   46.8380 C.3   104  LYS104      0.1093
    124  NZ       -17.9880   20.5460   46.8900 N.3   104  LYS104     -0.1314
    125  N        -11.1870   14.4500   49.9420 N.3   143  SER143     -0.1202
    126  CA       -11.7670   14.8110   48.6300 C.3   143  SER143      0.2020
    127  C        -11.6620   13.6860   47.5670 C.2   143  SER143      0.2618
    128  O        -12.3320   13.7530   46.5280 O.2   143  SER143     -0.2717
    129  CB       -11.1800   16.1240   48.1040 C.3   143  SER143      0.2103
    130  OG        -9.8320   15.9300   47.7090 O.3   143  SER143     -0.2182
    131  N        -10.8320   12.6640   47.8280 N.am  144  ASN144     -0.1974
    132  CA       -10.6890   11.4960   46.9530 C.3   144  ASN144      0.1688
    133  C        -11.5430   10.3200   47.4170 C.2   144  ASN144      0.2292
    134  O        -11.4830    9.2360   46.8180 O.2   144  ASN144     -0.2864
    135  CB        -9.2070   11.1100   46.7450 C.3   144  ASN144      0.1181
    136  CG        -8.5330   12.0630   45.7730 C.2   144  ASN144      0.2629
    137  OD1       -9.2000   12.7910   45.0230 O.2   144  ASN144     -0.2716
    138  ND2       -7.2120   12.0950   45.7650 N.am  144  ASN144     -0.0877
    139  N        -15.3510    9.3100   47.7170 N.3   146  LEU146     -0.1245
    140  CA       -16.7140    9.6270   47.2710 C.3   146  LEU146      0.1561
    141  C        -17.7560    8.8440   48.0440 C.2   146  LEU146      0.2260
    142  O        -17.5190    7.6920   48.4020 O.2   146  LEU146     -0.2867
    143  CB       -16.8800    9.3480   45.7640 C.3   146  LEU146      0.0270
    144  CG       -15.8220    9.9380   44.8290 C.3   146  LEU146      0.0019
    145  CD1      -15.9920    9.4160   43.4340 C.3   146  LEU146      0.0001
    146  CD2      -15.8010   11.4930   44.8840 C.3   146  LEU146      0.0001
    147  N        -11.4240    7.4330   44.5960 N.3   156  CYS156     -0.1221
    148  CA       -11.2450    7.9290   43.2260 C.3   156  CYS156      0.1808
    149  C         -9.8470    8.5560   43.0530 C.2   156  CYS156      0.2601
    150  O         -9.0930    8.6420   44.0200 O.2   156  CYS156     -0.2717
    151  CB       -12.3460    8.9190   42.8570 C.3   156  CYS156      0.0970
    152  SG       -12.1510   10.5420   43.6220 S.3   156  CYS156     -0.0800
    153  N         -9.5450    9.0130   41.8160 N.am  157  ASP157     -0.1973
    154  CA        -8.3270    9.7100   41.3850 C.3   157  ASP157      0.1709
    155  C         -7.0040    8.9320   41.6070 C.2   157  ASP157      0.2293
    156  O         -6.3360    9.0810   42.6410 O.2   157  ASP157     -0.2864
    157  CB        -8.2320   11.1200   41.9990 C.3   157  ASP157      0.1436
    158  CG        -7.4980   12.1070   41.1050 C.2   157  ASP157      0.3671
    159  OD1       -6.5820   11.6720   40.3480 O.co2 157  ASP157     -0.2456
    160  OD2       -7.8450   13.3040   41.1410 O.co2 157  ASP157     -0.2456
@<TRIPOS>BOND
     1    36    35    2
     2    35    34    1
     3    33    34    1
     4    34    37    1
     5    31    30    2
     6    59    60    1
     7    37    38    1
     8    44    45    2
     9    44    43    1
    10    30    29    1
    11    38    39    1
    12    42    43    1
    13    12    11    2
    14    43    46    1
    15    46    47    1
    16    49    48   ar
    17    60    61    1
    18    60    63    1
    19    11    10    1
    20    40    39    1
    21    40    41    1
    22    28    29    1
    23    21    22    1
    24    23    22    1
    25    23    24    2
    26    29    32    1
    27    22    25    1
    28    62    61    2
    29    47    48    1
    30    64    63    1
    31    64    65    1
    32    61    68   am
    33    48    50   ar
    34    65    67   am
    35    65    66    2
    36    74    73   ar
    37    10     9    1
    38    10    13    1
    39    68    69    1
    40    25    27    1
    41    25    26    1
    42    69    70    1
    43    69    72    1
    44    13    14    1
    45     1     2    1
    46    15    14   ar
    47    15    17   ar
    48    73    75   ar
    49    73    72    1
    50    70    76   am
    51    70    71    2
    52    14    16   ar
    53    76    77    1
    54    17    19   ar
    55     8     6    1
    56    80    77    1
    57    80    81    1
    58     6     5    1
    59    83    81    1
    60    54    53    2
    61     5     2    1
    62     5     7    1
    63    82    81    1
    64     2     3    1
    65    77    78    1
    66    53    52    1
    67    16    18   ar
    68    56    58    1
    69    56    55    1
    70    19    18   ar
    71    19    20    1
    72   159   158   ar
    73     3     4    2
    74    57    55    1
    75   158   160   ar
    76   158   157    1
    77    55    52    1
    78    52    51    1
    79    78    79    2
    80    78    84   am
    81   154   155    1
    82   154   153    1
    83   154   157    1
    84   155   156    2
    85   153   149   am
    86    84    85    1
    87   151   148    1
    88   151   152    1
    89   149   148    1
    90   149   150    2
    91   148   147    1
    92   145   144    1
    93    87    86    2
    94    85    86    1
    95    85    88    1
    96    89    88    1
    97    89    90    1
    98    86    92   am
    99    90    91    1
   100   144   146    1
   101   144   143    1
   102   137   136    2
   103    92    93    1
   104    93    94    1
   105    93    96    1
   106   143   140    1
   107   138   136   am
   108   136   135    1
   109   100    98   ar
   110    95    94    2
   111    94   101   am
   112   128   127    2
   113    97    96    1
   114    97    98    1
   115   135   132    1
   116   134   133    2
   117   123   124    1
   118   123   122    1
   119   132   133    1
   120   132   131    1
   121    98    99   ar
   122   101   102    1
   123   115   113   ar
   124   140   139    1
   125   140   141    1
   126   104   103    2
   127   127   131   am
   128   127   126    1
   129   102   103    1
   130   102   105    1
   131   130   129    1
   132   103   108   am
   133   141   142    2
   134   129   126    1
   135   122   121    1
   136   112   113    1
   137   112   109    1
   138   113   114   ar
   139   126   125    1
   140   108   109    1
   141   105   106    1
   142   105   107    1
   143   109   110    1
   144   121   120    1
   145   110   111    2
   146   120   117    1
   147   116   117    1
   148   117   118    1
   149   118   119    2
