@<TRIPOS>MOLECULE
tmp/5nhxA00.pdb
 133 127 0 0 0
SMALL
GASTEIGER

@<TRIPOS>ATOM
      1  N        -20.3180    6.4190   -3.2230 N.3     9  SER9       -0.1202
      2  CA       -21.2670    5.3130   -3.2940 C.3     9  SER9        0.2020
      3  C        -20.5560    3.9720   -3.4410 C.2     9  SER9        0.2618
      4  O        -20.9900    2.9640   -2.8740 O.2     9  SER9       -0.2717
      5  CB       -22.2290    5.5580   -4.4630 C.3     9  SER9        0.2103
      6  OG       -23.2040    4.5440   -4.5730 O.3     9  SER9       -0.2182
      7  N        -19.4600    3.9410   -4.2200 N.am   10  ASP10      -0.1973
      8  CA       -18.7380    2.6900   -4.4650 C.3    10  ASP10       0.1709
      9  C        -18.1130    2.1360   -3.1900 C.2    10  ASP10       0.2293
     10  O        -17.9050    0.9240   -3.0800 O.2    10  ASP10      -0.2864
     11  CB       -17.6180    2.8830   -5.4900 C.3    10  ASP10       0.1436
     12  CG       -18.1140    3.1620   -6.9060 C.2    10  ASP10       0.3671
     13  OD1      -19.3420    3.1910   -7.1580 O.co2  10  ASP10      -0.2456
     14  OD2      -17.2330    3.3750   -7.7770 O.co2  10  ASP10      -0.2456
     15  N        -21.4960    0.8060   -0.8930 N.3    13  PHE13      -0.1227
     16  CA       -22.4210   -0.1950   -1.4120 C.3    13  PHE13       0.1736
     17  C        -21.7750   -0.9720   -2.5460 C.2    13  PHE13       0.2595
     18  O        -20.8870   -0.4620   -3.2340 O.2    13  PHE13      -0.2718
     19  CB       -23.7120    0.4440   -1.9760 C.3    13  PHE13       0.0547
     20  CG       -24.3340    1.4650   -1.0700 C.ar   13  PHE13      -0.0202
     21  CD1      -25.0490    1.0640    0.0430 C.ar   13  PHE13      -0.0042
     22  CD2      -24.2050    2.8190   -1.3330 C.ar   13  PHE13      -0.0042
     23  CE1      -25.6330    2.0030    0.8890 C.ar   13  PHE13      -0.0003
     24  CE2      -24.7890    3.7680   -0.5010 C.ar   13  PHE13      -0.0003
     25  CZ       -25.5020    3.3540    0.6160 C.ar   13  PHE13      -0.0000
     26  N        -22.2720   -2.1930   -2.7590 N.am   14  ASN14      -0.1960
     27  CA       -21.9660   -3.0130   -3.9230 C.3    14  ASN14       0.1819
     28  C        -22.9920   -2.7400   -5.0200 C.2    14  ASN14       0.2621
     29  O        -24.0580   -2.1860   -4.7610 O.2    14  ASN14      -0.2715
     30  CB       -21.9640   -4.4900   -3.5470 C.3    14  ASN14       0.1195
     31  CG       -20.8050   -4.8520   -2.6370 C.2    14  ASN14       0.2630
     32  OD1      -19.7470   -4.2250   -2.6820 O.2    14  ASN14      -0.2716
     33  ND2      -20.9880   -5.8750   -1.8320 N.am   14  ASN14      -0.0877
     34  N        -22.6600   -3.1240   -6.2570 N.am   15  PHE15      -0.1960
     35  CA       -23.5250   -2.7660   -7.3780 C.3    15  PHE15       0.1771
     36  C        -24.9200   -3.3710   -7.2130 C.2    15  PHE15       0.2619
     37  O        -25.0730   -4.4720   -6.6840 O.2    15  PHE15      -0.2715
     38  CB       -22.8900   -3.2110   -8.7100 C.3    15  PHE15       0.0574
     39  CG       -23.1360   -4.6620   -9.0650 C.ar   15  PHE15      -0.0200
     40  CD1      -22.2740   -5.6500   -8.6230 C.ar   15  PHE15      -0.0042
     41  CD2      -24.2130   -5.0310   -9.8620 C.ar   15  PHE15      -0.0042
     42  CE1      -22.4800   -6.9810   -8.9440 C.ar   15  PHE15      -0.0003
     43  CE2      -24.4300   -6.3590  -10.1840 C.ar   15  PHE15      -0.0003
     44  CZ       -23.5590   -7.3410   -9.7260 C.ar   15  PHE15      -0.0000
     45  N        -25.9380   -2.6360   -7.6740 N.am   16  ASN16      -0.1972
     46  CA       -27.3570   -2.9910   -7.5900 C.3    16  ASN16       0.1688
     47  C        -27.8930   -3.0700   -6.1640 C.2    16  ASN16       0.2292
     48  O        -29.0400   -3.4840   -5.9790 O.2    16  ASN16      -0.2864
     49  CB       -27.6720   -4.3360   -8.2580 C.3    16  ASN16       0.1181
     50  CG       -27.6160   -4.2880   -9.7800 C.2    16  ASN16       0.2629
     51  OD1      -27.2130   -3.2950  -10.3790 O.2    16  ASN16      -0.2716
     52  ND2      -28.0290   -5.3810  -10.4090 N.am   16  ASN16      -0.0877
     53  N        -26.6690    8.7570   -8.5660 N.3    51  THR51      -0.1203
     54  CA       -25.9890    7.7530   -9.3740 C.3    51  THR51       0.1994
     55  C        -25.3620    8.4240  -10.5920 C.2    51  THR51       0.2617
     56  O        -25.6030    9.5990  -10.8690 O.2    51  THR51      -0.2717
     57  CB       -26.9570    6.6700   -9.8770 C.3    51  THR51       0.1784
     58  OG1      -27.8720    7.2650  -10.8120 O.3    51  THR51      -0.2211
     59  CG2      -27.7300    6.0210   -8.7320 C.3    51  THR51       0.0376
     60  N        -24.5950    7.6440  -11.3550 N.am   52  ASP52      -0.1973
     61  CA       -24.1440    8.1130  -12.6610 C.3    52  ASP52       0.1709
     62  C        -25.2410    7.8890  -13.7090 C.2    52  ASP52       0.2293
     63  O        -26.3430    7.4210  -13.4070 O.2    52  ASP52      -0.2864
     64  CB       -22.8130    7.4550  -13.0370 C.3    52  ASP52       0.1436
     65  CG       -22.9140    5.9450  -13.3150 C.2    52  ASP52       0.3671
     66  OD1      -23.9580    5.4220  -13.7770 O.co2  52  ASP52      -0.2456
     67  OD2      -21.8870    5.2700  -13.1090 O.co2  52  ASP52      -0.2456
     68  N        -25.3620    5.9310  -16.4020 N.3    54  ILE54      -0.1245
     69  CA       -25.4310    4.6540  -17.1090 C.3    54  ILE54       0.1561
     70  C        -26.6600    3.8830  -16.6440 C.2    54  ILE54       0.2260
     71  O        -26.9150    3.7740  -15.4420 O.2    54  ILE54      -0.2867
     72  CB       -24.1460    3.8410  -16.8760 C.3    54  ILE54       0.0252
     73  CG1      -22.9490    4.5870  -17.4710 C.3    54  ILE54       0.0019
     74  CG2      -24.2610    2.4380  -17.4780 C.3    54  ILE54       0.0019
     75  CD1      -21.6260    4.0680  -17.0010 C.3    54  ILE54       0.0001
     76  N        -34.6320    3.1270  -12.7040 N.3    59  TYR59      -0.1227
     77  CA       -33.9460    2.2160  -11.7900 C.3    59  TYR59       0.1736
     78  C        -32.8990    2.9540  -10.9700 C.2    59  TYR59       0.2595
     79  O        -32.7470    2.7010   -9.7680 O.2    59  TYR59      -0.2718
     80  CB       -33.3030    1.0670  -12.5700 C.3    59  TYR59       0.0548
     81  CG       -32.5250    0.1060  -11.6960 C.ar   59  TYR59      -0.0200
     82  CD1      -33.1640   -0.9350  -11.0490 C.ar   59  TYR59      -0.0009
     83  CD2      -31.1470    0.2450  -11.5250 C.ar   59  TYR59      -0.0009
     84  CE1      -32.4630   -1.8140  -10.2420 C.ar   59  TYR59       0.0417
     85  CE2      -30.4360   -0.6250  -10.7170 C.ar   59  TYR59       0.0417
     86  CZ       -31.1040   -1.6500  -10.0770 C.ar   59  TYR59       0.1957
     87  OH       -30.4170   -2.5280   -9.2840 O.3    59  TYR59      -0.2866
     88  N        -32.1830    3.8880  -11.5970 N.am   60  ASN60      -0.1974
     89  CA       -31.1670    4.6530  -10.8780 C.3    60  ASN60       0.1688
     90  C        -31.7840    5.5600   -9.8170 C.2    60  ASN60       0.2292
     91  O        -31.2200    5.7250   -8.7300 O.2    60  ASN60      -0.2864
     92  CB       -30.3410    5.4620  -11.8770 C.3    60  ASN60       0.1181
     93  CG       -29.3420    4.5960  -12.6240 C.2    60  ASN60       0.2629
     94  OD1      -28.9240    3.5550  -12.1200 O.2    60  ASN60      -0.2716
     95  ND2      -28.9670    5.0100  -13.8280 N.am   60  ASN60      -0.0877
     96  N        -32.7750    3.1250   -6.9830 N.3    63  LEU63      -0.1245
     97  CA       -31.5830    2.6730   -6.2680 C.3    63  LEU63       0.1561
     98  C        -30.9810    3.7870   -5.4170 C.2    63  LEU63       0.2260
     99  O        -30.5250    3.5380   -4.2930 O.2    63  LEU63      -0.2867
    100  CB       -30.5510    2.1390   -7.2690 C.3    63  LEU63       0.0270
    101  CG       -29.2200    1.6740   -6.6720 C.3    63  LEU63       0.0019
    102  CD1      -29.4220    0.4450   -5.7770 C.3    63  LEU63       0.0001
    103  CD2      -28.2190    1.3760   -7.7940 C.3    63  LEU63       0.0001
    104  N        -30.3680    3.6260   -1.3340 N.3    67  ARG67      -0.1245
    105  CA       -29.0560    3.8960   -0.7480 C.3    67  ARG67       0.1563
    106  C        -29.1080    5.0620    0.2370 C.2    67  ARG67       0.2260
    107  O        -28.5330    4.9860    1.3310 O.2    67  ARG67      -0.2867
    108  CB       -28.0350    4.1610   -1.8580 C.3    67  ARG67       0.0307
    109  CG       -27.5580    2.8880   -2.5240 C.3    67  ARG67       0.0489
    110  CD       -26.8240    3.1670   -3.8620 C.3    67  ARG67       0.2205
    111  NE       -26.2180    1.9300   -4.3340 N.pl3  67  ARG67      -0.0865
    112  CZ       -25.4810    1.8120   -5.4320 C.cat  67  ARG67       0.5346
    113  NH1      -25.2460    2.8690   -6.1890 N.pl3  67  ARG67       0.1354
    114  NH2      -24.9810    0.6300   -5.7600 N.pl3  67  ARG67       0.1354
    115  N        -16.6110    4.2430  -16.5300 N.3   111  ILE111     -0.1245
    116  CA       -16.9820    4.0130  -15.1310 C.3   111  ILE111      0.1561
    117  C        -16.1030    4.8400  -14.1950 C.2   111  ILE111      0.2260
    118  O        -16.5900    5.4490  -13.2320 O.2   111  ILE111     -0.2867
    119  CB       -16.8770    2.5070  -14.8250 C.3   111  ILE111      0.0252
    120  CG1      -18.1430    1.7750  -15.2760 C.3   111  ILE111      0.0019
    121  CG2      -16.5770    2.2670  -13.3630 C.3   111  ILE111      0.0019
    122  CD1      -19.2840    1.9230  -14.3190 C.3   111  ILE111      0.0001
    123  N        -21.2530    9.2310   -8.5230 N.3   118  ARG118     -0.1245
    124  CA       -21.7870    8.1540   -7.6890 C.3   118  ARG118      0.1563
    125  C        -21.4740    8.4970   -6.2410 C.2   118  ARG118      0.2260
    126  O        -20.4140    8.1590   -5.7090 O.2   118  ARG118     -0.2867
    127  CB       -21.1980    6.8010   -8.0870 C.3   118  ARG118      0.0307
    128  CG       -21.4490    6.4420   -9.5710 C.3   118  ARG118      0.0489
    129  CD       -21.1830    4.9750   -9.8850 C.3   118  ARG118      0.2205
    130  NE       -19.7830    4.6070   -9.7080 N.pl3 118  ARG118     -0.0865
    131  CZ       -18.8390    4.7730  -10.6290 C.cat 118  ARG118      0.5346
    132  NH1      -19.1310    5.3170  -11.8040 N.pl3 118  ARG118      0.1354
    133  NH2      -17.5950    4.4090  -10.3660 N.pl3 118  ARG118      0.1354
@<TRIPOS>BOND
     1    74    72    1
     2    73    75    1
     3    73    72    1
     4    69    72    1
     5    69    70    1
     6    69    68    1
     7    70    71    2
     8   115   116    1
     9   120   119    1
    10   120   122    1
    11   116   119    1
    12   116   117    1
    13   119   121    1
    14   117   118    2
    15    95    93   am
    16    66    65   ar
    17    62    63    2
    18    62    61    1
    19    65    67   ar
    20    65    64    1
    21    64    61    1
    22    76    77    1
    23    61    60    1
    24    93    94    2
    25    93    92    1
    26    80    77    1
    27    80    81    1
    28    92    89    1
    29   132   131    1
    30    77    78    1
    31    81    83   ar
    32    81    82   ar
    33    88    78   am
    34    88    89    1
    35    83    85   ar
    36    60    55   am
    37    82    84   ar
    38    78    79    2
    39    89    90    1
    40    56    55    2
    41    58    57    1
    42    85    86   ar
    43   131   133    1
    44   131   130    2
    45    55    54    1
    46    52    50   am
    47    51    50    2
    48    84    86   ar
    49    43    41   ar
    50    43    44   ar
    51    86    87    1
    52   129   130    1
    53   129   128    1
    54    57    54    1
    55    57    59    1
    56    41    39   ar
    57    90    91    2
    58    50    49    1
    59    44    42   ar
    60   128   127    1
    61    54    53    1
    62    39    38    1
    63    39    40   ar
    64    42    40   ar
    65    38    35    1
    66   123   124    1
    67    49    46    1
    68   127   124    1
    69   103   101    1
    70    14    12   ar
    71   124   125    1
    72    45    46    1
    73    45    36   am
    74    46    47    1
    75    35    36    1
    76    35    34    1
    77   100   101    1
    78   100    97    1
    79    36    37    2
    80    13    12   ar
    81    96    97    1
    82    12    11    1
    83   101   102    1
    84    97    98    1
    85    34    28   am
    86   125   126    2
    87   113   112    1
    88    47    48    2
    89   114   112    1
    90    11     8    1
    91   112   111    2
    92    98    99    2
    93    28    29    2
    94    28    27    1
    95     6     5    1
    96     8     7    1
    97     8     9    1
    98     5     2    1
    99   111   110    1
   100     7     3   am
   101    27    30    1
   102    27    26    1
   103   110   109    1
   104    30    31    1
   105     3     2    1
   106     3     4    2
   107     2     1    1
   108    18    17    2
   109     9    10    2
   110    26    17   am
   111    32    31    2
   112    31    33   am
   113    17    16    1
   114   109   108    1
   115    19    16    1
   116    19    20    1
   117   108   105    1
   118    16    15    1
   119   104   105    1
   120    22    20   ar
   121    22    24   ar
   122    20    21   ar
   123   105   106    1
   124    24    25   ar
   125    21    23   ar
   126   106   107    2
   127    25    23   ar
