@<TRIPOS>MOLECULE
tmp/5nhyA00.pdb
 190 185 0 0 0
SMALL
GASTEIGER

@<TRIPOS>ATOM
      1  N         -5.4610    2.7780   12.9680 N.3     5  TYR5       -0.1227
      2  CA        -5.4610    4.2220   13.1060 C.3     5  TYR5        0.1736
      3  C         -5.1020    4.8280   11.7700 C.2     5  TYR5        0.2596
      4  O         -4.5110    4.1550   10.9150 O.2     5  TYR5       -0.2718
      5  CB        -4.4230    4.7090   14.1320 C.3     5  TYR5        0.0548
      6  CG        -4.7470    4.3610   15.5490 C.ar    5  TYR5       -0.0200
      7  CD1       -4.5290    3.0880   16.0260 C.ar    5  TYR5       -0.0009
      8  CD2       -5.2510    5.3170   16.4210 C.ar    5  TYR5       -0.0009
      9  CE1       -4.8390    2.7380   17.3280 C.ar    5  TYR5        0.0417
     10  CE2       -5.5570    4.9800   17.7280 C.ar    5  TYR5        0.0417
     11  CZ        -5.3270    3.7170   18.1740 C.ar    5  TYR5        0.1957
     12  OH        -5.6420    3.3870   19.4600 O.3     5  TYR5       -0.2866
     13  N         -5.3740    6.1330   11.6260 N.am    6  THR6       -0.1939
     14  CA        -4.9990    6.8770   10.4440 C.3     6  THR6        0.2028
     15  C         -4.2210    8.0590   10.8610 C.2     6  THR6        0.2642
     16  O         -4.3740    8.5440   11.9880 O.2     6  THR6       -0.2714
     17  CB        -6.1860    7.3700    9.6160 C.3     6  THR6        0.1808
     18  OG1       -7.1200    8.1210   10.4430 O.3     6  THR6       -0.2208
     19  CG2       -6.8830    6.2350    8.9600 C.3     6  THR6        0.0379
     20  N         -3.4600    8.5870    9.9110 N.am    7  LEU7       -0.1977
     21  CA        -2.7730    9.8440   10.0750 C.3     7  LEU7        0.1596
     22  C         -2.6330   10.5090    8.7250 C.2     7  LEU7        0.2287
     23  O         -2.1900    9.8380    7.7970 O.2     7  LEU7       -0.2864
     24  CB        -1.3880    9.5270   10.6480 C.3     7  LEU7        0.0297
     25  CG        -0.6090   10.6020   11.3460 C.3     7  LEU7        0.0022
     26  CD1       -1.3440   11.0960   12.5930 C.3     7  LEU7        0.0001
     27  CD2        0.7930   10.1200   11.6970 C.3     7  LEU7        0.0001
     28  N         -1.2340   13.8500    6.4790 N.3     9  LEU9       -0.1245
     29  CA        -0.3250   14.9920    6.3750 C.3     9  LEU9        0.1561
     30  C         -0.7110   15.7750    5.1410 C.2     9  LEU9        0.2260
     31  O         -0.6610   15.2990    4.0240 O.2     9  LEU9       -0.2867
     32  CB         1.1110   14.5460    6.2860 C.3     9  LEU9        0.0270
     33  CG         1.8880   14.1090    7.5540 C.3     9  LEU9        0.0019
     34  CD1        1.9660   15.2360    8.5520 C.3     9  LEU9        0.0001
     35  CD2        1.3010   12.8600    8.1850 C.3     9  LEU9        0.0001
     36  N          0.0270   21.0950   10.3470 N.3    18  LEU18      -0.1245
     37  CA         0.0420   20.2510   11.5140 C.3    18  LEU18       0.1561
     38  C         -0.9110   20.8240   12.5130 C.2    18  LEU18       0.2260
     39  O         -1.2270   22.0300   12.4830 O.2    18  LEU18      -0.2867
     40  CB         1.4260   20.2150   12.1150 C.3    18  LEU18       0.0270
     41  CG         2.4730   19.5650   11.2070 C.3    18  LEU18       0.0019
     42  CD1        3.8560   19.7680   11.7930 C.3    18  LEU18       0.0001
     43  CD2        2.2070   18.0580   11.0120 C.3    18  LEU18       0.0001
     44  N         -2.1150   19.0990   19.2240 N.3    21  LYS21      -0.1245
     45  CA        -3.0740   18.2520   19.9330 C.3    21  LYS21       0.1561
     46  C         -3.3710   18.8130   21.3090 C.2    21  LYS21       0.2260
     47  O         -2.4820   19.0280   22.1530 O.2    21  LYS21      -0.2867
     48  CB        -2.5500   16.8160   20.0280 C.3    21  LYS21       0.0271
     49  CG        -3.5860   15.8590   20.6160 C.3    21  LYS21       0.0035
     50  CD        -3.3080   14.4420   20.2790 C.3    21  LYS21       0.0206
     51  CE        -4.5350   13.5700   20.5630 C.3    21  LYS21       0.1093
     52  NZ        -4.3480   12.3350   19.7860 N.3    21  LYS21      -0.1314
     53  N         -3.8970   11.5500   24.4510 N.3    25  PHE25      -0.1241
     54  CA        -2.5410   11.0020   24.4910 C.3    25  PHE25       0.1605
     55  C         -1.7090   11.6750   23.4310 C.2    25  PHE25       0.2264
     56  O         -2.0760   11.6530   22.2810 O.2    25  PHE25      -0.2867
     57  CB        -2.5810    9.4600   24.2500 C.3    25  PHE25       0.0534
     58  CG        -1.2480    8.7570   24.4800 C.ar   25  PHE25      -0.0203
     59  CD1       -0.5310    8.9520   25.6520 C.ar   25  PHE25      -0.0042
     60  CD2       -0.7270    7.8760   23.5180 C.ar   25  PHE25      -0.0042
     61  CE1        0.6820    8.2830   25.8710 C.ar   25  PHE25      -0.0003
     62  CE2        0.4720    7.1960   23.7270 C.ar   25  PHE25      -0.0003
     63  CZ         1.1830    7.4070   24.8970 C.ar   25  PHE25      -0.0000
     64  N          0.8040   17.2460   15.5320 N.3    31  ASN31      -0.1225
     65  CA         0.5650   16.0050   14.8090 C.3    31  ASN31       0.1785
     66  C         -0.1060   16.2350   13.4810 C.2    31  ASN31       0.2597
     67  O         -0.6920   17.2790   13.2310 O.2    31  ASN31      -0.2718
     68  CB        -0.4190   15.1440   15.5680 C.3    31  ASN31       0.1169
     69  CG         0.0650   14.7310   16.9070 C.2    31  ASN31       0.2627
     70  OD1        1.2690   14.6390   17.1720 O.2    31  ASN31      -0.2716
     71  ND2       -0.8720   14.3560   17.7310 N.am   31  ASN31      -0.0877
     72  N         -0.1300   15.1780   12.6810 N.am   32  GLY32      -0.1957
     73  CA        -1.0250   15.0930   11.5290 C.3    32  GLY32       0.1869
     74  C         -2.4220   14.7780   12.0600 C.2    32  GLY32       0.2309
     75  O         -2.6110   14.6330   13.2770 O.2    32  GLY32      -0.2863
     76  N         -7.1550    9.3590   13.6080 N.3    35  GLY35      -0.1225
     77  CA        -7.6050    8.7350   14.8020 C.3    35  GLY35       0.1811
     78  C         -7.9340    7.2890   14.4810 C.2    35  GLY35       0.2280
     79  O         -7.4880    6.7360   13.4670 O.2    35  GLY35      -0.2866
     80  N          3.1100    1.1390   16.1930 N.3    70  PHE70      -0.1241
     81  CA         3.5920    1.5440   17.5000 C.3    70  PHE70       0.1605
     82  C          3.2710    0.5450   18.5660 C.2    70  PHE70       0.2264
     83  O          2.1310    0.0940   18.6420 O.2    70  PHE70      -0.2867
     84  CB         2.9980    2.8730   17.8730 C.3    70  PHE70       0.0534
     85  CG         3.4000    3.9710   16.9450 C.ar   70  PHE70      -0.0203
     86  CD1        4.6810    4.4870   16.9860 C.ar   70  PHE70      -0.0042
     87  CD2        2.4880    4.5230   16.0600 C.ar   70  PHE70      -0.0042
     88  CE1        5.0610    5.5180   16.1360 C.ar   70  PHE70      -0.0003
     89  CE2        2.8540    5.5350   15.1990 C.ar   70  PHE70      -0.0003
     90  CZ         4.1590    6.0440   15.2410 C.ar   70  PHE70      -0.0000
     91  N          3.4560    0.4400   22.7200 N.3    72  PHE72      -0.1241
     92  CA         3.6990    1.0730   24.0100 C.3    72  PHE72       0.1605
     93  C          3.8850    0.0330   25.0960 C.2    72  PHE72       0.2264
     94  O          3.0190   -0.8590   25.2920 O.2    72  PHE72      -0.2867
     95  CB         2.5920    2.0870   24.3300 C.3    72  PHE72       0.0534
     96  CG         2.6330    3.2650   23.3990 C.ar   72  PHE72      -0.0203
     97  CD1        3.4560    4.3300   23.6770 C.ar   72  PHE72      -0.0042
     98  CD2        1.9710    3.2330   22.1860 C.ar   72  PHE72      -0.0042
     99  CE1        3.5940    5.3650   22.7810 C.ar   72  PHE72      -0.0003
    100  CE2        2.1130    4.2580   21.2700 C.ar   72  PHE72      -0.0003
    101  CZ         2.9180    5.3360   21.5830 C.ar   72  PHE72      -0.0000
    102  N         -0.5900   -0.1620   17.8410 N.3    79  MET79      -0.1245
    103  CA        -1.2550    0.8100   16.9800 C.3    79  MET79       0.1570
    104  C         -0.8100    0.5600   15.5530 C.2    79  MET79       0.2261
    105  O          0.3570    0.6510   15.2580 O.2    79  MET79      -0.2867
    106  CB        -0.9350    2.2140   17.4150 C.3    79  MET79       0.0387
    107  CG        -1.3870    2.5400   18.7980 C.3    79  MET79       0.0595
    108  SD        -1.0680    4.2780   19.2170 S.3    79  MET79      -0.1393
    109  CE        -2.4280    5.1720   18.4700 C.3    79  MET79       0.0692
    110  N         -0.8410    2.1680   12.2820 N.3    81  VAL81      -0.1245
    111  CA        -1.1460    3.5110   11.7480 C.3    81  VAL81       0.1561
    112  C         -0.9370    3.5450   10.2430 C.2    81  VAL81       0.2260
    113  O          0.1840    3.3030    9.7390 O.2    81  VAL81      -0.2867
    114  CB        -0.3040    4.5860   12.4390 C.3    81  VAL81       0.0252
    115  CG1       -0.7560    5.9900   12.0090 C.3    81  VAL81       0.0019
    116  CG2       -0.4360    4.4320   13.9380 C.3    81  VAL81       0.0019
    117  N          7.4130   17.5350   18.6260 N.3   114  MET114     -0.1230
    118  CA         6.7590   16.4510   17.9170 C.3   114  MET114      0.1702
    119  C          7.1850   15.1430   18.5470 C.2   114  MET114      0.2592
    120  O          8.1830   15.0940   19.2690 O.2   114  MET114     -0.2718
    121  CB         7.1070   16.5030   16.4400 C.3   114  MET114      0.0401
    122  CG         6.4150   17.7010   15.7330 C.3   114  MET114      0.0596
    123  SD         7.0550   18.0370   14.0790 S.3   114  MET114     -0.1393
    124  CE         6.3800   16.6730   13.1810 C.3   114  MET114      0.0692
    125  N          6.4320   14.0910   18.2720 N.am  115  TRP115     -0.1976
    126  CA         6.8510   12.7440   18.6790 C.3   115  TRP115      0.1640
    127  C          8.2620   12.4410   18.1790 C.2   115  TRP115      0.2290
    128  O          8.5700   12.7680   17.0420 O.2   115  TRP115     -0.2864
    129  CB         5.8650   11.7210   18.1180 C.3   115  TRP115      0.0576
    130  CG         4.6280   11.6190   18.8760 C.ar  115  TRP115      0.0006
    131  CD1        3.4660   12.3450   18.6910 C.ar  115  TRP115      0.0946
    132  CD2        4.3740   10.7160   19.9390 C.ar  115  TRP115      0.0152
    133  NE1        2.5230   11.9350   19.6010 N.ar  115  TRP115     -0.2442
    134  CE2        3.0610   10.9400   20.3760 C.ar  115  TRP115      0.0810
    135  CE3        5.1420    9.7310   20.5770 C.ar  115  TRP115      0.0012
    136  CZ2        2.4720   10.1790   21.4180 C.ar  115  TRP115      0.0191
    137  CZ3        4.5650    8.9930   21.6130 C.ar  115  TRP115      0.0001
    138  CH2        3.2480    9.2440   22.0340 C.ar  115  TRP115      0.0015
    139  N          9.8600    9.8480   17.0850 N.3   117  ASP117     -0.1225
    140  CA         9.9300    9.0090   15.8850 C.3   117  ASP117      0.1805
    141  C          9.7510    9.7980   14.6070 C.2   117  ASP117      0.2597
    142  O         10.2600    9.4030   13.5540 O.2   117  ASP117     -0.2718
    143  CB         8.9100    7.8810   15.9580 C.3   117  ASP117      0.1424
    144  CG         7.5120    8.4090   16.1520 C.2   117  ASP117      0.3668
    145  OD1        7.2470    8.9320   17.2480 O.co2 117  ASP117     -0.2456
    146  OD2        6.7010    8.3400   15.2220 O.co2 117  ASP117     -0.2456
    147  N          9.0800   10.9550   14.6950 N.am  118  ASP118     -0.1974
    148  CA         8.8750   11.8040   13.5240 C.3   118  ASP118      0.1709
    149  C         10.1460   12.2280   12.8440 C.2   118  ASP118      0.2293
    150  O         10.1670   12.3420   11.6290 O.2   118  ASP118     -0.2864
    151  CB         8.0290   13.0300   13.8900 C.3   118  ASP118      0.1436
    152  CG         6.6240   12.6750   14.3110 C.2   118  ASP118      0.3671
    153  OD1        6.2340   11.4990   14.3720 O.co2 118  ASP118     -0.2456
    154  OD2        5.8790   13.6270   14.6360 O.co2 118  ASP118     -0.2456
    155  N         10.8860    9.1680   10.3520 N.3   121  TRP121     -0.1227
    156  CA        10.0730    8.8190    9.1890 C.3   121  TRP121      0.1737
    157  C          9.5300   10.0200    8.4090 C.2   121  TRP121      0.2595
    158  O          9.2740    9.9040    7.1970 O.2   121  TRP121     -0.2718
    159  CB         8.9810    7.8280    9.5680 C.3   121  TRP121      0.0564
    160  CG         7.9390    8.3450   10.5470 C.ar  121  TRP121      0.0003
    161  CD1        7.9220    8.1370   11.8820 C.ar  121  TRP121      0.0946
    162  CD2        6.7780    9.1340   10.2460 C.ar  121  TRP121      0.0152
    163  NE1        6.8670    8.7550   12.4370 N.ar  121  TRP121     -0.2442
    164  CE2        6.1400    9.3850   11.4580 C.ar  121  TRP121      0.0810
    165  CE3        6.2260    9.6300    9.0670 C.ar  121  TRP121      0.0012
    166  CZ2        4.9290   10.0650   11.5320 C.ar  121  TRP121      0.0191
    167  CZ3        5.0530   10.3430    9.1350 C.ar  121  TRP121      0.0001
    168  CH2        4.4250   10.5790   10.3600 C.ar  121  TRP121      0.0015
    169  N          9.2960   11.1470    9.0920 N.am  122  PHE122     -0.1976
    170  CA         8.6420   12.2870    8.4290 C.3   122  PHE122      0.1639
    171  C          9.5150   12.8040    7.3020 C.2   122  PHE122      0.2290
    172  O          9.0190   13.1020    6.2100 O.2   122  PHE122     -0.2864
    173  CB         8.2810   13.3660    9.4580 C.3   122  PHE122      0.0560
    174  CG         7.4270   14.4870    8.9310 C.ar  122  PHE122     -0.0200
    175  CD1        6.3890   14.2710    8.0420 C.ar  122  PHE122     -0.0042
    176  CD2        7.6580   15.7730    9.3760 C.ar  122  PHE122     -0.0042
    177  CE1        5.6110   15.3020    7.5800 C.ar  122  PHE122     -0.0003
    178  CE2        6.8380   16.8230    8.9370 C.ar  122  PHE122     -0.0003
    179  CZ         5.8160   16.5670    8.0470 C.ar  122  PHE122     -0.0000
    180  N          7.8860    2.1960   22.1720 N.3   137  PHE137     -0.1241
    181  CA         8.0050    3.2240   23.1410 C.3   137  PHE137      0.1605
    182  C          7.8230    2.7680   24.5600 C.2   137  PHE137      0.2264
    183  O          6.9590    1.9150   24.8650 O.2   137  PHE137     -0.2867
    184  CB         6.9360    4.2790   22.8800 C.3   137  PHE137      0.0534
    185  CG         7.2820    5.2630   21.8370 C.ar  137  PHE137     -0.0203
    186  CD1        7.0260    5.0300   20.4990 C.ar  137  PHE137     -0.0042
    187  CD2        7.8040    6.5250   22.2160 C.ar  137  PHE137     -0.0042
    188  CE1        7.2960    6.0220   19.5450 C.ar  137  PHE137     -0.0003
    189  CE2        8.0650    7.4750   21.2850 C.ar  137  PHE137     -0.0003
    190  CZ         7.8360    7.2180   19.9500 C.ar  137  PHE137     -0.0000
@<TRIPOS>BOND
     1    31    30    2
     2    30    29    1
     3   172   171    2
     4    32    29    1
     5    32    33    1
     6    29    28    1
     7   158   157    2
     8   171   170    1
     9    33    35    1
    10    33    34    1
    11   177   175   ar
    12   177   179   ar
    13    23    22    2
    14   175   174   ar
    15   179   178   ar
    16   157   169   am
    17   157   156    1
    18   170   169    1
    19   170   173    1
    20    22    21    1
    21   174   176   ar
    22   174   173    1
    23   178   176   ar
    24    19    17    1
    25   165   167   ar
    26   165   162   ar
    27   167   168   ar
    28   156   159    1
    29   156   155    1
    30   159   160    1
    31    17    18    1
    32    17    14    1
    33   113   112    2
    34    20    21    1
    35    20    15   am
    36    21    24    1
    37   112   111    1
    38   162   160   ar
    39   162   164   ar
    40    36    37    1
    41   168   166   ar
    42    14    15    1
    43    14    13    1
    44   160   161   ar
    45    24    25    1
    46    15    16    2
    47     4     3    2
    48    43    41    1
    49    41    42    1
    50    41    40    1
    51    25    27    1
    52    25    26    1
    53   164   166   ar
    54   164   163   ar
    55    37    40    1
    56    37    38    1
    57    73    74    1
    58    73    72    1
    59    13     3   am
    60   150   149    2
    61   111   110    1
    62   111   114    1
    63     3     2    1
    64   161   163   ar
    65   115   114    1
    66    74    75    2
    67   114   116    1
    68    39    38    2
    69    72    66   am
    70   149   148    1
    71     1     2    1
    72     2     5    1
    73   124   123    1
    74    67    66    2
    75    79    78    2
    76    66    65    1
    77   148   151    1
    78   148   147    1
    79   142   141    2
    80    76    77    1
    81   151   152    1
    82   123   122    1
    83     5     6    1
    84   152   153   ar
    85   152   154   ar
    86    78    77    1
    87   141   147   am
    88   141   140    1
    89    65    64    1
    90    65    68    1
    91    89    90   ar
    92    89    87   ar
    93   146   144   ar
    94    90    88   ar
    95   105   104    2
    96     6     7   ar
    97     6     8   ar
    98   104   103    1
    99    68    69    1
   100   122   121    1
   101   140   143    1
   102   140   139    1
   103   143   144    1
   104     7     9   ar
   105    87    85   ar
   106    88    86   ar
   107   144   145   ar
   108    80    81    1
   109     8    10   ar
   110   121   118    1
   111    69    70    2
   112    69    71   am
   113    85    86   ar
   114    85    84    1
   115   103   106    1
   116   103   102    1
   117   128   127    2
   118     9    11   ar
   119   106   107    1
   120    81    84    1
   121    81    82    1
   122    10    11   ar
   123   118   119    1
   124   118   117    1
   125   129   126    1
   126   129   130    1
   127    11    12    1
   128   127   126    1
   129   125   119   am
   130   125   126    1
   131   109   108    1
   132   119   120    2
   133    82    83    2
   134   131   130   ar
   135   131   133   ar
   136   107   108    1
   137   130   132   ar
   138    44    45    1
   139   188   190   ar
   140   188   186   ar
   141   133   134   ar
   142    52    51    1
   143    45    48    1
   144    45    46    1
   145   132   134   ar
   146   132   135   ar
   147   190   189   ar
   148    48    49    1
   149    50    51    1
   150    50    49    1
   151   134   136   ar
   152   186   185   ar
   153   135   137   ar
   154   100   101   ar
   155   100    98   ar
   156   189   187   ar
   157    46    47    2
   158   136   138   ar
   159   101    99   ar
   160   137   138   ar
   161   185   187   ar
   162   185   184    1
   163   180   181    1
   164    98    96   ar
   165    56    55    2
   166    91    92    1
   167    99    97   ar
   168   184   181    1
   169   181   182    1
   170    96    97   ar
   171    96    95    1
   172    55    54    1
   173    60    62   ar
   174    60    58   ar
   175    62    63   ar
   176    92    95    1
   177    92    93    1
   178    57    58    1
   179    57    54    1
   180    53    54    1
   181    58    59   ar
   182   182   183    2
   183    63    61   ar
   184    93    94    2
   185    59    61   ar
