@<TRIPOS>MOLECULE
tmp/5nhzA00.pdb
 130 127 0 0 0
SMALL
GASTEIGER

@<TRIPOS>ATOM
      1  N        -15.8440    5.6300  -15.3830 N.3    31  PHE31      -0.1241
      2  CA       -16.1530    6.2160  -16.6800 C.3    31  PHE31       0.1605
      3  C        -16.7360    5.1180  -17.5590 C.2    31  PHE31       0.2264
      4  O        -16.0410    4.1330  -17.8660 O.2    31  PHE31      -0.2867
      5  CB       -14.9010    6.8030  -17.3270 C.3    31  PHE31       0.0534
      6  CG       -15.1070    7.2670  -18.7690 C.ar   31  PHE31      -0.0203
      7  CD1      -15.8530    8.3940  -19.0470 C.ar   31  PHE31      -0.0042
      8  CD2      -14.5380    6.5750  -19.8340 C.ar   31  PHE31      -0.0042
      9  CE1      -16.0430    8.8280  -20.3620 C.ar   31  PHE31      -0.0003
     10  CE2      -14.7220    6.9980  -21.1500 C.ar   31  PHE31      -0.0003
     11  CZ       -15.4760    8.1240  -21.4100 C.ar   31  PHE31      -0.0000
     12  N        -10.8450    3.7610  -13.9270 N.3    36  TYR36      -0.1241
     13  CA        -9.5680    4.0880  -14.5120 C.3    36  TYR36       0.1605
     14  C         -8.7520    4.8940  -13.5400 C.2    36  TYR36       0.2264
     15  O         -9.3160    5.7020  -12.8020 O.2    36  TYR36      -0.2867
     16  CB        -9.7340    4.9240  -15.7820 C.3    36  TYR36       0.0534
     17  CG       -10.4680    4.2250  -16.8960 C.ar   36  TYR36      -0.0201
     18  CD1      -11.8240    4.3410  -17.0100 C.ar   36  TYR36      -0.0009
     19  CD2       -9.7920    3.4630  -17.8360 C.ar   36  TYR36      -0.0009
     20  CE1      -12.5130    3.6860  -18.0080 C.ar   36  TYR36       0.0417
     21  CE2      -10.4680    2.8260  -18.8460 C.ar   36  TYR36       0.0417
     22  CZ       -11.8320    2.9570  -18.9260 C.ar   36  TYR36       0.1957
     23  OH       -12.5370    2.3250  -19.9200 O.3    36  TYR36      -0.2866
     24  N         -9.9460   14.2270  -10.4460 N.3    56  TRP56      -0.1241
     25  CA       -11.1180   13.7070  -11.1280 C.3    56  TRP56       0.1605
     26  C        -12.3280   13.4930  -10.2250 C.2    56  TRP56       0.2264
     27  O        -12.7120   12.3630   -9.9370 O.2    56  TRP56      -0.2867
     28  CB       -10.7720   12.3980  -11.8220 C.3    56  TRP56       0.0550
     29  CG       -11.7440   11.9160  -12.8430 C.ar   56  TRP56       0.0003
     30  CD1      -12.9570   12.4380  -13.1910 C.ar   56  TRP56       0.0946
     31  CD2      -11.5400   10.7880  -13.6710 C.ar   56  TRP56       0.0152
     32  NE1      -13.5160   11.6870  -14.2040 N.ar   56  TRP56      -0.2442
     33  CE2      -12.6590   10.6640  -14.5030 C.ar   56  TRP56       0.0810
     34  CE3      -10.5110    9.8510  -13.7770 C.ar   56  TRP56       0.0012
     35  CZ2      -12.7750    9.6270  -15.4370 C.ar   56  TRP56       0.0191
     36  CZ3      -10.6340    8.8340  -14.7030 C.ar   56  TRP56       0.0001
     37  CH2      -11.7490    8.7280  -15.5090 C.ar   56  TRP56       0.0015
     38  N        -11.9130   18.5380  -19.6320 N.3    85  HIS85      -0.1226
     39  CA       -12.6990   17.3680  -19.2210 C.3    85  HIS85       0.1752
     40  C        -12.6690   17.1820  -17.6990 C.2    85  HIS85       0.2596
     41  O        -11.8280   17.7260  -16.9960 O.2    85  HIS85      -0.2718
     42  CB       -12.1880   16.0910  -19.9100 C.3    85  HIS85       0.0759
     43  CG       -12.4780   16.0440  -21.3830 C.ar   85  HIS85       0.0818
     44  ND1      -11.6150   15.4650  -22.2900 N.ar   85  HIS85      -0.2268
     45  CD2      -13.5560   16.4560  -22.1000 C.ar   85  HIS85       0.1154
     46  CE1      -12.1280   15.5510  -23.5070 C.ar   85  HIS85       0.1986
     47  NE2      -13.3130   16.1340  -23.4220 N.ar   85  HIS85      -0.2212
     48  N        -13.5730   16.3430  -17.2140 N.am   86  ASP86      -0.1960
     49  CA       -13.7880   16.2130  -15.7730 C.3    86  ASP86       0.1840
     50  C        -12.6540   15.6040  -14.9740 C.2    86  ASP86       0.2622
     51  O        -12.5760   15.8290  -13.7410 O.2    86  ASP86      -0.2715
     52  CB       -15.0570   15.4050  -15.5370 C.3    86  ASP86       0.1450
     53  CG       -16.2460   16.2900  -15.3040 C.2    86  ASP86       0.3671
     54  OD1      -17.2700   16.0390  -15.9540 O.co2  86  ASP86      -0.2456
     55  OD2      -16.1440   17.2450  -14.4810 O.co2  86  ASP86      -0.2456
     56  N        -11.7510   14.8680  -15.6150 N.am   87  ASP87      -0.1971
     57  CA       -10.5960   14.3680  -14.8630 C.3    87  ASP87       0.1709
     58  C         -9.5930   15.4840  -14.6030 C.2    87  ASP87       0.2293
     59  O         -8.6250   15.2940  -13.8400 O.2    87  ASP87      -0.2864
     60  CB        -9.9180   13.1510  -15.5520 C.3    87  ASP87       0.1436
     61  CG        -9.4460   13.4180  -16.9720 C.2    87  ASP87       0.3671
     62  OD1       -9.9170   14.3600  -17.5960 O.co2  87  ASP87      -0.2456
     63  OD2       -8.6420   12.6140  -17.4920 O.co2  87  ASP87      -0.2456
     64  N         -5.2930   15.2560  -27.8240 N.3   148  HIS148     -0.1241
     65  CA        -6.3830   14.6020  -27.1160 C.3   148  HIS148      0.1621
     66  C         -7.5960   15.5300  -27.1410 C.2   148  HIS148      0.2264
     67  O         -8.7300   15.0910  -27.2890 O.2   148  HIS148     -0.2867
     68  CB        -5.9820   14.2700  -25.6730 C.3   148  HIS148      0.0745
     69  CG        -7.1420   13.9290  -24.7930 C.ar  148  HIS148      0.0817
     70  ND1       -7.7610   12.6940  -24.8170 N.ar  148  HIS148     -0.2268
     71  CD2       -7.8200   14.6710  -23.8860 C.ar  148  HIS148      0.1154
     72  CE1       -8.7560   12.6860  -23.9490 C.ar  148  HIS148      0.1986
     73  NE2       -8.8150   13.8740  -23.3760 N.ar  148  HIS148     -0.2212
     74  N         -3.4210   14.0640  -20.8540 N.3   167  CYS167     -0.1235
     75  CA        -4.0710   13.0340  -21.6470 C.3   167  CYS167      0.1677
     76  C         -3.6050   13.0550  -23.1070 C.2   167  CYS167      0.2270
     77  O         -4.0140   12.2090  -23.8950 O.2   167  CYS167     -0.2867
     78  CB        -5.5790   13.1790  -21.5120 C.3   167  CYS167      0.0956
     79  SG        -6.0030   13.1600  -19.6990 S.3   167  CYS167     -0.0801
     80  N          0.0590    8.9120  -23.8580 N.3   170  TYR170     -0.1241
     81  CA        -0.3550    7.5950  -23.3750 C.3   170  TYR170      0.1605
     82  C          0.7890    6.8700  -22.6540 C.2   170  TYR170      0.2264
     83  O          1.9660    7.0480  -23.0180 O.2   170  TYR170     -0.2867
     84  CB        -0.8260    6.7150  -24.5520 C.3   170  TYR170      0.0534
     85  CG        -2.1650    7.0680  -25.1610 C.ar  170  TYR170     -0.0201
     86  CD1       -2.9140    8.1480  -24.7160 C.ar  170  TYR170     -0.0009
     87  CD2       -2.6950    6.2980  -26.1760 C.ar  170  TYR170     -0.0009
     88  CE1       -4.1550    8.4490  -25.2820 C.ar  170  TYR170      0.0417
     89  CE2       -3.9340    6.5980  -26.7520 C.ar  170  TYR170      0.0417
     90  CZ        -4.6610    7.6650  -26.2900 C.ar  170  TYR170      0.1957
     91  OH        -5.8960    7.9650  -26.8430 O.3   170  TYR170     -0.2866
     92  N         -0.4490    0.9950  -23.0230 N.3   174  ARG174     -0.1245
     93  CA        -1.7680    1.3000  -23.5710 C.3   174  ARG174      0.1563
     94  C         -1.7370    1.2930  -25.0940 C.2   174  ARG174      0.2260
     95  O         -1.0950    2.1350  -25.7090 O.2   174  ARG174     -0.2867
     96  CB        -2.2460    2.6580  -23.0560 C.3   174  ARG174      0.0307
     97  CG        -3.5550    3.1690  -23.6340 C.3   174  ARG174      0.0489
     98  CD        -3.9840    4.4240  -22.8510 C.3   174  ARG174      0.2205
     99  NE        -5.1590    5.0740  -23.4180 N.pl3 174  ARG174     -0.0865
    100  CZ        -5.6730    6.2260  -22.9850 C.cat 174  ARG174      0.5346
    101  NH1       -5.1130    6.8940  -21.9830 N.pl3 174  ARG174      0.1354
    102  NH2       -6.7370    6.7420  -23.5880 N.pl3 174  ARG174      0.1354
    103  N         -4.6510    1.0320  -26.9650 N.3   176  SER176     -0.1217
    104  CA        -5.9440    1.4780  -27.4640 C.3   176  SER176      0.1889
    105  C         -6.1900    2.9210  -27.0890 C.2   176  SER176      0.2288
    106  O         -6.1720    3.2740  -25.9060 O.2   176  SER176     -0.2866
    107  CB        -7.0710    0.6100  -26.9020 C.3   176  SER176      0.2089
    108  OG        -7.5260    1.1230  -25.6590 O.3   176  SER176     -0.2183
    109  N         -8.3110    5.8590  -26.0660 N.3   178  GLY178     -0.1210
    110  CA        -9.4310    5.7250  -25.1580 C.3   178  GLY178      0.1956
    111  C        -10.5490    6.6340  -25.5900 C.2   178  GLY178      0.2611
    112  O        -11.1200    6.4630  -26.6710 O.2   178  GLY178     -0.2717
    113  N        -10.8630    7.6010  -24.7390 N.am  179  ASN179     -0.1974
    114  CA       -11.8170    8.6320  -25.0890 C.3   179  ASN179      0.1688
    115  C        -11.1830    9.5910  -26.0960 C.2   179  ASN179      0.2292
    116  O        -10.2390   10.3010  -25.7610 O.2   179  ASN179     -0.2864
    117  CB       -12.2570    9.3860  -23.8390 C.3   179  ASN179      0.1181
    118  CG       -13.2610   10.4750  -24.1280 C.2   179  ASN179      0.2629
    119  OD1      -13.9210   10.4830  -25.1700 O.2   179  ASN179     -0.2716
    120  ND2      -13.3680   11.4230  -23.2060 N.am  179  ASN179     -0.0877
    121  N         -2.8060    9.0020  -17.6320 N.3   209  HIS209     -0.1241
    122  CA        -3.2640    7.7740  -16.9660 C.3   209  HIS209      0.1621
    123  C         -2.1690    6.7250  -17.0650 C.2   209  HIS209      0.2264
    124  O         -1.6050    6.5100  -18.1200 O.2   209  HIS209     -0.2867
    125  CB        -4.5550    7.2460  -17.5890 C.3   209  HIS209      0.0745
    126  CG        -5.5870    8.3080  -17.7620 C.ar  209  HIS209      0.0817
    127  ND1       -6.5620    8.5620  -16.8210 N.ar  209  HIS209     -0.2268
    128  CD2       -5.7370    9.2530  -18.7270 C.ar  209  HIS209      0.1154
    129  CE1       -7.2960    9.5870  -17.2180 C.ar  209  HIS209      0.1986
    130  NE2       -6.8140   10.0290  -18.3680 N.ar  209  HIS209     -0.2212
@<TRIPOS>BOND
     1    64    65    1
     2   104   105    1
     3   104   103    1
     4   104   107    1
     5    67    66    2
     6    66    65    1
     7    65    68    1
     8   105   106    2
     9   107   108    1
    10    91    90    1
    11    89    90   ar
    12    89    87   ar
    13   112   111    2
    14    90    88   ar
    15    87    85   ar
    16   115   116    2
    17   115   114    1
    18   109   110    1
    19    95    94    2
    20    68    69    1
    21   111   110    1
    22   111   113   am
    23    88    86   ar
    24   119   118    2
    25    85    86   ar
    26    85    84    1
    27    94    93    1
    28   114   113    1
    29   114   117    1
    30    70    69   ar
    31    70    72   ar
    32    69    71   ar
    33    84    81    1
    34   118   117    1
    35   118   120   am
    36    72    73   ar
    37    77    76    2
    38    71    73   ar
    39    80    81    1
    40    97    96    1
    41    97    98    1
    42   102   100    1
    43    93    96    1
    44    93    92    1
    45    46    47   ar
    46    46    44   ar
    47    47    45   ar
    48    99   100    2
    49    99    98    1
    50    81    82    1
    51    76    75    1
    52    83    82    2
    53   100   101    1
    54    44    43   ar
    55    45    43   ar
    56    75    78    1
    57    75    74    1
    58    78    79    1
    59    11    10   ar
    60    11     9   ar
    61    43    42    1
    62    10     8   ar
    63     9     7   ar
    64    23    22    1
    65    42    39    1
    66     8     6   ar
    67    38    39    1
    68    39    40    1
    69     7     6   ar
    70    22    21   ar
    71    22    20   ar
    72    21    19   ar
    73     6     5    1
    74   128   130   ar
    75   128   126   ar
    76   130   129   ar
    77   124   123    2
    78    20    18   ar
    79     4     3    2
    80    19    17   ar
    81   126   125    1
    82   126   127   ar
    83    40    48   am
    84    40    41    2
    85   121   122    1
    86    62    61   ar
    87   125   122    1
    88     3     2    1
    89    63    61   ar
    90     5     2    1
    91   129   127   ar
    92    48    49    1
    93   123   122    1
    94    18    17   ar
    95    61    60    1
    96    17    16    1
    97     2     1    1
    98    54    53   ar
    99    16    13    1
   100    49    52    1
   101    49    50    1
   102    56    50   am
   103    56    57    1
   104    60    57    1
   105    52    53    1
   106    37    35   ar
   107    37    36   ar
   108    35    33   ar
   109    53    55   ar
   110    50    51    2
   111    57    58    1
   112    36    34   ar
   113    58    59    2
   114    13    12    1
   115    13    14    1
   116    33    32   ar
   117    33    31   ar
   118    32    30   ar
   119    34    31   ar
   120    31    29   ar
   121    14    15    2
   122    30    29   ar
   123    29    28    1
   124    28    25    1
   125    25    24    1
   126    25    26    1
   127    26    27    2
