@<TRIPOS>MOLECULE
tmp/5ni0B00.pdb
 141 140 0 0 0
SMALL
GASTEIGER

@<TRIPOS>ATOM
      1  N         -8.1020   -5.2440  -15.5120 N.3    31  PHE31      -0.1241
      2  CA        -7.8470   -5.8020  -16.8260 C.3    31  PHE31       0.1605
      3  C         -7.3310   -4.6810  -17.7370 C.2    31  PHE31       0.2264
      4  O         -8.0750   -3.7630  -18.0800 O.2    31  PHE31      -0.2867
      5  CB        -9.1290   -6.4230  -17.3920 C.3    31  PHE31       0.0534
      6  CG        -9.0340   -6.8450  -18.8350 C.ar   31  PHE31      -0.0203
      7  CD1       -9.7360   -6.1630  -19.8130 C.ar   31  PHE31      -0.0042
      8  CD2       -8.2450   -7.9280  -19.2080 C.ar   31  PHE31      -0.0042
      9  CE1       -9.6700   -6.5570  -21.1430 C.ar   31  PHE31      -0.0003
     10  CE2       -8.1620   -8.3230  -20.5310 C.ar   31  PHE31      -0.0003
     11  CZ        -8.8800   -7.6340  -21.5030 C.ar   31  PHE31      -0.0000
     12  N        -13.0160   -3.4590  -13.7580 N.3    36  TYR36      -0.1228
     13  CA       -14.3450   -3.7700  -14.2590 C.3    36  TYR36       0.1721
     14  C        -15.1330   -4.5460  -13.2080 C.2    36  TYR36       0.2437
     15  O        -14.5360   -5.3920  -12.5320 O.2    36  TYR36      -0.2733
     16  CB       -14.2870   -4.6130  -15.5340 C.3    36  TYR36       0.0547
     17  CG       -13.5650   -3.9400  -16.6590 C.ar   36  TYR36      -0.0200
     18  CD1      -12.1950   -4.0850  -16.8070 C.ar   36  TYR36      -0.0009
     19  CD2      -14.2490   -3.1370  -17.5420 C.ar   36  TYR36      -0.0009
     20  CE1      -11.5240   -3.4540  -17.8320 C.ar   36  TYR36       0.0417
     21  CE2      -13.5900   -2.5040  -18.5550 C.ar   36  TYR36       0.0417
     22  CZ       -12.2360   -2.6660  -18.6920 C.ar   36  TYR36       0.1957
     23  OH       -11.5700   -2.0320  -19.7050 O.3    36  TYR36      -0.2866
     24  N        -16.4460   -4.2930  -13.1020 N.am   37  PRO37      -0.2729
     25  CA       -17.3450   -5.1420  -12.3160 C.3    37  PRO37       0.1401
     26  C        -17.6420   -6.4070  -13.0840 C.2    37  PRO37       0.2269
     27  O        -17.4760   -6.4770  -14.3160 O.2    37  PRO37      -0.2865
     28  CB       -18.5980   -4.2930  -12.1740 C.3    37  PRO37       0.0296
     29  CG       -18.6520   -3.6220  -13.5410 C.3    37  PRO37       0.0237
     30  CD       -17.2230   -3.3630  -13.9360 C.3    37  PRO37       0.0939
     31  N        -13.9790  -13.9500  -10.4650 N.3    56  TRP56      -0.1241
     32  CA       -12.8380  -13.4020  -11.2190 C.3    56  TRP56       0.1605
     33  C        -11.5750  -13.3120  -10.3820 C.2    56  TRP56       0.2264
     34  O        -11.0910  -12.2170  -10.0370 O.2    56  TRP56      -0.2867
     35  CB       -13.2210  -12.0330  -11.7780 C.3    56  TRP56       0.0550
     36  CG       -12.3610  -11.5290  -12.8930 C.ar   56  TRP56       0.0003
     37  CD1      -11.1830  -12.0660  -13.3440 C.ar   56  TRP56       0.0946
     38  CD2      -12.6010  -10.3640  -13.6970 C.ar   56  TRP56       0.0152
     39  NE1      -10.6760  -11.3020  -14.3780 N.ar   56  TRP56      -0.2442
     40  CE2      -11.5340  -10.2700  -14.6200 C.ar   56  TRP56       0.0810
     41  CE3      -13.6070   -9.4060  -13.7280 C.ar   56  TRP56       0.0012
     42  CZ2      -11.4360   -9.2240  -15.5490 C.ar   56  TRP56       0.0191
     43  CZ3      -13.5180   -8.3720  -14.6620 C.ar   56  TRP56       0.0001
     44  CH2      -12.4440   -8.3010  -15.5610 C.ar   56  TRP56       0.0015
     45  N        -18.1100  -19.6730  -19.4370 N.3    83  HIS83      -0.1241
     46  CA       -17.0990  -19.7980  -20.5220 C.3    83  HIS83       0.1621
     47  C        -15.6880  -19.7990  -19.9440 C.2    83  HIS83       0.2264
     48  O        -15.5130  -19.8590  -18.7250 O.2    83  HIS83      -0.2867
     49  CB       -17.3050  -18.7200  -21.6290 C.3    83  HIS83       0.0745
     50  CG       -16.8950  -17.3200  -21.2710 C.ar   83  HIS83       0.0817
     51  ND1      -17.7260  -16.4380  -20.6230 N.ar   83  HIS83      -0.2268
     52  CD2      -15.7770  -16.6070  -21.5920 C.ar   83  HIS83       0.1154
     53  CE1      -17.1200  -15.2660  -20.5030 C.ar   83  HIS83       0.1986
     54  NE2      -15.9330  -15.3470  -21.0800 N.ar   83  HIS83      -0.2212
     55  N        -12.8880  -17.8540  -19.9960 N.3    85  HIS85      -0.1226
     56  CA       -12.0630  -16.7280  -19.5730 C.3    85  HIS85       0.1752
     57  C        -11.9420  -16.6360  -18.0520 C.2    85  HIS85       0.2596
     58  O        -12.7360  -17.2170  -17.3100 O.2    85  HIS85      -0.2718
     59  CB       -12.6170  -15.4390  -20.1460 C.3    85  HIS85       0.0759
     60  CG       -12.3930  -15.3200  -21.6190 C.ar   85  HIS85       0.0818
     61  ND1      -13.2400  -14.6180  -22.4470 N.ar   85  HIS85      -0.2268
     62  CD2      -11.4070  -15.8100  -22.4060 C.ar   85  HIS85       0.1154
     63  CE1      -12.7920  -14.6930  -23.6890 C.ar   85  HIS85       0.1986
     64  NE2      -11.6830  -15.4110  -23.6940 N.ar   85  HIS85      -0.2212
     65  N        -10.9540  -15.8790  -17.5970 N.am   86  ASP86      -0.1960
     66  CA       -10.6260  -15.8230  -16.1720 C.3    86  ASP86       0.1840
     67  C        -11.6840  -15.2520  -15.2570 C.2    86  ASP86       0.2622
     68  O        -11.6490  -15.5110  -14.0510 O.2    86  ASP86      -0.2715
     69  CB        -9.3490  -15.0110  -15.9840 C.3    86  ASP86       0.1450
     70  CG        -8.1440  -15.8830  -15.7620 C.2    86  ASP86       0.3671
     71  OD1       -7.9340  -16.3240  -14.6160 O.co2  86  ASP86      -0.2456
     72  OD2       -7.4070  -16.1200  -16.7360 O.co2  86  ASP86      -0.2456
     73  N        -12.6120  -14.4640  -15.7890 N.am   87  ASP87      -0.1971
     74  CA       -13.6830  -13.9360  -14.9660 C.3    87  ASP87       0.1709
     75  C        -14.7490  -14.9900  -14.6850 C.2    87  ASP87       0.2293
     76  O        -15.6920  -14.7540  -13.9280 O.2    87  ASP87      -0.2864
     77  CB       -14.3030  -12.6870  -15.6060 C.3    87  ASP87       0.1436
     78  CG       -14.8880  -12.9230  -17.0050 C.2    87  ASP87       0.3671
     79  OD1      -14.4680  -13.8190  -17.7650 O.co2  87  ASP87      -0.2456
     80  OD2      -15.7630  -12.1290  -17.3330 O.co2  87  ASP87      -0.2456
     81  N        -20.0580  -14.0160  -27.4850 N.3   148  HIS148     -0.1241
     82  CA       -18.8790  -13.4370  -26.8540 C.3   148  HIS148      0.1621
     83  C        -17.6890  -14.3920  -26.9950 C.2   148  HIS148      0.2264
     84  O        -16.5460  -13.9710  -27.1970 O.2   148  HIS148     -0.2867
     85  CB       -19.1500  -13.1330  -25.3680 C.3   148  HIS148      0.0745
     86  CG       -17.9050  -12.9030  -24.5790 C.ar  148  HIS148      0.0817
     87  ND1      -17.2590  -11.6840  -24.5440 N.ar  148  HIS148     -0.2268
     88  CD2      -17.1530  -13.7500  -23.8350 C.ar  148  HIS148      0.1154
     89  CE1      -16.1780  -11.7890  -23.7910 C.ar  148  HIS148      0.1986
     90  NE2      -16.0870  -13.0290  -23.3520 N.ar  148  HIS148     -0.2212
     91  N        -21.3720  -13.2200  -20.3680 N.3   167  CYS167     -0.1235
     92  CA       -20.7520  -12.1420  -21.1260 C.3   167  CYS167      0.1677
     93  C        -21.3670  -12.0060  -22.5300 C.2   167  CYS167      0.2270
     94  O        -21.0180  -11.0860  -23.2730 O.2   167  CYS167     -0.2867
     95  CB       -19.2460  -12.3680  -21.1760 C.3   167  CYS167      0.0956
     96  SG       -18.6050  -12.3670  -19.4570 S.3   167  CYS167     -0.0801
     97  N        -25.0370   -7.7160  -22.7520 N.3   170  TYR170     -0.1241
     98  CA       -24.5390   -6.4350  -22.2250 C.3   170  TYR170      0.1605
     99  C        -25.6120   -5.6900  -21.3970 C.2   170  TYR170      0.2264
    100  O        -26.8060   -5.8010  -21.6750 O.2   170  TYR170     -0.2867
    101  CB       -24.1010   -5.5330  -23.3800 C.3   170  TYR170      0.0534
    102  CG       -22.8360   -5.9290  -24.1230 C.ar  170  TYR170     -0.0201
    103  CD1      -22.0660   -7.0190  -23.7520 C.ar  170  TYR170     -0.0009
    104  CD2      -22.4020   -5.1740  -25.2030 C.ar  170  TYR170     -0.0009
    105  CE1      -20.9110   -7.3490  -24.4450 C.ar  170  TYR170      0.0417
    106  CE2      -21.2650   -5.4980  -25.8910 C.ar  170  TYR170      0.0417
    107  CZ       -20.5160   -6.5830  -25.5110 C.ar  170  TYR170      0.1957
    108  OH       -19.3660   -6.9030  -26.2050 O.3   170  TYR170     -0.2866
    109  N        -24.3000    0.0670  -21.6880 N.3   174  ARG174     -0.1245
    110  CA       -23.0750   -0.2770  -22.3950 C.3   174  ARG174      0.1563
    111  C        -23.3020   -0.1120  -23.8900 C.2   174  ARG174      0.2260
    112  O        -24.2170   -0.7150  -24.4520 O.2   174  ARG174     -0.2867
    113  CB       -22.6430   -1.7060  -22.0500 C.3   174  ARG174      0.0307
    114  CG       -21.3260   -2.1630  -22.6770 C.3   174  ARG174      0.0489
    115  CD       -20.8620   -3.4470  -22.0140 C.3   174  ARG174      0.2205
    116  NE       -19.7660   -4.1110  -22.7120 N.pl3 174  ARG174     -0.0865
    117  CZ       -19.3290   -5.3310  -22.4130 C.cat 174  ARG174      0.5346
    118  NH1      -19.8980   -6.0240  -21.4300 N.pl3 174  ARG174      0.1354
    119  NH2      -18.3300   -5.8710  -23.1000 N.pl3 174  ARG174      0.1354
    120  N        -16.5290   -5.1840  -25.8410 N.3   178  GLY178     -0.1210
    121  CA       -15.3550   -5.2500  -24.9820 C.3   178  GLY178      0.1956
    122  C        -14.2820   -6.1520  -25.5360 C.2   178  GLY178      0.2611
    123  O        -13.8480   -5.9820  -26.6810 O.2   178  GLY178     -0.2717
    124  N        -13.8320   -7.1050  -24.7250 N.am  179  ASN179     -0.1974
    125  CA       -12.9740   -8.1590  -25.2430 C.3   179  ASN179      0.1688
    126  C        -13.4910   -9.0540  -26.3660 C.2   179  ASN179      0.2292
    127  O        -13.6400  -10.2710  -26.1870 O.2   179  ASN179     -0.2864
    128  CB       -12.3730   -9.0070  -24.1210 C.3   179  ASN179      0.1181
    129  CG       -11.3150   -9.9860  -24.6190 C.2   179  ASN179      0.2629
    130  OD1      -10.6150   -9.7220  -25.5990 O.2   179  ASN179     -0.2716
    131  ND2      -11.2100  -11.1330  -23.9490 N.am  179  ASN179     -0.0877
    132  N        -21.6570   -8.2320  -16.9350 N.3   209  HIS209     -0.1241
    133  CA       -21.1310   -7.0700  -16.2300 C.3   209  HIS209      0.1621
    134  C        -22.2020   -5.9810  -16.1740 C.2   209  HIS209      0.2264
    135  O        -22.8570   -5.6890  -17.1790 O.2   209  HIS209     -0.2867
    136  CB       -19.8470   -6.5600  -16.9120 C.3   209  HIS209      0.0745
    137  CG       -18.8630   -7.6460  -17.2180 C.ar  209  HIS209      0.0817
    138  ND1      -17.7810   -7.9310  -16.4100 N.ar  209  HIS209     -0.2268
    139  CD2      -18.8040   -8.5260  -18.2490 C.ar  209  HIS209      0.1154
    140  CE1      -17.0950   -8.9340  -16.9310 C.ar  209  HIS209      0.1986
    141  NE2      -17.7030   -9.3230  -18.0400 N.ar  209  HIS209     -0.2212
@<TRIPOS>BOND
     1    81    82    1
     2    84    83    2
     3    83    82    1
     4    82    85    1
     5   123   122    2
     6   126   127    2
     7   126   125    1
     8   108   107    1
     9   106   107   ar
    10   106   104   ar
    11   120   121    1
    12   130   129    2
    13   122   121    1
    14   122   124   am
    15   107   105   ar
    16    85    86    1
    17   125   124    1
    18   125   128    1
    19   104   102   ar
    20   129   128    1
    21   129   131   am
    22    86    87   ar
    23    86    88   ar
    24    87    89   ar
    25   112   111    2
    26   105   103   ar
    27   102   103   ar
    28   102   101    1
    29   111   110    1
    30    88    90   ar
    31    89    90   ar
    32    64    63   ar
    33    64    62   ar
    34    63    61   ar
    35   101    98    1
    36    94    93    2
    37   119   117    1
    38    97    98    1
    39   116   117    2
    40   116   115    1
    41   114   113    1
    42   114   115    1
    43    93    92    1
    44    61    60   ar
    45   117   118    1
    46    62    60   ar
    47   110   113    1
    48   110   109    1
    49    98    99    1
    50   100    99    2
    51    49    50    1
    52    49    46    1
    53    60    59    1
    54    52    50   ar
    55    52    54   ar
    56    11     9   ar
    57    11    10   ar
    58    50    51   ar
    59    95    92    1
    60    95    96    1
    61     9     7   ar
    62    92    91    1
    63    54    53   ar
    64    51    53   ar
    65    10     8   ar
    66    46    47    1
    67    46    45    1
    68    59    56    1
    69    55    56    1
    70    47    48    2
    71     7     6   ar
    72    23    22    1
    73    56    57    1
    74     8     6   ar
    75     6     5    1
    76    22    21   ar
    77    22    20   ar
    78    21    19   ar
    79   139   141   ar
    80   139   137   ar
    81     4     3    2
    82    57    65   am
    83    57    58    2
    84   141   140   ar
    85    20    18   ar
    86    79    78   ar
    87     3     2    1
    88    65    66    1
    89    19    17   ar
    90     5     2    1
    91    80    78   ar
    92   137   136    1
    93   137   138   ar
    94   135   134    2
    95    78    77    1
    96   132   133    1
    97   140   138   ar
    98   136   133    1
    99     2     1    1
   100    18    17   ar
   101    72    70   ar
   102    17    16    1
   103   133   134    1
   104    66    69    1
   105    66    67    1
   106    69    70    1
   107    73    67   am
   108    73    74    1
   109    70    71   ar
   110    77    74    1
   111    44    42   ar
   112    44    43   ar
   113    42    40   ar
   114    16    13    1
   115    67    68    2
   116    74    75    1
   117    75    76    2
   118    43    41   ar
   119    40    39   ar
   120    40    38   ar
   121    39    37   ar
   122    27    26    2
   123    13    12    1
   124    13    14    1
   125    30    29    1
   126    30    24    1
   127    41    38   ar
   128    38    36   ar
   129    29    28    1
   130    37    36   ar
   131    14    24   am
   132    14    15    2
   133    24    25    1
   134    26    25    1
   135    36    35    1
   136    25    28    1
   137    35    32    1
   138    32    31    1
   139    32    33    1
   140    33    34    2
