@<TRIPOS>MOLECULE
tmp/5ni2A00.pdb
 241 235 0 0 0
SMALL
GASTEIGER

@<TRIPOS>ATOM
      1  N          6.6160   60.1710   17.7150 N.3   132  GLN132     -0.1245
      2  CA         7.2280   61.0140   18.7390 C.3   132  GLN132      0.1566
      3  C          6.1190   61.3220   19.7420 C.2   132  GLN132      0.2260
      4  O          5.2840   62.1970   19.5040 O.2   132  GLN132     -0.2867
      5  CB         7.8400   62.2760   18.1400 C.3   132  GLN132      0.0367
      6  CG         8.3310   63.2690   19.1840 C.3   132  GLN132      0.0905
      7  CD         9.3880   62.6970   20.0890 C.2   132  GLN132      0.2608
      8  OE1       10.2790   61.9670   19.6440 O.2   132  GLN132     -0.2717
      9  NE2        9.3030   63.0310   21.3810 N.am  132  GLN132     -0.0878
     10  N          6.5290   62.0700   23.2520 N.3   134  GLN134     -0.1231
     11  CA         6.7620   63.0680   24.2870 C.3   134  GLN134      0.1698
     12  C          6.4260   64.4500   23.7340 C.2   134  GLN134      0.2592
     13  O          6.8340   64.7790   22.6120 O.2   134  GLN134     -0.2718
     14  CB         8.2140   63.0240   24.7670 C.3   134  GLN134      0.0381
     15  CG         8.4370   63.8050   26.0570 C.3   134  GLN134      0.0905
     16  CD         9.8590   63.7170   26.6160 C.2   134  GLN134      0.2608
     17  OE1       10.6630   62.8670   26.2200 O.2   134  GLN134     -0.2717
     18  NE2       10.1610   64.5960   27.5600 N.am  134  GLN134     -0.0878
     19  N          5.6970   65.2790   24.4970 N.am  135  ALA135     -0.1980
     20  CA         5.1990   65.0000   25.8410 C.3   135  ALA135      0.1597
     21  C          3.8460   64.2540   25.8660 C.2   135  ALA135      0.2287
     22  O          3.7020   63.2390   26.5730 O.2   135  ALA135     -0.2864
     23  CB         5.0670   66.2890   26.5990 C.3   135  ALA135      0.0319
     24  N         12.0320   65.9510   14.7080 N.3   264  PRO264     -0.2102
     25  CA        12.0510   67.2980   15.3040 C.3   264  PRO264      0.1504
     26  C         13.1150   67.5280   16.3680 C.2   264  PRO264      0.2576
     27  O         13.3820   68.6960   16.6640 O.2   264  PRO264     -0.2718
     28  CB        10.6550   67.4430   15.9190 C.3   264  PRO264      0.0282
     29  CG         9.8580   66.2930   15.4150 C.3   264  PRO264      0.0208
     30  CD        10.8190   65.2120   15.0960 C.3   264  PRO264      0.0893
     31  N         13.6670   66.4940   17.0080 N.am  265  TYR265     -0.1963
     32  CA        14.5680   66.6980   18.1330 C.3   265  TYR265      0.1771
     33  C         15.9620   66.1970   17.7870 C.2   265  TYR265      0.2620
     34  O         16.1710   65.5060   16.7860 O.2   265  TYR265     -0.2715
     35  CB        14.0220   66.0050   19.3900 C.3   265  TYR265      0.0574
     36  CG        12.6700   66.5620   19.7770 C.ar  265  TYR265     -0.0198
     37  CD1       12.5670   67.8060   20.3820 C.ar  265  TYR265     -0.0009
     38  CD2       11.4970   65.8790   19.4890 C.ar  265  TYR265     -0.0009
     39  CE1       11.3410   68.3450   20.7180 C.ar  265  TYR265      0.0417
     40  CE2       10.2600   66.4120   19.8180 C.ar  265  TYR265      0.0417
     41  CZ        10.1940   67.6490   20.4430 C.ar  265  TYR265      0.1957
     42  OH         8.9810   68.2050   20.7890 O.3   265  TYR265     -0.2866
     43  N         16.9370   66.5830   18.6090 N.am  266  GLY266     -0.1940
     44  CA        18.2690   66.0310   18.4450 C.3   266  GLY266      0.2014
     45  C         18.3070   64.5730   18.8460 C.2   266  GLY266      0.2639
     46  O         18.9340   63.7470   18.1770 O.2   266  GLY266     -0.2714
     47  N         17.6270   64.2420   19.9350 N.am  267  GLY267     -0.1939
     48  CA        17.5170   62.8640   20.3670 C.3   267  GLY267      0.2014
     49  C         16.2540   62.6630   21.1770 C.2   267  GLY267      0.2639
     50  O         15.6990   63.6030   21.7570 O.2   267  GLY267     -0.2714
     51  N         15.7910   61.4140   21.1930 N.am  268  MET268     -0.1963
     52  CA        14.6990   61.0030   22.0640 C.3   268  MET268      0.1736
     53  C         15.0820   59.6620   22.6690 C.2   268  MET268      0.2616
     54  O         15.3700   58.7050   21.9430 O.2   268  MET268     -0.2715
     55  CB        13.3810   60.9030   21.3060 C.3   268  MET268      0.0427
     56  CG        12.2220   60.3810   22.1320 C.3   268  MET268      0.0599
     57  SD        11.7510   61.4600   23.5080 S.3   268  MET268     -0.1393
     58  CE        11.1670   60.2230   24.6680 C.3   268  MET268      0.0692
     59  N         15.1040   59.6100   23.9940 N.am  269  ALA269     -0.1977
     60  CA        15.5650   58.4450   24.7440 C.3   269  ALA269      0.1597
     61  C         14.5010   57.3640   24.8960 C.2   269  ALA269      0.2287
     62  O         14.1930   56.9400   26.0140 O.2   269  ALA269     -0.2864
     63  CB        16.0470   58.8940   26.1280 C.3   269  ALA269      0.0319
     64  N         25.1150   64.4340   22.3800 N.3   290  VAL290     -0.1245
     65  CA        23.6970   64.1120   22.2850 C.3   290  VAL290      0.1561
     66  C         23.4670   62.6560   22.6650 C.2   290  VAL290      0.2260
     67  O         22.5020   62.3280   23.3650 O.2   290  VAL290     -0.2867
     68  CB        23.1560   64.4370   20.8820 C.3   290  VAL290      0.0252
     69  CG1       21.7120   63.9650   20.7220 C.3   290  VAL290      0.0019
     70  CG2       23.2200   65.9420   20.6530 C.3   290  VAL290      0.0019
     71  N         23.7070   62.3320   26.3540 N.3   293  HIS293     -0.1226
     72  CA        22.4660   62.8290   26.9330 C.3   293  HIS293      0.1752
     73  C         21.3770   61.7590   26.9080 C.2   293  HIS293      0.2595
     74  O         20.7630   61.4570   27.9390 O.2   293  HIS293     -0.2718
     75  CB        22.0220   64.0840   26.1670 C.3   293  HIS293      0.0759
     76  CG        20.7950   64.7300   26.7230 C.ar  293  HIS293      0.0818
     77  ND1       20.8490   65.7760   27.6180 N.ar  293  HIS293     -0.2268
     78  CD2       19.4800   64.4460   26.5520 C.ar  293  HIS293      0.1154
     79  CE1       19.6180   66.1170   27.9620 C.ar  293  HIS293      0.1986
     80  NE2       18.7690   65.3370   27.3190 N.ar  293  HIS293     -0.2212
     81  N         21.1160   61.1810   25.7330 N.am  294  GLU294     -0.1979
     82  CA        20.0620   60.1740   25.6240 C.3   294  GLU294      0.1602
     83  C         20.3920   58.9320   26.4440 C.2   294  GLU294      0.2287
     84  O         19.4990   58.3420   27.0700 O.2   294  GLU294     -0.2864
     85  CB        19.8240   59.8060   24.1560 C.3   294  GLU294      0.0415
     86  CG        19.5080   60.9960   23.2610 C.3   294  GLU294      0.1163
     87  CD        18.4410   61.9380   23.8070 C.2   294  GLU294      0.3649
     88  OE1       17.5940   61.5300   24.6200 O.co2 294  GLU294     -0.2457
     89  OE2       18.4450   63.1210   23.3980 O.co2 294  GLU294     -0.2457
     90  N         19.3520   59.4820   30.0670 N.3   297  HIS297     -0.1241
     91  CA        17.9170   59.3720   30.3290 C.3   297  HIS297      0.1621
     92  C         17.5230   57.9640   30.7550 C.2   297  HIS297      0.2264
     93  O         16.4450   57.7920   31.3410 O.2   297  HIS297     -0.2867
     94  CB        17.0960   59.7750   29.0850 C.3   297  HIS297      0.0745
     95  CG        16.7970   61.2440   28.9740 C.ar  297  HIS297      0.0817
     96  ND1       16.2490   61.9910   29.9970 N.ar  297  HIS297     -0.2268
     97  CD2       16.9260   62.0820   27.9270 C.ar  297  HIS297      0.1154
     98  CE1       16.0720   63.2370   29.5860 C.ar  297  HIS297      0.1986
     99  NE2       16.4860   63.3210   28.3350 N.ar  297  HIS297     -0.2212
    100  N          4.4520   67.4060   33.8150 N.3   309  TRP309     -0.1227
    101  CA         5.3680   68.1660   32.9710 C.3   309  TRP309      0.1737
    102  C          5.7520   69.4910   33.6210 C.2   309  TRP309      0.2595
    103  O          6.7210   70.1280   33.1870 O.2   309  TRP309     -0.2718
    104  CB         4.7720   68.3710   31.5600 C.3   309  TRP309      0.0564
    105  CG         4.5670   67.0400   30.8980 C.ar  309  TRP309      0.0003
    106  CD1        3.3810   66.4320   30.6460 C.ar  309  TRP309      0.0946
    107  CD2        5.5910   66.1000   30.5030 C.ar  309  TRP309      0.0152
    108  NE1        3.5890   65.1950   30.0890 N.ar  309  TRP309     -0.2442
    109  CE2        4.9330   64.9570   29.9950 C.ar  309  TRP309      0.0810
    110  CE3        6.9870   66.1200   30.5210 C.ar  309  TRP309      0.0012
    111  CZ2        5.6280   63.8410   29.5040 C.ar  309  TRP309      0.0191
    112  CZ3        7.6830   65.0140   30.0380 C.ar  309  TRP309      0.0001
    113  CH2        6.9960   63.8890   29.5310 C.ar  309  TRP309      0.0015
    114  N          5.0510   69.8930   34.6800 N.am  310  ASP310     -0.1974
    115  CA         5.4970   71.0460   35.4600 C.3   310  ASP310      0.1709
    116  C          6.8820   70.8220   36.0660 C.2   310  ASP310      0.2293
    117  O          7.5900   71.7950   36.3600 O.2   310  ASP310     -0.2864
    118  CB         4.5200   71.3520   36.5900 C.3   310  ASP310      0.1436
    119  CG         3.1600   71.8310   36.1060 C.2   310  ASP310      0.3671
    120  OD1        2.9680   72.0580   34.8910 O.co2 310  ASP310     -0.2456
    121  OD2        2.2750   71.9780   36.9740 O.co2 310  ASP310     -0.2456
    122  N          9.3870   69.0180   34.6450 N.3   312  PHE312     -0.1241
    123  CA        10.2450   68.5620   33.5580 C.3   312  PHE312      0.1605
    124  C         11.7220   68.8130   33.8270 C.2   312  PHE312      0.2264
    125  O         12.5750   68.0610   33.3520 O.2   312  PHE312     -0.2867
    126  CB         9.7870   69.2730   32.2890 C.3   312  PHE312      0.0534
    127  CG        10.4860   68.8560   31.0390 C.ar  312  PHE312     -0.0203
    128  CD1       10.6040   67.5270   30.6860 C.ar  312  PHE312     -0.0042
    129  CD2       10.9590   69.8190   30.1550 C.ar  312  PHE312     -0.0042
    130  CE1       11.2240   67.1720   29.4950 C.ar  312  PHE312     -0.0003
    131  CE2       11.5710   69.4660   28.9580 C.ar  312  PHE312     -0.0003
    132  CZ        11.6980   68.1530   28.6190 C.ar  312  PHE312     -0.0000
    133  N         15.4040   66.8120   32.7300 N.3   316  GLU316     -0.1245
    134  CA        16.4450   67.3370   31.8550 C.3   316  GLU316      0.1567
    135  C         17.6480   67.8920   32.6120 C.2   316  GLU316      0.2260
    136  O         18.7860   67.7440   32.1510 O.2   316  GLU316     -0.2867
    137  CB        15.8580   68.4180   30.9390 C.3   316  GLU316      0.0388
    138  CG        14.7570   67.9100   30.0280 C.3   316  GLU316      0.1160
    139  CD        15.2010   66.7440   29.1910 C.2   316  GLU316      0.3649
    140  OE1       16.4280   66.6020   28.9790 O.co2 316  GLU316     -0.2457
    141  OE2       14.3250   65.9620   28.7620 O.co2 316  GLU316     -0.2457
    142  N         12.0040   77.6130   36.7490 N.3   363  LEU363     -0.1245
    143  CA        12.4570   76.2290   36.7190 C.3   363  LEU363      0.1561
    144  C         11.2800   75.2700   36.8540 C.2   363  LEU363      0.2260
    145  O         11.1440   74.3260   36.0660 O.2   363  LEU363     -0.2867
    146  CB        13.4840   75.9940   37.8290 C.3   363  LEU363      0.0270
    147  CG        14.2330   74.6690   37.7400 C.3   363  LEU363      0.0019
    148  CD1       15.0040   74.5500   36.4410 C.3   363  LEU363      0.0001
    149  CD2       15.1940   74.4990   38.9330 C.3   363  LEU363      0.0001
    150  N          7.3950   75.1580   36.3550 N.3   365  VAL365     -0.1245
    151  CA         6.4450   75.9000   35.5410 C.3   365  VAL365      0.1561
    152  C          5.0380   75.3960   35.8320 C.2   365  VAL365      0.2260
    153  O          4.8290   74.3110   36.3860 O.2   365  VAL365     -0.2867
    154  CB         6.7630   75.7730   34.0390 C.3   365  VAL365      0.0252
    155  CG1        8.1830   76.3190   33.7280 C.3   365  VAL365      0.0019
    156  CG2        6.6180   74.3430   33.5800 C.3   365  VAL365      0.0019
    157  N          1.8260   74.5430   33.6960 N.3   367  LEU367     -0.1245
    158  CA         1.3670   74.3170   32.3320 C.3   367  LEU367      0.1561
    159  C         -0.1600   74.3050   32.2060 C.2   367  LEU367      0.2260
    160  O         -0.6830   73.8310   31.1930 O.2   367  LEU367     -0.2867
    161  CB         1.9640   73.0140   31.7940 C.3   367  LEU367      0.0270
    162  CG         3.4840   73.0560   31.5690 C.3   367  LEU367      0.0019
    163  CD1        4.0180   71.6870   31.1720 C.3   367  LEU367      0.0001
    164  CD2        3.8750   74.0920   30.5140 C.3   367  LEU367      0.0001
    165  N          2.4460   71.8320   26.0010 N.3   372  PRO372     -0.2102
    166  CA         3.8690   71.6020   26.3140 C.3   372  PRO372      0.1504
    167  C          4.8000   71.8330   25.1390 C.2   372  PRO372      0.2575
    168  O          5.9430   72.2500   25.3530 O.2   372  PRO372     -0.2718
    169  CB         3.8940   70.1400   26.7820 C.3   372  PRO372      0.0282
    170  CG         2.5090   69.7960   27.0840 C.3   372  PRO372      0.0208
    171  CD         1.6090   70.6550   26.3010 C.3   372  PRO372      0.0893
    172  N          4.3470   71.5900   23.9070 N.am  373  ASP373     -0.1974
    173  CA         5.1910   71.8330   22.7470 C.3   373  ASP373      0.1708
    174  C          5.5030   73.3140   22.6050 C.2   373  ASP373      0.2293
    175  O          6.5570   73.6700   22.0770 O.2   373  ASP373     -0.2864
    176  CB         4.5140   71.3150   21.4780 C.3   373  ASP373      0.1436
    177  CG         4.5850   69.7810   21.3410 C.2   373  ASP373      0.3671
    178  OD1        5.5080   69.1440   21.9020 O.co2 373  ASP373     -0.2456
    179  OD2        3.7120   69.2200   20.6420 O.co2 373  ASP373     -0.2456
    180  N          5.6990   75.5130   25.2450 N.3   375  ALA375     -0.1231
    181  CA         6.5300   75.9410   26.3690 C.3   375  ALA375      0.1694
    182  C          7.9570   75.4110   26.2920 C.2   375  ALA375      0.2592
    183  O          8.8560   75.9690   26.9320 O.2   375  ALA375     -0.2718
    184  CB         5.8900   75.4860   27.6820 C.3   375  ALA375      0.0304
    185  N          8.1730   74.3430   25.5360 N.am  376  TYR376     -0.1962
    186  CA         9.4670   73.6780   25.4690 C.3   376  TYR376      0.1771
    187  C         10.5860   74.6490   25.0920 C.2   376  TYR376      0.2620
    188  O         10.4720   75.4400   24.1380 O.2   376  TYR376     -0.2715
    189  CB         9.3840   72.5340   24.4610 C.3   376  TYR376      0.0574
    190  CG        10.6610   71.7720   24.2740 C.ar  376  TYR376     -0.0198
    191  CD1       11.0790   70.8440   25.2090 C.ar  376  TYR376     -0.0009
    192  CD2       11.4490   71.9710   23.1460 C.ar  376  TYR376     -0.0009
    193  CE1       12.2440   70.1490   25.0370 C.ar  376  TYR376      0.0417
    194  CE2       12.6100   71.2720   22.9600 C.ar  376  TYR376      0.0417
    195  CZ        13.0130   70.3560   23.9080 C.ar  376  TYR376      0.1957
    196  OH        14.1830   69.6380   23.7330 O.3   376  TYR376     -0.2866
    197  N         11.6790   74.5820   25.8460 N.am  377  SER377     -0.1950
    198  CA        12.8230   75.4630   25.6430 C.3   377  SER377      0.1924
    199  C         14.0370   74.8690   26.3480 C.2   377  SER377      0.2314
    200  O         13.9560   73.8200   26.9940 O.2   377  SER377     -0.2863
    201  CB        12.5730   76.8570   26.1960 C.3   377  SER377      0.2116
    202  OG        12.7400   76.8620   27.6080 O.3   377  SER377     -0.2180
    203  N         14.5720   74.3940   31.1730 N.3   380  PRO380     -0.2102
    204  CA        14.6730   73.2800   32.1210 C.3   380  PRO380      0.1504
    205  C         16.0310   72.5880   32.0390 C.2   380  PRO380      0.2575
    206  O         16.5650   72.1510   33.0640 O.2   380  PRO380     -0.2718
    207  CB        13.5030   72.3640   31.7200 C.3   380  PRO380      0.0282
    208  CG        13.1140   72.8030   30.3240 C.3   380  PRO380      0.0208
    209  CD        13.3780   74.2730   30.3170 C.3   380  PRO380      0.0893
    210  N         16.5930   72.4720   30.8320 N.am  381  TYR381     -0.1977
    211  CA        17.9140   71.8650   30.6420 C.3   381  TYR381      0.1639
    212  C         18.9900   72.6430   31.3890 C.2   381  TYR381      0.2290
    213  O         19.7570   72.0830   32.1740 O.2   381  TYR381     -0.2864
    214  CB        18.2630   71.8390   29.1520 C.3   381  TYR381      0.0560
    215  CG        17.3930   70.9340   28.3220 C.ar  381  TYR381     -0.0198
    216  CD1       16.1220   71.3220   27.9290 C.ar  381  TYR381     -0.0009
    217  CD2       17.8520   69.6960   27.9200 C.ar  381  TYR381     -0.0009
    218  CE1       15.3110   70.4590   27.1550 C.ar  381  TYR381      0.0417
    219  CE2       17.0670   68.8630   27.1410 C.ar  381  TYR381      0.0417
    220  CZ        15.8050   69.2480   26.7760 C.ar  381  TYR381      0.1957
    221  OH        15.0200   68.4050   26.0270 O.3   381  TYR381     -0.2866
    222  N         15.0970   69.5310   12.3460 N.3   561  ARG561     -0.1245
    223  CA        15.3600   69.6240   13.7770 C.3   561  ARG561      0.1563
    224  C         14.9210   70.9990   14.2630 C.2   561  ARG561      0.2260
    225  O         15.3970   72.0130   13.7520 O.2   561  ARG561     -0.2867
    226  CB        16.8450   69.3960   14.0450 C.3   561  ARG561      0.0307
    227  CG        17.2100   69.2260   15.5050 C.3   561  ARG561      0.0489
    228  CD        18.7080   69.0250   15.6060 C.3   561  ARG561      0.2205
    229  NE        19.1960   68.9610   16.9770 N.pl3 561  ARG561     -0.0865
    230  CZ        20.4700   68.7460   17.2830 C.cat 561  ARG561      0.5346
    231  NH1       21.3640   68.5390   16.3230 N.pl3 561  ARG561      0.1354
    232  NH2       20.8470   68.7040   18.5460 N.pl3 561  ARG561      0.1354
    233  N         15.3910   72.8560   16.7940 N.3   563  LYS563     -0.1245
    234  CA        16.4750   73.6980   17.2920 C.3   563  LYS563      0.1561
    235  C         17.0550   74.5800   16.1920 C.2   563  LYS563      0.2260
    236  O         17.4540   75.7250   16.4420 O.2   563  LYS563     -0.2867
    237  CB        17.5560   72.7950   17.8890 C.3   563  LYS563      0.0271
    238  CG        18.7260   73.5110   18.4990 C.3   563  LYS563      0.0035
    239  CD        19.8300   72.5090   18.8560 C.3   563  LYS563      0.0206
    240  CE        20.9680   73.2050   19.5340 C.3   563  LYS563      0.1093
    241  NZ        22.0240   72.2800   19.9860 N.3   563  LYS563     -0.1314
@<TRIPOS>BOND
     1   222   223    1
     2   225   224    2
     3   223   226    1
     4   223   224    1
     5   226   227    1
     6    24    30    1
     7    24    25    1
     8    30    29    1
     9    25    28    1
    10    25    26    1
    11    29    28    1
    12   227   228    1
    13   228   229    1
    14   235   236    2
    15   235   234    1
    16   231   230    1
    17    26    27    2
    18    26    31   am
    19    34    33    2
    20   233   234    1
    21   229   230    2
    22    31    32    1
    23   230   232    1
    24   234   237    1
    25     1     2    1
    26    33    32    1
    27    33    43   am
    28   237   238    1
    29    32    35    1
    30     5     2    1
    31     5     6    1
    32    46    45    2
    33    44    43    1
    34    44    45    1
    35   238   239    1
    36     2     3    1
    37    45    47   am
    38   239   240    1
    39     6     7    1
    40    35    36    1
    41    38    36   ar
    42    38    40   ar
    43     4     3    2
    44   240   241    1
    45     8     7    2
    46    36    37   ar
    47    40    41   ar
    48    47    48    1
    49     7     9   am
    50    48    49    1
    51    37    39   ar
    52    41    39   ar
    53    41    42    1
    54   179   177   ar
    55    70    68    1
    56    69    68    1
    57    68    65    1
    58    49    51   am
    59    49    50    2
    60    51    52    1
    61    55    52    1
    62    55    56    1
    63   177   176    1
    64   177   178   ar
    65   176   173    1
    66    54    53    2
    67    52    53    1
    68   175   174    2
    69    56    57    1
    70    65    64    1
    71    65    66    1
    72   174   173    1
    73    13    12    2
    74    66    67    2
    75    53    59   am
    76   173   172    1
    77   194   192   ar
    78   194   195   ar
    79   192   190   ar
    80    10    11    1
    81    86    87    1
    82    86    85    1
    83    89    87   ar
    84    57    58    1
    85   196   195    1
    86    12    11    1
    87    12    19   am
    88    87    88   ar
    89   172   167   am
    90   195   193   ar
    91    59    60    1
    92   188   187    2
    93    85    82    1
    94   190   189    1
    95   190   191   ar
    96    11    14    1
    97   189   186    1
    98    19    20    1
    99    60    61    1
   100    60    63    1
   101    14    15    1
   102    61    62    2
   103   193   191   ar
   104   187   186    1
   105   187   197   am
   106   167   168    2
   107   167   166    1
   108   180   181    1
   109   186   185    1
   110   185   182   am
   111    82    81    1
   112    82    83    1
   113   198   197    1
   114   198   201    1
   115   198   199    1
   116    81    73   am
   117    20    21    1
   118    20    23    1
   119    21    22    2
   120   165   171    1
   121   165   166    1
   122   221   220    1
   123    15    16    1
   124    75    76    1
   125    75    72    1
   126   201   202    1
   127    17    16    2
   128   182   181    1
   129   182   183    2
   130   171   170    1
   131   166   169    1
   132   199   200    2
   133    71    72    1
   134   181   184    1
   135    83    84    2
   136    78    76   ar
   137    78    80   ar
   138    16    18   am
   139    76    77   ar
   140   220   219   ar
   141   220   218   ar
   142   169   170    1
   143    73    72    1
   144    73    74    2
   145   219   217   ar
   146   218   216   ar
   147    80    79   ar
   148    77    79   ar
   149   217   215   ar
   150    97    99   ar
   151    97    95   ar
   152   216   215   ar
   153   215   214    1
   154    99    98   ar
   155   132   131   ar
   156   132   130   ar
   157   141   139   ar
   158   131   129   ar
   159    95    94    1
   160    95    96   ar
   161   140   139   ar
   162    94    91    1
   163   214   211    1
   164   139   138    1
   165   130   128   ar
   166   111   113   ar
   167   111   109   ar
   168   113   112   ar
   169    98    96   ar
   170   109   108   ar
   171   109   107   ar
   172   138   137    1
   173   112   110   ar
   174    90    91    1
   175   108   106   ar
   176   129   127   ar
   177   209   208    1
   178   209   203    1
   179   208   207    1
   180    91    92    1
   181   107   110   ar
   182   107   105   ar
   183   164   162    1
   184   211   210    1
   185   211   212    1
   186   106   105   ar
   187   128   127   ar
   188    92    93    2
   189   210   205   am
   190   105   104    1
   191   137   134    1
   192   127   126    1
   193   163   162    1
   194   203   204    1
   195   160   159    2
   196   212   213    2
   197   104   101    1
   198   162   161    1
   199   207   204    1
   200   161   158    1
   201   134   135    1
   202   134   133    1
   203   205   204    1
   204   205   206    2
   205   136   135    2
   206   159   158    1
   207   126   123    1
   208   158   157    1
   209   101   102    1
   210   101   100    1
   211   103   102    2
   212   125   124    2
   213   123   124    1
   214   123   122    1
   215   156   154    1
   216   102   114   am
   217   155   154    1
   218   154   151    1
   219   114   115    1
   220   120   119   ar
   221   115   116    1
   222   115   118    1
   223   151   152    1
   224   151   150    1
   225   152   153    2
   226   116   117    2
   227   145   144    2
   228   119   118    1
   229   119   121   ar
   230   148   147    1
   231   143   142    1
   232   143   144    1
   233   143   146    1
   234   147   146    1
   235   147   149    1
