@<TRIPOS>MOLECULE
tmp/5ni7A00.pdb
 204 196 0 0 0
SMALL
GASTEIGER

@<TRIPOS>ATOM
      1  N        -20.0590   -8.4240  -15.6800 N.3    28  CYS28      -0.1221
      2  CA       -21.2290   -7.7260  -16.1840 C.3    28  CYS28       0.1808
      3  C        -22.0810   -6.9130  -15.1400 C.2    28  CYS28       0.2601
      4  O        -23.0670   -6.3210  -15.5800 O.2    28  CYS28      -0.2717
      5  CB       -22.1030   -8.6690  -17.0130 C.3    28  CYS28       0.0970
      6  SG       -23.0150   -9.9050  -16.0560 S.3    28  CYS28      -0.0800
      7  N        -21.6410   -6.7570  -13.8590 N.am   29  GLN29      -0.1965
      8  CA       -22.2780   -6.0220  -12.7330 C.3    29  GLN29       0.1733
      9  C        -23.6260   -6.6330  -12.3790 C.2    29  GLN29       0.2616
     10  O        -23.7240   -7.2830  -11.3370 O.2    29  GLN29      -0.2715
     11  CB       -22.3510   -4.5090  -12.9360 C.3    29  GLN29       0.0408
     12  CG       -22.8970   -3.6990  -11.7610 C.3    29  GLN29       0.0908
     13  CD       -22.8110   -2.2380  -12.1000 C.2    29  GLN29       0.2608
     14  OE1      -22.4390   -1.8740  -13.2000 O.2    29  GLN29      -0.2717
     15  NE2      -23.1550   -1.3770  -11.2020 N.am   29  GLN29      -0.0878
     16  N        -24.6390   -6.4830  -13.2330 N.am   30  LEU30      -0.1977
     17  CA       -25.9390   -7.1080  -12.9860 C.3    30  LEU30       0.1596
     18  C        -26.2620   -8.1670  -14.0320 C.2    30  LEU30       0.2287
     19  O        -25.9460   -7.9900  -15.2000 O.2    30  LEU30      -0.2864
     20  CB       -27.0930   -6.0920  -12.9060 C.3    30  LEU30       0.0297
     21  CG       -27.0360   -5.0640  -11.7680 C.3    30  LEU30       0.0022
     22  CD1      -28.2220   -4.1790  -11.8230 C.3    30  LEU30       0.0001
     23  CD2      -26.9120   -5.7240  -10.3640 C.3    30  LEU30       0.0001
     24  N        -32.3010   -8.0100  -14.2940 N.3    35  LEU35      -0.1245
     25  CA       -32.8240   -6.7810  -14.8800 C.3    35  LEU35       0.1561
     26  C        -34.1960   -6.9830  -15.5320 C.2    35  LEU35       0.2260
     27  O        -35.0700   -6.1350  -15.3840 O.2    35  LEU35      -0.2867
     28  CB       -31.8170   -6.1800  -15.8730 C.3    35  LEU35       0.0270
     29  CG       -30.5580   -5.5540  -15.2290 C.3    35  LEU35       0.0019
     30  CD1      -29.4620   -5.3320  -16.2570 C.3    35  LEU35       0.0001
     31  CD2      -30.8960   -4.2520  -14.5440 C.3    35  LEU35       0.0001
     32  N        -25.7230   10.1430   -8.8490 N.3    63  CYS63      -0.1235
     33  CA       -25.4570    9.6500  -10.2070 C.3    63  CYS63       0.1677
     34  C        -23.9690    9.4260  -10.4550 C.2    63  CYS63       0.2270
     35  O        -23.6250    8.4220  -11.0540 O.2    63  CYS63      -0.2867
     36  CB       -26.1060   10.5430  -11.2640 C.3    63  CYS63       0.0956
     37  SG       -27.9180   10.6140  -11.1480 S.3    63  CYS63      -0.0801
     38  N        -23.1430    6.0860   -8.7570 N.3    66  HIS66      -0.1226
     39  CA       -23.6520    4.9650   -9.5270 C.3    66  HIS66       0.1752
     40  C        -22.8230    4.7070  -10.7960 C.2    66  HIS66       0.2595
     41  O        -22.4400    3.5650  -11.0310 O.2    66  HIS66      -0.2718
     42  CB       -25.1390    5.1270   -9.8340 C.3    66  HIS66       0.0759
     43  CG       -25.9810    5.0640   -8.6160 C.ar   66  HIS66       0.0818
     44  ND1      -25.8500    4.0370   -7.7310 N.ar   66  HIS66      -0.2268
     45  CD2      -26.9390    5.9050   -8.1760 C.ar   66  HIS66       0.1154
     46  CE1      -26.7110    4.2850   -6.7660 C.ar   66  HIS66       0.1986
     47  NE2      -27.3650    5.4160   -6.9860 N.ar   66  HIS66      -0.2212
     48  N        -22.4710    5.7600  -11.5460 N.am   67  LEU67      -0.1980
     49  CA       -21.6200    5.7000  -12.7300 C.3    67  LEU67       0.1596
     50  C        -20.2400    5.1190  -12.3740 C.2    67  LEU67       0.2287
     51  O        -19.7190    4.2710  -13.1070 O.2    67  LEU67      -0.2864
     52  CB       -21.4430    7.1360  -13.2090 C.3    67  LEU67       0.0297
     53  CG       -21.5170    7.4910  -14.6230 C.3    67  LEU67       0.0022
     54  CD1      -22.1560    8.9540  -14.7970 C.3    67  LEU67       0.0001
     55  CD2      -20.1310    7.5310  -15.1570 C.3    67  LEU67       0.0001
     56  N        -20.3750    1.3670  -11.8690 N.3    70  ALA70      -0.1245
     57  CA       -20.4410    0.7020  -13.1770 C.3    70  ALA70       0.1562
     58  C        -19.0490    0.6960  -13.8780 C.2    70  ALA70       0.2260
     59  O        -18.6420   -0.3280  -14.4300 O.2    70  ALA70      -0.2867
     60  CB       -21.4960    1.3670  -14.0430 C.3    70  ALA70       0.0290
     61  N        -20.0370    1.8600  -20.5040 N.3   104  VAL104     -0.1245
     62  CA       -21.1710    1.9620  -19.5780 C.3   104  VAL104      0.1561
     63  C        -22.4510    2.3160  -20.3430 C.2   104  VAL104      0.2260
     64  O        -23.4790    1.7100  -20.1040 O.2   104  VAL104     -0.2867
     65  CB       -20.8830    2.9500  -18.4250 C.3   104  VAL104      0.0252
     66  CG1      -22.1340    3.2040  -17.5830 C.3   104  VAL104      0.0019
     67  CG2      -19.7520    2.4410  -17.5350 C.3   104  VAL104      0.0019
     68  N        -23.5880   -0.8410  -22.1730 N.3   107  ARG107     -0.1231
     69  CA       -24.0970   -1.8050  -21.1930 C.3   107  ARG107      0.1694
     70  C        -25.4860   -1.4060  -20.6840 C.2   107  ARG107      0.2591
     71  O        -26.3070   -2.2650  -20.4430 O.2   107  ARG107     -0.2718
     72  CB       -23.1160   -1.9420  -20.0000 C.3   107  ARG107      0.0321
     73  CG       -21.8400   -2.7320  -20.3060 C.3   107  ARG107      0.0489
     74  CD       -20.9060   -2.7470  -19.1020 C.3   107  ARG107      0.2205
     75  NE       -19.8950   -3.7910  -19.2300 N.pl3 107  ARG107     -0.0865
     76  CZ       -19.4020   -4.5100  -18.2270 C.cat 107  ARG107      0.5346
     77  NH1      -19.7900   -4.2770  -16.9790 N.pl3 107  ARG107      0.1354
     78  NH2      -18.5140   -5.4660  -18.4650 N.pl3 107  ARG107      0.1354
     79  N        -25.7210   -0.1110  -20.4930 N.am  108  MET108     -0.1979
     80  CA       -26.9550    0.4710  -19.9610 C.3   108  MET108      0.1605
     81  C        -28.2100    0.0660  -20.7330 C.2   108  MET108      0.2287
     82  O        -29.2900    0.0270  -20.1510 O.2   108  MET108     -0.2864
     83  CB       -26.8410    2.0070  -19.9100 C.3   108  MET108      0.0413
     84  CG       -27.9460    2.6990  -19.1260 C.3   108  MET108      0.0598
     85  SD       -28.1080    2.0960  -17.4010 S.3   108  MET108     -0.1393
     86  CE       -26.5680    2.8350  -16.5750 C.3   108  MET108      0.0692
     87  N        -29.1910   -2.7770  -21.4810 N.3   110  ARG110     -0.1231
     88  CA       -29.7150   -3.9680  -20.7920 C.3   110  ARG110      0.1694
     89  C        -30.6450   -3.5530  -19.6430 C.2   110  ARG110      0.2592
     90  O        -31.5590   -4.2970  -19.2930 O.2   110  ARG110     -0.2718
     91  CB       -28.5860   -4.7860  -20.1430 C.3   110  ARG110      0.0321
     92  CG       -27.5010   -5.2730  -21.0830 C.3   110  ARG110      0.0489
     93  CD       -26.2490   -5.5370  -20.2640 C.3   110  ARG110      0.2205
     94  NE       -26.2720   -6.8630  -19.6420 N.pl3 110  ARG110     -0.0865
     95  CZ       -26.2340   -7.1220  -18.3380 C.cat 110  ARG110      0.5346
     96  NH1      -26.1150   -6.1390  -17.4590 N.pl3 110  ARG110      0.1354
     97  NH2      -26.2420   -8.3700  -17.9060 N.pl3 110  ARG110      0.1354
     98  N        -30.3860   -2.3860  -19.0270 N.am  111  ALA111     -0.1966
     99  CA       -31.1230   -1.8740  -17.8930 C.3   111  ALA111      0.1728
    100  C        -32.2300   -0.9420  -18.3170 C.2   111  ALA111      0.2616
    101  O        -32.8860   -0.3300  -17.4750 O.2   111  ALA111     -0.2715
    102  CB       -30.1570   -1.1580  -16.9730 C.3   111  ALA111      0.0334
    103  N        -32.4360   -0.8040  -19.6240 N.am  112  TYR112     -0.1974
    104  CA       -33.4380    0.1020  -20.1800 C.3   112  TYR112      0.1639
    105  C        -34.5860   -0.7180  -20.7850 C.2   112  TYR112      0.2290
    106  O        -34.3450   -1.5740  -21.6200 O.2   112  TYR112     -0.2864
    107  CB       -32.7840    1.0150  -21.2390 C.3   112  TYR112      0.0560
    108  CG       -33.7870    1.8970  -21.9660 C.ar  112  TYR112     -0.0198
    109  CD1      -34.1600    3.1330  -21.4530 C.ar  112  TYR112     -0.0009
    110  CD2      -34.3610    1.4900  -23.1750 C.ar  112  TYR112     -0.0009
    111  CE1      -35.1030    3.9270  -22.0990 C.ar  112  TYR112      0.0417
    112  CE2      -35.2970    2.2860  -23.8350 C.ar  112  TYR112      0.0417
    113  CZ       -35.6640    3.5040  -23.2870 C.ar  112  TYR112      0.1957
    114  OH       -36.5550    4.3320  -23.9230 O.3   112  TYR112     -0.2866
    115  N        -35.6200    3.1960  -17.0460 N.3   119  VAL119     -0.1231
    116  CA       -34.2890    2.6890  -16.7580 C.3   119  VAL119      0.1692
    117  C        -34.2250    2.2240  -15.2920 C.2   119  VAL119      0.2592
    118  O        -34.8240    2.8460  -14.4230 O.2   119  VAL119     -0.2718
    119  CB       -33.1620    3.7260  -17.1240 C.3   119  VAL119      0.0266
    120  CG1      -33.1180    4.8950  -16.1360 C.3   119  VAL119      0.0020
    121  CG2      -31.7910    3.0430  -17.2380 C.3   119  VAL119      0.0020
    122  N        -33.4460    1.1810  -15.0340 N.am  120  PHE120     -0.1962
    123  CA       -33.2060    0.6600  -13.7010 C.3   120  PHE120      0.1771
    124  C        -32.2280    1.6080  -12.9900 C.2   120  PHE120      0.2620
    125  O        -31.1030    1.8300  -13.4310 O.2   120  PHE120     -0.2715
    126  CB       -32.6530   -0.7680  -13.7640 C.3   120  PHE120      0.0574
    127  CG       -32.5560   -1.4410  -12.4170 C.ar  120  PHE120     -0.0200
    128  CD1      -33.7010   -1.9220  -11.7750 C.ar  120  PHE120     -0.0042
    129  CD2      -31.3160   -1.6670  -11.8200 C.ar  120  PHE120     -0.0042
    130  CE1      -33.6100   -2.5930  -10.5500 C.ar  120  PHE120     -0.0003
    131  CE2      -31.2260   -2.3210  -10.5800 C.ar  120  PHE120     -0.0003
    132  CZ       -32.3770   -2.7730   -9.9480 C.ar  120  PHE120     -0.0000
    133  N        -32.6850    2.1810  -11.8840 N.am  121  PHE121     -0.1960
    134  CA       -31.9300    3.1290  -11.1030 C.3   121  PHE121      0.1771
    135  C        -32.3120    2.9450   -9.6710 C.2   121  PHE121      0.2619
    136  O        -33.4940    2.9960   -9.3850 O.2   121  PHE121     -0.2715
    137  CB       -32.2540    4.5740  -11.5740 C.3   121  PHE121      0.0574
    138  CG       -31.5030    5.6510  -10.8270 C.ar  121  PHE121     -0.0200
    139  CD1      -30.1660    5.9010  -11.1000 C.ar  121  PHE121     -0.0042
    140  CD2      -32.1290    6.4030   -9.8300 C.ar  121  PHE121     -0.0042
    141  CE1      -29.4600    6.8850  -10.3940 C.ar  121  PHE121     -0.0003
    142  CE2      -31.4220    7.4130   -9.1420 C.ar  121  PHE121     -0.0003
    143  CZ       -30.0880    7.6300   -9.4160 C.ar  121  PHE121     -0.0000
    144  N        -31.3210    2.7370   -8.7640 N.am  122  GLU122     -0.1977
    145  CA       -31.5440    2.6090   -7.3160 C.3   122  GLU122      0.1602
    146  C        -32.6970    1.6350   -6.9350 C.2   122  GLU122      0.2287
    147  O        -33.5750    1.9710   -6.1430 O.2   122  GLU122     -0.2864
    148  CB       -31.7430    4.0070   -6.6720 C.3   122  GLU122      0.0415
    149  CG       -30.5010    4.8710   -6.7660 C.3   122  GLU122      0.1163
    150  CD       -30.4670    6.1420   -5.9400 C.2   122  GLU122      0.3649
    151  OE1      -31.5280    6.5650   -5.4330 O.co2 122  GLU122     -0.2457
    152  OE2      -29.3550    6.6740   -5.7270 O.co2 122  GLU122     -0.2457
    153  N        -34.8410   12.1650  -13.3210 N.3   131  PHE131     -0.1241
    154  CA       -33.5880   12.9260  -13.3190 C.3   131  PHE131      0.1605
    155  C        -33.7440   14.4470  -13.5030 C.2   131  PHE131      0.2264
    156  O        -32.7310   15.1290  -13.6280 O.2   131  PHE131     -0.2867
    157  CB       -32.6210   12.3570  -14.3580 C.3   131  PHE131      0.0534
    158  CG       -32.3770   10.8740  -14.1990 C.ar  131  PHE131     -0.0203
    159  CD1      -33.1410    9.9520  -14.9030 C.ar  131  PHE131     -0.0042
    160  CD2      -31.4360   10.4000  -13.2830 C.ar  131  PHE131     -0.0042
    161  CE1      -32.9510    8.5780  -14.7200 C.ar  131  PHE131     -0.0003
    162  CE2      -31.2210    9.0280  -13.1220 C.ar  131  PHE131     -0.0003
    163  CZ       -31.9910    8.1230  -13.8220 C.ar  131  PHE131     -0.0000
    164  N        -31.3020   17.1970  -11.9600 N.3   134  LEU134     -0.1245
    165  CA       -29.9320   17.3700  -12.4670 C.3   134  LEU134      0.1561
    166  C        -29.7340   18.6260  -13.2730 C.2   134  LEU134      0.2260
    167  O        -28.6180   19.1450  -13.3060 O.2   134  LEU134     -0.2867
    168  CB       -29.4560   16.1890  -13.3110 C.3   134  LEU134      0.0270
    169  CG       -29.2560   14.8480  -12.6120 C.3   134  LEU134      0.0019
    170  CD1      -29.0160   13.7670  -13.6170 C.3   134  LEU134      0.0001
    171  CD2      -28.0770   14.8760  -11.6870 C.3   134  LEU134      0.0001
    172  N        -29.7400   13.9550  -20.6170 N.3   140  ILE140     -0.1245
    173  CA       -30.5350   12.8070  -20.1540 C.3   140  ILE140      0.1561
    174  C        -31.3840   12.2460  -21.2680 C.2   140  ILE140      0.2260
    175  O        -31.4180   11.0220  -21.4450 O.2   140  ILE140     -0.2867
    176  CB       -31.3620   13.1100  -18.8600 C.3   140  ILE140      0.0252
    177  CG1      -30.4680   13.6330  -17.7000 C.3   140  ILE140      0.0019
    178  CG2      -32.2440   11.9030  -18.4100 C.3   140  ILE140      0.0019
    179  CD1      -29.3510   12.7440  -17.2970 C.3   140  ILE140      0.0001
    180  N        -29.2400   10.3340  -23.7310 N.3   143  ILE143     -0.1231
    181  CA       -28.8590    9.0300  -23.1870 C.3   143  ILE143      0.1692
    182  C        -30.0360    8.0590  -23.2760 C.2   143  ILE143      0.2592
    183  O        -29.8350    6.9100  -23.6780 O.2   143  ILE143     -0.2718
    184  CB       -28.2700    9.1500  -21.7940 C.3   143  ILE143      0.0266
    185  CG1      -26.9500    9.9210  -21.8210 C.3   143  ILE143      0.0019
    186  CG2      -28.0830    7.7580  -21.1610 C.3   143  ILE143      0.0020
    187  CD1      -26.4380   10.3320  -20.4060 C.3   143  ILE143      0.0001
    188  N        -31.2620    8.5190  -22.9810 N.am  144  PHE144     -0.1976
    189  CA       -32.4590    7.6660  -23.0990 C.3   144  PHE144      0.1639
    190  C        -32.6860    7.2530  -24.5450 C.2   144  PHE144      0.2290
    191  O        -32.9760    6.0820  -24.7980 O.2   144  PHE144     -0.2864
    192  CB       -33.7120    8.3630  -22.5200 C.3   144  PHE144      0.0560
    193  CG       -33.9520    8.0660  -21.0650 C.ar  144  PHE144     -0.0200
    194  CD1      -33.0510    8.4810  -20.1000 C.ar  144  PHE144     -0.0042
    195  CD2      -35.0680    7.3310  -20.6580 C.ar  144  PHE144     -0.0042
    196  CE1      -33.2510    8.1620  -18.7610 C.ar  144  PHE144     -0.0003
    197  CE2      -35.2670    7.0130  -19.3150 C.ar  144  PHE144     -0.0003
    198  CZ       -34.3470    7.4180  -18.3790 C.ar  144  PHE144     -0.0000
    199  N        -30.1040    4.5630  -25.5380 N.3   147  SER147     -0.1217
    200  CA       -30.5180    3.2910  -24.9710 C.3   147  SER147      0.1889
    201  C        -31.7120    2.7190  -25.7300 C.2   147  SER147      0.2288
    202  O        -31.7870    1.5000  -25.8890 O.2   147  SER147     -0.2866
    203  CB       -30.8580    3.4490  -23.4960 C.3   147  SER147      0.2089
    204  OG       -29.6960    3.3870  -22.6920 O.3   147  SER147     -0.2183
@<TRIPOS>BOND
     1   202   201    2
     2   201   200    1
     3   199   200    1
     4   200   203    1
     5   191   190    2
     6   190   189    1
     7   114   113    1
     8   112   113   ar
     9   112   110   ar
    10   180   181    1
    11   183   182    2
    12   203   204    1
    13   113   111   ar
    14   182   181    1
    15   182   188   am
    16   181   184    1
    17   110   108   ar
    18   189   188    1
    19   189   192    1
    20   192   193    1
    21    68    69    1
    22   111   109   ar
    23   108   109   ar
    24   108   107    1
    25   185   184    1
    26   185   187    1
    27   184   186    1
    28   106   105    2
    29    87    88    1
    30   175   174    2
    31   174   173    1
    32   107   104    1
    33    69    70    1
    34    69    72    1
    35    92    93    1
    36    92    91    1
    37   193   195   ar
    38   193   194   ar
    39    88    91    1
    40    88    89    1
    41   105   104    1
    42    81    82    2
    43    81    80    1
    44    70    79   am
    45    70    71    2
    46   195   197   ar
    47   172   173    1
    48    61    62    1
    49    79    80    1
    50    63    64    2
    51    63    62    1
    52    73    72    1
    53    73    74    1
    54    93    94    1
    55   104   103    1
    56   173   176    1
    57   194   196   ar
    58    80    83    1
    59    83    84    1
    60    89    90    2
    61    89    98   am
    62    94    95    2
    63   103   100   am
    64    62    65    1
    65   197   198   ar
    66    75    74    1
    67    75    76    2
    68    84    85    1
    69    98    99    1
    70   176   178    1
    71   176   177    1
    72   196   198   ar
    73    78    76    1
    74    65    66    1
    75    65    67    1
    76    95    97    1
    77    95    96    1
    78   100    99    1
    79   100   101    2
    80    76    77    1
    81    99   102    1
    82   177   179    1
    83    85    86    1
    84   121   119    1
    85   119   116    1
    86   119   120    1
    87   115   116    1
    88     5     2    1
    89     5     6    1
    90   116   117    1
    91    30    29    1
    92     2     1    1
    93     2     3    1
    94    28    29    1
    95    28    25    1
    96     4     3    2
    97    26    27    2
    98    26    25    1
    99   117   122   am
   100   117   118    2
   101    29    31    1
   102    19    18    2
   103    55    53    1
   104     3     7   am
   105   122   123    1
   106   159   161   ar
   107   159   158   ar
   108    25    24    1
   109    54    53    1
   110   161   163   ar
   111    53    52    1
   112    59    58    2
   113   157   158    1
   114   157   154    1
   115   158   160   ar
   116    60    57    1
   117    18    17    1
   118    58    57    1
   119     7     8    1
   120   163   162   ar
   121   126   123    1
   122   126   127    1
   123   123   124    1
   124   156   155    2
   125   170   169    1
   126   155   154    1
   127   125   124    2
   128   153   154    1
   129   168   169    1
   130   168   165    1
   131   167   166    2
   132   160   162   ar
   133   166   165    1
   134    16    17    1
   135    16     9   am
   136    52    49    1
   137    14    13    2
   138    57    56    1
   139    51    50    2
   140   124   133   am
   141    17    20    1
   142    11     8    1
   143    11    12    1
   144    20    21    1
   145     8     9    1
   146    49    50    1
   147    49    48    1
   148   169   171    1
   149   165   164    1
   150   127   129   ar
   151   127   128   ar
   152     9    10    2
   153    13    12    1
   154    13    15   am
   155   133   134    1
   156    22    21    1
   157   129   131   ar
   158   128   130   ar
   159    21    23    1
   160   137   134    1
   161   137   138    1
   162    48    40   am
   163    36    37    1
   164    36    33    1
   165   134   135    1
   166   139   138   ar
   167   139   141   ar
   168    35    34    2
   169    41    40    2
   170   138   140   ar
   171    40    39    1
   172   131   132   ar
   173   130   132   ar
   174    34    33    1
   175   141   143   ar
   176    33    32    1
   177    42    39    1
   178    42    43    1
   179   140   142   ar
   180   135   136    2
   181   135   144   am
   182    39    38    1
   183   143   142   ar
   184   144   145    1
   185    43    45   ar
   186    43    44   ar
   187    45    47   ar
   188    44    46   ar
   189   145   146    1
   190   145   148    1
   191    47    46   ar
   192   146   147    2
   193   149   148    1
   194   149   150    1
   195   150   152   ar
   196   150   151   ar
