@<TRIPOS>MOLECULE
tmp/5nigB00.pdb
 155 152 0 0 0
SMALL
GASTEIGER

@<TRIPOS>ATOM
      1  N         48.7360   25.6930  -14.2050 N.3    11  VAL11      -0.1245
      2  CA        49.6270   25.3670  -15.3110 C.3    11  VAL11       0.1561
      3  C         48.9070   24.3380  -16.1670 C.2    11  VAL11       0.2260
      4  O         48.2470   23.4320  -15.6570 O.2    11  VAL11      -0.2867
      5  CB        51.0340   24.9000  -14.8650 C.3    11  VAL11       0.0252
      6  CG1       50.9690   23.7160  -13.9090 C.3    11  VAL11       0.0019
      7  CG2       51.9370   24.5930  -16.0510 C.3    11  VAL11       0.0019
      8  N         49.9300   21.8610  -19.4600 N.3    13  HIS13      -0.1241
      9  CA        50.9040   21.3310  -20.3790 C.3    13  HIS13       0.1621
     10  C         50.0800   20.5840  -21.4140 C.2    13  HIS13       0.2264
     11  O         49.4950   19.5380  -21.1090 O.2    13  HIS13      -0.2867
     12  CB        51.9090   20.3930  -19.6750 C.3    13  HIS13       0.0745
     13  CG        52.4260   20.8840  -18.3400 C.ar   13  HIS13       0.0817
     14  ND1       53.5700   21.6480  -18.2110 N.ar   13  HIS13      -0.2268
     15  CD2       51.9890   20.6530  -17.0800 C.ar   13  HIS13       0.1154
     16  CE1       53.8150   21.8530  -16.9290 C.ar   13  HIS13       0.1986
     17  NE2       52.8640   21.2770  -16.2200 N.ar   13  HIS13      -0.2212
     18  N         52.9400   21.3400  -28.8640 N.3    26  PHE26      -0.1241
     19  CA        53.0750   21.3330  -27.4110 C.3    26  PHE26       0.1605
     20  C         53.0360   22.7730  -26.9030 C.2    26  PHE26       0.2264
     21  O         53.7340   23.6320  -27.4280 O.2    26  PHE26      -0.2867
     22  CB        54.3870   20.6700  -26.9970 C.3    26  PHE26       0.0534
     23  CG        54.7460   20.8510  -25.5590 C.ar   26  PHE26      -0.0203
     24  CD1       54.0110   20.2300  -24.5570 C.ar   26  PHE26      -0.0042
     25  CD2       55.8160   21.6620  -25.1920 C.ar   26  PHE26      -0.0042
     26  CE1       54.3550   20.4000  -23.2260 C.ar   26  PHE26      -0.0003
     27  CE2       56.1460   21.8270  -23.8650 C.ar   26  PHE26      -0.0003
     28  CZ        55.4100   21.2100  -22.8820 C.ar   26  PHE26      -0.0000
     29  N         53.2740   24.9260  -23.1740 N.3    28  ASP28      -0.1239
     30  CA        53.5550   24.9750  -21.7390 C.3    28  ASP28       0.1674
     31  C         53.0170   26.3270  -21.2750 C.2    28  ASP28       0.2266
     32  O         53.6180   27.3480  -21.5820 O.2    28  ASP28      -0.2867
     33  CB        55.0870   24.8660  -21.5050 C.3    28  ASP28       0.1410
     34  CG        55.4640   24.2230  -20.2110 C.2    28  ASP28       0.3668
     35  OD1       54.9300   23.1610  -19.8750 O.co2  28  ASP28      -0.2456
     36  OD2       56.3590   24.7840  -19.5260 O.co2  28  ASP28      -0.2456
     37  N         51.1560   28.9980  -18.3760 N.3    30  TYR30      -0.1241
     38  CA        51.1100   29.3350  -16.9520 C.3    30  TYR30       0.1605
     39  C         50.1000   30.4670  -16.7570 C.2    30  TYR30       0.2264
     40  O         50.0810   31.4200  -17.5460 O.2    30  TYR30      -0.2867
     41  CB        52.5110   29.7580  -16.4390 C.3    30  TYR30       0.0534
     42  CG        53.5350   28.6620  -16.5100 C.ar   30  TYR30      -0.0201
     43  CD1       54.1090   28.2990  -17.7280 C.ar   30  TYR30      -0.0009
     44  CD2       53.8780   27.9290  -15.3740 C.ar   30  TYR30      -0.0009
     45  CE1       54.9770   27.2360  -17.8320 C.ar   30  TYR30       0.0417
     46  CE2       54.7520   26.8550  -15.4810 C.ar   30  TYR30       0.0417
     47  CZ        55.3180   26.5340  -16.6910 C.ar   30  TYR30       0.1957
     48  OH        56.1690   25.4320  -16.7860 O.3    30  TYR30      -0.2866
     49  N         59.9790   30.5040  -24.9330 N.3    47  TYR47      -0.1241
     50  CA        58.9310   31.1590  -24.1280 C.3    47  TYR47       0.1605
     51  C         58.6660   32.5860  -24.5980 C.2    47  TYR47       0.2264
     52  O         59.5790   33.2880  -25.0260 O.2    47  TYR47      -0.2867
     53  CB        59.2600   31.1590  -22.6210 C.3    47  TYR47       0.0534
     54  CG        59.0960   29.7940  -21.9870 C.ar   47  TYR47      -0.0201
     55  CD1       60.1360   28.8860  -21.9710 C.ar   47  TYR47      -0.0009
     56  CD2       57.8650   29.4110  -21.4350 C.ar   47  TYR47      -0.0009
     57  CE1       59.9840   27.6310  -21.4250 C.ar   47  TYR47       0.0417
     58  CE2       57.7010   28.1530  -20.8790 C.ar   47  TYR47       0.0417
     59  CZ        58.7840   27.2720  -20.8560 C.ar   47  TYR47       0.1957
     60  OH        58.6510   25.9960  -20.3580 O.3    47  TYR47      -0.2866
     61  N         63.7970   32.0720  -18.4210 N.3    61  TRP61      -0.1241
     62  CA        63.7960   30.6680  -18.9000 C.3    61  TRP61       0.1605
     63  C         64.4970   30.5170  -20.2550 C.2    61  TRP61       0.2264
     64  O         65.2150   29.5340  -20.4700 O.2    61  TRP61      -0.2867
     65  CB        62.3640   30.1180  -18.9560 C.3    61  TRP61       0.0550
     66  CG        61.6600   30.1380  -17.6170 C.ar   61  TRP61       0.0003
     67  CD1       62.2390   30.1660  -16.3780 C.ar   61  TRP61       0.0946
     68  CD2       60.2460   30.0740  -17.3750 C.ar   61  TRP61       0.0152
     69  NE1       61.3020   30.1690  -15.4010 N.ar   61  TRP61      -0.2442
     70  CE2       60.0570   30.1030  -15.9780 C.ar   61  TRP61       0.0810
     71  CE3       59.1280   29.9690  -18.2030 C.ar   61  TRP61       0.0012
     72  CZ2       58.7840   30.0570  -15.3870 C.ar   61  TRP61       0.0191
     73  CZ3       57.8620   29.9270  -17.6230 C.ar   61  TRP61       0.0001
     74  CH2       57.6860   29.9550  -16.2340 C.ar   61  TRP61       0.0015
     75  N         64.9650   20.8490  -23.5420 N.3    70  GLN70      -0.1231
     76  CA        63.9990   19.9300  -22.9850 C.3    70  GLN70       0.1698
     77  C         62.5820   20.2320  -23.5130 C.2    70  GLN70       0.2592
     78  O         61.8650   19.3200  -23.9050 O.2    70  GLN70      -0.2718
     79  CB        64.0140   20.0020  -21.4910 C.3    70  GLN70       0.0381
     80  CG        63.1000   18.9990  -20.8430 C.3    70  GLN70       0.0905
     81  CD        62.9040   19.2850  -19.3810 C.2    70  GLN70       0.2608
     82  OE1       62.2600   20.2870  -19.0130 O.2    70  GLN70      -0.2717
     83  NE2       63.4140   18.4060  -18.5350 N.am   70  GLN70      -0.0878
     84  N         62.1900   21.5130  -23.5310 N.am   71  LYS71      -0.1980
     85  CA        60.8390   21.8540  -24.0070 C.3    71  LYS71       0.1596
     86  C         60.6900   21.6000  -25.5040 C.2    71  LYS71       0.2287
     87  O         59.6260   21.1940  -25.9530 O.2    71  LYS71      -0.2864
     88  CB        60.4600   23.3040  -23.7210 C.3    71  LYS71       0.0298
     89  CG        60.6040   23.7380  -22.2880 C.3    71  LYS71       0.0038
     90  CD        60.1710   22.6930  -21.2920 C.3    71  LYS71       0.0206
     91  CE        58.6750   22.4390  -21.3010 C.3    71  LYS71       0.1093
     92  NZ        58.2500   21.9060  -19.9750 N.3    71  LYS71      -0.1314
     93  N         59.1070   13.4300  -26.3710 N.3    77  THR77      -0.1203
     94  CA        59.3570   12.8000  -25.0760 C.3    77  THR77       0.1994
     95  C         58.1130   12.7720  -24.1980 C.2    77  THR77       0.2617
     96  O         58.0030   11.9430  -23.2900 O.2    77  THR77      -0.2717
     97  CB        60.4420   13.5350  -24.2790 C.3    77  THR77       0.1784
     98  OG1       59.9970   14.8770  -24.0520 O.3    77  THR77      -0.2211
     99  CG2       61.7590   13.5340  -25.0040 C.3    77  THR77       0.0376
    100  N         57.1790   13.6870  -24.4830 N.am   78  TYR78      -0.1975
    101  CA        55.9850   13.8810  -23.6640 C.3    78  TYR78       0.1639
    102  C         54.7040   13.6000  -24.4720 C.2    78  TYR78       0.2290
    103  O         53.9790   12.6650  -24.1510 O.2    78  TYR78      -0.2864
    104  CB        56.0120   15.2970  -23.1160 C.3    78  TYR78       0.0560
    105  CG        54.8490   15.6940  -22.2620 C.ar   78  TYR78      -0.0198
    106  CD1       54.5680   15.0490  -21.0590 C.ar   78  TYR78      -0.0009
    107  CD2       54.0030   16.7280  -22.6590 C.ar   78  TYR78      -0.0009
    108  CE1       53.5310   15.4420  -20.2420 C.ar   78  TYR78       0.0417
    109  CE2       52.9330   17.1120  -21.8780 C.ar   78  TYR78       0.0417
    110  CZ        52.6920   16.4730  -20.6710 C.ar   78  TYR78       0.1957
    111  OH        51.6380   16.8720  -19.8780 O.3    78  TYR78      -0.2866
    112  N         54.8490   10.2950  -26.7390 N.3    81  HIS81      -0.1226
    113  CA        55.0040    9.2130  -25.7880 C.3    81  HIS81       0.1752
    114  C         53.6700    8.9170  -25.1280 C.2    81  HIS81       0.2596
    115  O         53.2210    7.7730  -25.0920 O.2    81  HIS81      -0.2718
    116  CB        56.0530    9.5590  -24.7220 C.3    81  HIS81       0.0759
    117  CG        56.1720    8.5170  -23.6640 C.ar   81  HIS81       0.0818
    118  ND1       56.9840    7.4080  -23.7960 N.ar   81  HIS81      -0.2268
    119  CD2       55.5280    8.3770  -22.4940 C.ar   81  HIS81       0.1154
    120  CE1       56.8320    6.6360  -22.7360 C.ar   81  HIS81       0.1986
    121  NE2       55.9580    7.2080  -21.9270 N.ar   81  HIS81      -0.2212
    122  N         53.0390    9.9490  -24.5730 N.am   82  ASN82      -0.1974
    123  CA        51.7870    9.7510  -23.8350 C.3    82  ASN82       0.1688
    124  C         50.6190    9.3530  -24.7270 C.2    82  ASN82       0.2292
    125  O         49.7480    8.5590  -24.3030 O.2    82  ASN82      -0.2864
    126  CB        51.4300   10.9650  -22.9810 C.3    82  ASN82       0.1181
    127  CG        52.3230   11.0870  -21.7860 C.2    82  ASN82       0.2629
    128  OD1       52.9780   10.1110  -21.3790 O.2    82  ASN82      -0.2716
    129  ND2       52.3370   12.2720  -21.1680 N.am   82  ASN82      -0.0877
    130  N         50.9370    7.3770  -27.2740 N.3    84  GLY84      -0.1210
    131  CA        51.1500    5.9570  -27.4260 C.3    84  GLY84       0.1956
    132  C         50.7010    5.1630  -26.2220 C.2    84  GLY84       0.2612
    133  O         50.0940    4.0800  -26.3690 O.2    84  GLY84      -0.2717
    134  N         51.0110    5.6640  -25.0300 N.am   85  VAL85      -0.1965
    135  CA        50.6090    4.9830  -23.8030 C.3    85  VAL85       0.1727
    136  C         49.0890    4.8600  -23.7050 C.2    85  VAL85       0.2616
    137  O         48.5650    3.7920  -23.4060 O.2    85  VAL85      -0.2715
    138  CB        51.1830    5.6540  -22.5340 C.3    85  VAL85       0.0290
    139  CG1       50.5840    5.0370  -21.2770 C.3    85  VAL85       0.0023
    140  CG2       52.7140    5.5610  -22.5050 C.3    85  VAL85       0.0023
    141  N         48.3970    5.9660  -23.9770 N.am   86  GLY86      -0.1955
    142  CA        46.9720    6.0420  -23.7720 C.3    86  GLY86       0.1869
    143  C         46.0980    5.6100  -24.9290 C.2    86  GLY86       0.2309
    144  O         44.8800    5.5120  -24.7400 O.2    86  GLY86      -0.2863
    145  N         42.7870    3.1040  -24.9860 N.3    89  PHE89      -0.1241
    146  CA        41.6490    3.3840  -24.1230 C.3    89  PHE89       0.1605
    147  C         41.1060    4.8130  -24.1960 C.2    89  PHE89       0.2264
    148  O         40.1670    5.1430  -23.4960 O.2    89  PHE89      -0.2867
    149  CB        41.9090    2.9490  -22.6790 C.3    89  PHE89       0.0534
    150  CG        43.0590    3.6550  -21.9760 C.ar   89  PHE89      -0.0203
    151  CD1       42.8600    4.8260  -21.2680 C.ar   89  PHE89      -0.0042
    152  CD2       44.3360    3.1120  -22.0020 C.ar   89  PHE89      -0.0042
    153  CE1       43.9310    5.4360  -20.5790 C.ar   89  PHE89      -0.0003
    154  CE2       45.3980    3.7110  -21.3340 C.ar   89  PHE89      -0.0003
    155  CZ        45.1900    4.8780  -20.6350 C.ar   89  PHE89      -0.0000
@<TRIPOS>BOND
     1    18    19    1
     2    21    20    2
     3   131   130    1
     4   131   132    1
     5    19    22    1
     6    19    20    1
     7    22    23    1
     8   112   113    1
     9    93    94    1
    10   133   132    2
    11   132   134   am
    12    87    86    2
    13   113   114    1
    14   113   116    1
    15    23    25   ar
    16    23    24   ar
    17    86    85    1
    18    25    27   ar
    19   114   115    2
    20   114   122   am
    21    94    97    1
    22    94    95    1
    23   134   135    1
    24    52    51    2
    25    99    97    1
    26   145   146    1
    27    49    50    1
    28   143   144    2
    29   143   142    1
    30   124   125    2
    31   124   123    1
    32   116   117    1
    33    51    50    1
    34   122   123    1
    35    24    26   ar
    36   100    95   am
    37   100   101    1
    38   102   103    2
    39   102   101    1
    40    97    98    1
    41    95    96    2
    42   147   146    1
    43   147   148    2
    44    50    53    1
    45   146   149    1
    46    85    88    1
    47    85    84    1
    48   141   142    1
    49   141   136   am
    50    78    77    2
    51    27    28   ar
    52   123   126    1
    53   135   136    1
    54   135   138    1
    55   118   117   ar
    56   118   120   ar
    57    88    89    1
    58   136   137    2
    59   117   119   ar
    60   101   104    1
    61    75    76    1
    62    84    77   am
    63    77    76    1
    64    26    28   ar
    65    29    30    1
    66   104   105    1
    67    76    79    1
    68   126   127    1
    69   120   121   ar
    70   149   150    1
    71   107   105   ar
    72   107   109   ar
    73    53    54    1
    74   138   140    1
    75   138   139    1
    76   119   121   ar
    77    89    90    1
    78   105   106   ar
    79   152   150   ar
    80   152   154   ar
    81    54    55   ar
    82    54    56   ar
    83   150   151   ar
    84    55    57   ar
    85   109   110   ar
    86   127   128    2
    87   127   129   am
    88    30    33    1
    89    30    31    1
    90    32    31    2
    91    33    34    1
    92    79    80    1
    93    56    58   ar
    94    57    59   ar
    95    10    11    2
    96    10     9    1
    97   154   155   ar
    98    91    90    1
    99    91    92    1
   100   151   153   ar
   101   106   108   ar
   102    58    59   ar
   103    59    60    1
   104    80    81    1
   105   110   108   ar
   106   110   111    1
   107   155   153   ar
   108    64    63    2
   109     9    12    1
   110     9     8    1
   111    63    62    1
   112    34    35   ar
   113    34    36   ar
   114    12    13    1
   115    81    82    2
   116    81    83   am
   117    65    62    1
   118    65    66    1
   119    62    61    1
   120    37    38    1
   121    13    14   ar
   122    13    15   ar
   123    14    16   ar
   124    71    73   ar
   125    71    68   ar
   126    45    43   ar
   127    45    47   ar
   128    43    42   ar
   129    73    74   ar
   130    66    68   ar
   131    66    67   ar
   132    40    39    2
   133    68    70   ar
   134    15    17   ar
   135    38    39    1
   136    38    41    1
   137    16    17   ar
   138    48    47    1
   139    47    46   ar
   140    42    41    1
   141    42    44   ar
   142    67    69   ar
   143    74    72   ar
   144     3     4    2
   145     3     2    1
   146     7     5    1
   147    70    69   ar
   148    70    72   ar
   149    46    44   ar
   150     2     5    1
   151     2     1    1
   152     5     6    1
