@<TRIPOS>MOLECULE
tmp/5nigA00.pdb
 160 156 0 0 0
SMALL
GASTEIGER

@<TRIPOS>ATOM
      1  N         47.8810   18.0590  -19.1820 N.3     8  GLN8       -0.1245
      2  CA        48.2380   17.9050  -17.7640 C.3     8  GLN8        0.1566
      3  C         47.9310   19.2650  -17.1420 C.2     8  GLN8        0.2260
      4  O         48.6490   20.2390  -17.3890 O.2     8  GLN8       -0.2867
      5  CB        49.7080   17.5260  -17.6510 C.3     8  GLN8        0.0367
      6  CG        50.2850   17.4180  -16.2520 C.3     8  GLN8        0.0905
      7  CD        51.7740   17.2010  -16.2850 C.2     8  GLN8        0.2608
      8  OE1       52.2800   16.4740  -17.1270 O.2     8  GLN8       -0.2717
      9  NE2       52.4990   17.8870  -15.3990 N.am    8  GLN8       -0.0878
     10  N         47.1300   21.5780  -13.7140 N.3    10  GLU10      -0.1245
     11  CA        47.4200   21.6710  -12.2940 C.3    10  GLU10       0.1567
     12  C         46.9520   22.9970  -11.7710 C.2    10  GLU10       0.2260
     13  O         46.8860   23.9660  -12.5150 O.2    10  GLU10      -0.2867
     14  CB        48.9180   21.5570  -12.0170 C.3    10  GLU10       0.0388
     15  CG        49.6620   20.5270  -12.8360 C.3    10  GLU10       0.1160
     16  CD        51.1660   20.5780  -12.7020 C.2    10  GLU10       0.3649
     17  OE1       51.6650   21.1550  -11.6850 O.co2  10  GLU10      -0.2457
     18  OE2       51.8820   20.0550  -13.5990 O.co2  10  GLU10      -0.2457
     19  N         46.3230   17.9220   -9.4740 N.3    21  PHE21      -0.1241
     20  CA        47.1660   17.4800  -10.5670 C.3    21  PHE21       0.1605
     21  C         46.3510   16.4400  -11.3280 C.2    21  PHE21       0.2264
     22  O         45.9810   15.4140  -10.7640 O.2    21  PHE21      -0.2867
     23  CB        48.4460   16.8420  -10.0330 C.3    21  PHE21       0.0534
     24  CG        49.3890   16.3830  -11.1100 C.ar   21  PHE21      -0.0203
     25  CD1       49.1500   15.1900  -11.8200 C.ar   21  PHE21      -0.0042
     26  CD2       50.5290   17.1120  -11.4110 C.ar   21  PHE21      -0.0042
     27  CE1       50.0230   14.7850  -12.8020 C.ar   21  PHE21      -0.0003
     28  CE2       51.3970   16.7000  -12.4010 C.ar   21  PHE21      -0.0003
     29  CZ        51.1510   15.5300  -13.0940 C.ar   21  PHE21      -0.0000
     30  N         45.2590   14.7390  -15.5480 N.3    23  PHE23      -0.1241
     31  CA        45.3090   14.6950  -17.0070 C.3    23  PHE23       0.1605
     32  C         43.9090   14.6130  -17.5740 C.2    23  PHE23       0.2264
     33  O         43.0710   13.8800  -17.0700 O.2    23  PHE23      -0.2867
     34  CB        46.0810   13.4640  -17.5000 C.3    23  PHE23       0.0534
     35  CG        47.5780   13.6270  -17.6220 C.ar   23  PHE23      -0.0203
     36  CD1       48.4060   13.8310  -16.5090 C.ar   23  PHE23      -0.0042
     37  CD2       48.1900   13.5520  -18.8600 C.ar   23  PHE23      -0.0042
     38  CE1       49.7860   13.8930  -16.6420 C.ar   23  PHE23      -0.0003
     39  CE2       49.5720   13.6220  -18.9960 C.ar   23  PHE23      -0.0003
     40  CZ        50.3770   13.8020  -17.8830 C.ar   23  PHE23      -0.0000
     41  N         41.5220   11.6110  -17.4010 N.3    30  ILE30      -0.1231
     42  CA        42.1840   10.2920  -17.4110 C.3    30  ILE30       0.1692
     43  C         42.4280    9.8410  -15.9610 C.2    30  ILE30       0.2592
     44  O         42.0820    8.7170  -15.5660 O.2    30  ILE30      -0.2718
     45  CB        43.5130   10.2840  -18.1960 C.3    30  ILE30       0.0266
     46  CG1       43.3290   10.8330  -19.6260 C.3    30  ILE30       0.0019
     47  CG2       44.1060    8.8740  -18.2380 C.3    30  ILE30       0.0020
     48  CD1       44.6100   10.9420  -20.4340 C.3    30  ILE30       0.0001
     49  N         43.0870   10.7010  -15.1770 N.am   31  PHE31      -0.1976
     50  CA        43.3620   10.4250  -13.7730 C.3    31  PHE31       0.1639
     51  C         43.6460   11.7270  -13.0700 C.2    31  PHE31       0.2290
     52  O         43.8820   12.7700  -13.7170 O.2    31  PHE31      -0.2864
     53  CB        44.5620    9.4770  -13.6100 C.3    31  PHE31       0.0560
     54  CG        45.9060   10.0710  -13.9700 C.ar   31  PHE31      -0.0200
     55  CD1       46.3870    9.9870  -15.2630 C.ar   31  PHE31      -0.0042
     56  CD2       46.7210   10.6610  -12.9970 C.ar   31  PHE31      -0.0042
     57  CE1       47.6320   10.5070  -15.6040 C.ar   31  PHE31      -0.0003
     58  CE2       47.9560   11.1810  -13.3430 C.ar   31  PHE31      -0.0003
     59  CZ        48.4220   11.0860  -14.6290 C.ar   31  PHE31      -0.0000
     60  N         42.6430    6.6050  -11.1310 N.3    42  TRP42      -0.1241
     61  CA        42.2050    6.5280  -12.5220 C.3    42  TRP42       0.1605
     62  C         40.7170    6.8010  -12.5790 C.2    42  TRP42       0.2264
     63  O         39.9510    6.3580  -11.7240 O.2    42  TRP42      -0.2867
     64  CB        42.4770    5.1140  -13.0860 C.3    42  TRP42       0.0550
     65  CG        43.9160    4.8300  -13.1230 C.ar   42  TRP42       0.0003
     66  CD1       44.6320    4.0940  -12.2130 C.ar   42  TRP42       0.0946
     67  CD2       44.8670    5.3140  -14.0690 C.ar   42  TRP42       0.0152
     68  NE1       45.9370    4.0670  -12.5540 N.ar   42  TRP42      -0.2442
     69  CE2       46.1310    4.8220  -13.6740 C.ar   42  TRP42       0.0810
     70  CE3       44.7870    6.1160  -15.2150 C.ar   42  TRP42       0.0012
     71  CZ2       47.2930    5.1060  -14.3780 C.ar   42  TRP42       0.0191
     72  CZ3       45.9390    6.3960  -15.9020 C.ar   42  TRP42       0.0001
     73  CH2       47.1890    5.8900  -15.4780 C.ar   42  TRP42       0.0015
     74  N         46.9280   -1.0960  -18.0440 N.3    50  PHE50      -0.1227
     75  CA        48.1960   -1.0960  -18.7690 C.3    50  PHE50       0.1736
     76  C         49.0520    0.1330  -18.3980 C.2    50  PHE50       0.2595
     77  O         50.2650    0.0010  -18.2190 O.2    50  PHE50      -0.2718
     78  CB        47.9260   -1.1790  -20.2870 C.3    50  PHE50       0.0547
     79  CG        47.0400   -2.3310  -20.6830 C.ar   50  PHE50      -0.0202
     80  CD1       47.4020   -3.6340  -20.3630 C.ar   50  PHE50      -0.0042
     81  CD2       45.8500   -2.1170  -21.3810 C.ar   50  PHE50      -0.0042
     82  CE1       46.5940   -4.6930  -20.7170 C.ar   50  PHE50      -0.0003
     83  CE2       45.0380   -3.1810  -21.7500 C.ar   50  PHE50      -0.0003
     84  CZ        45.4150   -4.4630  -21.4200 C.ar   50  PHE50      -0.0000
     85  N         48.4090    1.2880  -18.2270 N.am   51  ALA51      -0.1966
     86  CA        49.1010    2.5430  -17.9390 C.3    51  ALA51       0.1728
     87  C         49.3960    2.7110  -16.4470 C.2    51  ALA51       0.2617
     88  O         48.6550    2.2310  -15.5860 O.2    51  ALA51      -0.2715
     89  CB        48.3000    3.7400  -18.4500 C.3    51  ALA51       0.0334
     90  N         50.4670    3.4520  -16.1760 N.am   52  SER52      -0.1936
     91  CA        50.8860    3.7950  -14.8250 C.3    52  SER52       0.2055
     92  C         51.3710    5.2520  -14.7910 C.2    52  SER52       0.2643
     93  O         51.7450    5.8290  -15.8130 O.2    52  SER52      -0.2714
     94  CB        52.0170    2.8670  -14.3370 C.3    52  SER52       0.2130
     95  OG        53.1860    3.0580  -15.1150 O.3    52  SER52      -0.2179
     96  N         51.3450    5.8230  -13.6000 N.am   53  PHE53      -0.1959
     97  CA        51.8940    7.1550  -13.3740 C.3    53  PHE53       0.1771
     98  C         52.4840    7.2330  -11.9740 C.2    53  PHE53       0.2619
     99  O         51.8320    6.8420  -11.0010 O.2    53  PHE53      -0.2715
    100  CB        50.8190    8.2230  -13.5260 C.3    53  PHE53       0.0574
    101  CG        51.3460    9.6310  -13.3440 C.ar   53  PHE53      -0.0200
    102  CD1       52.0080   10.2540  -14.3810 C.ar   53  PHE53      -0.0042
    103  CD2       51.2510   10.2770  -12.1130 C.ar   53  PHE53      -0.0042
    104  CE1       52.4920   11.5480  -14.2290 C.ar   53  PHE53      -0.0003
    105  CE2       51.7580   11.5650  -11.9530 C.ar   53  PHE53      -0.0003
    106  CZ        52.3860   12.1810  -13.0050 C.ar   53  PHE53      -0.0000
    107  N         53.7020    7.7670  -11.8930 N.am   54  GLU54      -0.1977
    108  CA        54.3690    7.9100  -10.5930 C.3    54  GLU54       0.1602
    109  C         53.7990    9.1140   -9.8250 C.2    54  GLU54       0.2287
    110  O         54.1720   10.2640  -10.0870 O.2    54  GLU54      -0.2864
    111  CB        55.8770    8.0420  -10.7720 C.3    54  GLU54       0.0415
    112  CG        56.6640    8.2770   -9.4710 C.3    54  GLU54       0.1163
    113  CD        56.2320    7.3670   -8.3330 C.2    54  GLU54       0.3649
    114  OE1       55.5650    7.8440   -7.3700 O.co2  54  GLU54      -0.2457
    115  OE2       56.5460    6.1620   -8.4250 O.co2  54  GLU54      -0.2457
    116  N         55.6090   12.2710   -8.4150 N.3    57  GLY57      -0.1210
    117  CA        55.9770   13.3430   -9.3470 C.3    57  GLY57       0.1956
    118  C         55.0200   14.5150   -9.2720 C.2    57  GLY57       0.2611
    119  O         55.4050   15.6810   -9.4990 O.2    57  GLY57      -0.2717
    120  N         53.7580   14.2350   -8.9590 N.am   58  ALA58      -0.1979
    121  CA        52.7720   15.3180   -8.8150 C.3    58  ALA58       0.1597
    122  C         53.1060   16.2420   -7.6590 C.2    58  ALA58       0.2287
    123  O         52.9350   17.4510   -7.7680 O.2    58  ALA58      -0.2864
    124  CB        51.3630   14.7860   -8.6600 C.3    58  ALA58       0.0319
    125  N         56.0140   17.0660   -6.4640 N.3    60  ALA60      -0.1231
    126  CA        57.0890   17.9630   -6.8780 C.3    60  ALA60       0.1694
    127  C         56.5370   19.1190   -7.7280 C.2    60  ALA60       0.2592
    128  O         56.8920   20.2830   -7.5490 O.2    60  ALA60      -0.2718
    129  CB        58.1470   17.2050   -7.6340 C.3    60  ALA60       0.0304
    130  N         55.6530   18.7960   -8.6460 N.am   61  ASN61      -0.1974
    131  CA        55.0280   19.8290   -9.4810 C.3    61  ASN61       0.1688
    132  C         54.1860   20.8110   -8.6770 C.2    61  ASN61       0.2292
    133  O         54.2570   22.0280   -8.8990 O.2    61  ASN61      -0.2864
    134  CB        54.1910   19.1860  -10.6070 C.3    61  ASN61       0.1181
    135  CG        55.0390   18.8140  -11.7810 C.2    61  ASN61       0.2629
    136  OD1       56.1970   18.3470  -11.6390 O.2    61  ASN61      -0.2716
    137  ND2       54.4980   19.0330  -12.9630 N.am   61  ASN61      -0.0877
    138  N         56.3110   23.3880   -6.9660 N.3    64  VAL64      -0.1231
    139  CA        56.6490   24.4850   -7.9150 C.3    64  VAL64       0.1692
    140  C         55.4400   25.4130   -8.1350 C.2    64  VAL64       0.2592
    141  O         55.5930   26.6370   -8.1420 O.2    64  VAL64      -0.2718
    142  CB        57.2180   23.9660   -9.2510 C.3    64  VAL64       0.0266
    143  CG1       57.5350   25.1180  -10.1770 C.3    64  VAL64       0.0020
    144  CG2       58.4640   23.1260   -9.0030 C.3    64  VAL64       0.0020
    145  N         54.2390   24.8660   -8.2760 N.am   65  ASP65      -0.1974
    146  CA        53.0310   25.6930   -8.4320 C.3    65  ASP65       0.1709
    147  C         52.8320   26.6650   -7.2620 C.2    65  ASP65       0.2293
    148  O         52.5000   27.8350   -7.4750 O.2    65  ASP65      -0.2864
    149  CB        51.7660   24.8430   -8.5920 C.3    65  ASP65       0.1436
    150  CG        51.7550   24.0110   -9.8710 C.2    65  ASP65       0.3671
    151  OD1       52.2990   24.4650  -10.8850 O.co2  65  ASP65      -0.2456
    152  OD2       51.1980   22.8790   -9.8090 O.co2  65  ASP65      -0.2456
    153  N         55.5450   29.3650   -7.4410 N.3    68  ASN68      -0.1240
    154  CA        55.1710   30.2780   -8.4890 C.3    68  ASN68       0.1653
    155  C         54.0160   31.1760   -8.0870 C.2    68  ASN68       0.2266
    156  O         54.0320   32.3950   -8.3590 O.2    68  ASN68      -0.2867
    157  CB        54.8410   29.5110   -9.7670 C.3    68  ASN68       0.1155
    158  CG        56.0820   29.0080  -10.4760 C.2    68  ASN68       0.2627
    159  OD1       57.1990   29.4300  -10.1790 O.2    68  ASN68      -0.2716
    160  ND2       55.8960   28.1170  -11.4640 N.am   68  ASN68      -0.0877
@<TRIPOS>BOND
     1    83    84   ar
     2    83    81   ar
     3    84    82   ar
     4    81    79   ar
     5    82    80   ar
     6    79    80   ar
     7    79    78    1
     8    48    46    1
     9    78    75    1
    10    46    45    1
    11     1     2    1
    12    39    37   ar
    13    39    40   ar
    14    37    35   ar
    15    75    76    1
    16    75    74    1
    17    89    86    1
    18    76    85   am
    19    76    77    2
    20    47    45    1
    21    85    86    1
    22    45    42    1
    23    86    87    1
    24    40    38   ar
    25     2     5    1
    26     2     3    1
    27     5     6    1
    28    35    34    1
    29    35    36   ar
    30    32    33    2
    31    32    31    1
    32    34    31    1
    33    42    41    1
    34    42    43    1
    35     4     3    2
    36     8     7    2
    37    31    30    1
    38    38    36   ar
    39    87    90   am
    40    87    88    2
    41     7     6    1
    42     7     9   am
    43    90    91    1
    44    43    44    2
    45    43    49   am
    46    72    73   ar
    47    72    70   ar
    48    93    92    2
    49    57    55   ar
    50    57    59   ar
    51    73    71   ar
    52    55    54   ar
    53    70    67   ar
    54    49    50    1
    55    95    94    1
    56    91    92    1
    57    91    94    1
    58    92    96   am
    59    59    58   ar
    60   102   104   ar
    61   102   101   ar
    62    71    69   ar
    63   104   106   ar
    64    67    69   ar
    65    67    65   ar
    66    54    53    1
    67    54    56   ar
    68    50    53    1
    69    50    51    1
    70    52    51    2
    71    10    11    1
    72    69    68   ar
    73    96    97    1
    74    18    16   ar
    75   100    97    1
    76   100   101    1
    77    97    98    1
    78   101   103   ar
    79    58    56   ar
    80    65    64    1
    81    65    66   ar
    82    29    27   ar
    83    29    28   ar
    84    64    61    1
    85   106   105   ar
    86   137   135   am
    87    15    16    1
    88    15    14    1
    89    27    25   ar
    90    16    17   ar
    91    62    61    1
    92    62    63    2
    93    68    66   ar
    94    61    60    1
    95    13    12    2
    96    28    26   ar
    97    11    14    1
    98    11    12    1
    99   103   105   ar
   100    98   107   am
   101    98    99    2
   102   107   108    1
   103    25    24   ar
   104   135   136    2
   105   135   134    1
   106   160   158   am
   107    26    24   ar
   108    21    22    2
   109    21    20    1
   110    24    23    1
   111   151   150   ar
   112   111   108    1
   113   111   112    1
   114   134   131    1
   115   108   109    1
   116    20    23    1
   117    20    19    1
   118   158   159    2
   119   158   157    1
   120   143   142    1
   121   110   109    2
   122   150   152   ar
   123   150   149    1
   124   157   154    1
   125   119   118    2
   126   131   132    1
   127   131   130    1
   128   112   113    1
   129   117   118    1
   130   117   116    1
   131   118   120   am
   132   142   144    1
   133   142   139    1
   134   120   121    1
   135   133   132    2
   136   121   124    1
   137   121   122    1
   138   130   127   am
   139   149   146    1
   140   154   155    1
   141   154   153    1
   142   146   145    1
   143   146   147    1
   144   115   113   ar
   145   156   155    2
   146   113   114   ar
   147   145   140   am
   148   141   140    2
   149   140   139    1
   150   139   138    1
   151   123   122    2
   152   127   128    2
   153   127   126    1
   154   129   126    1
   155   148   147    2
   156   126   125    1
