@<TRIPOS>MOLECULE
tmp/5nihB00.pdb
 137 131 0 0 0
SMALL
GASTEIGER

@<TRIPOS>ATOM
      1  N        -29.8840   75.0460   32.6160 N.3    13  GLU13      -0.1245
      2  CA       -30.2570   75.9910   33.6630 C.3    13  GLU13       0.1567
      3  C        -31.3130   75.2860   34.4960 C.2    13  GLU13       0.2260
      4  O        -32.3540   74.8990   33.9630 O.2    13  GLU13      -0.2867
      5  CB       -30.8380   77.2530   33.0430 C.3    13  GLU13       0.0388
      6  CG       -31.2920   78.3100   34.0560 C.3    13  GLU13       0.1160
      7  CD       -30.1760   79.2550   34.5220 C.2    13  GLU13       0.3649
      8  OE1      -30.1220   79.5500   35.7490 O.co2  13  GLU13      -0.2457
      9  OE2      -29.3990   79.7370   33.6580 O.co2  13  GLU13      -0.2457
     10  N        -27.3270   82.7650   26.5090 N.3    61  TYR61      -0.1241
     11  CA       -28.7330   83.0780   26.2310 C.3    61  TYR61       0.1605
     12  C        -28.9100   83.8250   24.9110 C.2    61  TYR61       0.2264
     13  O        -29.6750   83.3940   24.0410 O.2    61  TYR61      -0.2867
     14  CB       -29.3510   83.8700   27.4000 C.3    61  TYR61       0.0534
     15  CG       -29.7520   82.9480   28.5310 C.ar   61  TYR61      -0.0201
     16  CD1      -30.9760   82.3020   28.5030 C.ar   61  TYR61      -0.0009
     17  CD2      -28.8840   82.6560   29.5830 C.ar   61  TYR61      -0.0009
     18  CE1      -31.3410   81.4130   29.4840 C.ar   61  TYR61       0.0417
     19  CE2      -29.2460   81.7740   30.5820 C.ar   61  TYR61       0.0417
     20  CZ       -30.4910   81.1600   30.5270 C.ar   61  TYR61       0.1957
     21  OH       -30.8980   80.2650   31.4900 O.3    61  TYR61      -0.2866
     22  N        -35.6140   79.4890   29.4430 N.3    89  PRO89      -0.2102
     23  CA       -36.0610   80.6870   30.1750 C.3    89  PRO89       0.1504
     24  C        -35.4790   81.9660   29.5810 C.2    89  PRO89       0.2576
     25  O        -34.7040   82.6980   30.2220 O.2    89  PRO89      -0.2718
     26  CB       -35.5730   80.4010   31.6000 C.3    89  PRO89       0.0282
     27  CG       -34.3750   79.5230   31.4130 C.3    89  PRO89       0.0208
     28  CD       -34.6920   78.6520   30.2300 C.3    89  PRO89       0.0893
     29  N        -35.8550   82.2360   28.3270 N.am   90  LEU90      -0.1966
     30  CA       -35.3830   83.3820   27.5580 C.3    90  LEU90       0.1728
     31  C        -36.3620   84.5370   27.7620 C.2    90  LEU90       0.2616
     32  O        -37.5210   84.4800   27.3320 O.2    90  LEU90      -0.2715
     33  CB       -35.2920   82.9730   26.0960 C.3    90  LEU90       0.0311
     34  CG       -34.5700   83.9270   25.1620 C.3    90  LEU90       0.0022
     35  CD1      -33.0930   84.0930   25.4960 C.3    90  LEU90       0.0001
     36  CD2      -34.6890   83.4500   23.7360 C.3    90  LEU90       0.0001
     37  N        -35.8950   85.5920   28.4190 N.am   91  THR91      -0.1951
     38  CA       -36.7670   86.7150   28.7210 C.3    91  THR91       0.1897
     39  C        -37.1350   87.4910   27.4550 C.2    91  THR91       0.2313
     40  O        -36.2790   87.7930   26.6060 O.2    91  THR91      -0.2863
     41  CB       -36.0860   87.6040   29.7550 C.3    91  THR91       0.1794
     42  OG1      -35.7680   86.7760   30.8780 O.3    91  THR91      -0.2208
     43  CG2      -36.9890   88.7860   30.1840 C.3    91  THR91       0.0378
     44  N        -34.3870   91.7920   21.6370 N.3    96  ARG96      -0.1245
     45  CA       -34.5130   90.4660   21.0380 C.3    96  ARG96       0.1563
     46  C        -35.7130   90.3920   20.0970 C.2    96  ARG96       0.2260
     47  O        -35.6350   89.7540   19.0390 O.2    96  ARG96      -0.2867
     48  CB       -34.6010   89.4060   22.1280 C.3    96  ARG96       0.0307
     49  CG       -33.2870   89.1860   22.8750 C.3    96  ARG96       0.0489
     50  CD       -33.5070   88.2610   24.0500 C.3    96  ARG96       0.2205
     51  NE       -32.2790   87.9720   24.7790 N.pl3  96  ARG96      -0.0865
     52  CZ       -32.2300   87.5450   26.0330 C.cat  96  ARG96       0.5346
     53  NH1      -33.3210   87.3590   26.7390 N.pl3  96  ARG96       0.1354
     54  NH2      -31.0660   87.2560   26.5890 N.pl3  96  ARG96       0.1354
     55  N        -26.4510   88.9810   36.8980 N.3   138  LEU138     -0.1245
     56  CA       -25.8550   88.2640   35.7830 C.3   138  LEU138      0.1561
     57  C        -25.2620   89.2910   34.8200 C.2   138  LEU138      0.2260
     58  O        -25.8760   90.3170   34.5340 O.2   138  LEU138     -0.2867
     59  CB       -26.9470   87.4220   35.0910 C.3   138  LEU138      0.0270
     60  CG       -26.5160   86.4120   34.0220 C.3   138  LEU138      0.0019
     61  CD1      -25.7370   85.2500   34.6270 C.3   138  LEU138      0.0001
     62  CD2      -27.7380   85.8910   33.2570 C.3   138  LEU138      0.0001
     63  N        -24.6440   89.5070   31.5840 N.3   140  SER140     -0.1202
     64  CA       -25.3530   89.8250   30.3530 C.3   140  SER140      0.2020
     65  C        -26.7680   89.2910   30.5110 C.2   140  SER140      0.2619
     66  O        -26.9790   88.0790   30.6170 O.2   140  SER140     -0.2717
     67  CB       -24.6560   89.2360   29.1280 C.3   140  SER140      0.2103
     68  OG       -25.3040   89.6480   27.9340 O.3   140  SER140     -0.2182
     69  N        -27.7300   90.1880   30.5670 N.am  141  GLY141     -0.1942
     70  CA       -29.0980   89.7420   30.6930 C.3   141  GLY141      0.2014
     71  C        -30.0300   90.8930   30.9700 C.2   141  GLY141      0.2640
     72  O        -29.6280   92.0540   31.0590 O.2   141  GLY141     -0.2714
     73  N        -31.3000   90.5250   31.1410 N.am  142  SER142     -0.1935
     74  CA       -32.3580   91.5110   31.2740 C.3   142  SER142      0.2055
     75  C        -32.3500   92.1870   32.6380 C.2   142  SER142      0.2643
     76  O        -32.8000   93.3330   32.7660 O.2   142  SER142     -0.2714
     77  CB       -33.6980   90.8540   30.9490 C.3   142  SER142      0.2130
     78  OG       -33.8640   89.6030   31.6210 O.3   142  SER142     -0.2179
     79  N        -31.8610   91.5020   33.6740 N.am  143  THR143     -0.1950
     80  CA       -31.8070   92.1290   34.9900 C.3   143  THR143      0.1897
     81  C        -30.8650   93.3270   34.9760 C.2   143  THR143      0.2313
     82  O        -31.2050   94.4150   35.4590 O.2   143  THR143     -0.2863
     83  CB       -31.4310   91.0880   36.0370 C.3   143  THR143      0.1794
     84  OG1      -32.4570   90.0910   36.0560 O.3   143  THR143     -0.2208
     85  CG2      -31.2850   91.7140   37.4090 C.3   143  THR143      0.0378
     86  N        -25.9670   81.7620   36.7600 N.3   174  THR174     -0.1218
     87  CA       -26.7230   81.6380   38.0070 C.3   174  THR174      0.1862
     88  C        -25.9140   80.8890   39.0560 C.2   174  THR174      0.2287
     89  O        -25.8670   81.2880   40.2230 O.2   174  THR174     -0.2866
     90  CB       -28.0320   80.9020   37.7450 C.3   174  THR174      0.1770
     91  OG1      -28.7420   81.6030   36.7210 O.3   174  THR174     -0.2211
     92  CG2      -28.8690   80.8300   39.0170 C.3   174  THR174      0.0375
     93  N        -27.4750   88.8010   45.5580 N.3   190  TYR190     -0.1227
     94  CA       -27.5990   88.5520   44.1260 C.3   190  TYR190      0.1736
     95  C        -28.9890   88.9400   43.6280 C.2   190  TYR190      0.2595
     96  O        -30.0090   88.5420   44.2080 O.2   190  TYR190     -0.2718
     97  CB       -27.2670   87.0810   43.8390 C.3   190  TYR190      0.0548
     98  CG       -27.2120   86.6980   42.3680 C.ar  190  TYR190     -0.0200
     99  CD1      -26.5690   87.5010   41.4410 C.ar  190  TYR190     -0.0009
    100  CD2      -27.7780   85.5140   41.9140 C.ar  190  TYR190     -0.0009
    101  CE1      -26.5260   87.1600   40.1050 C.ar  190  TYR190      0.0417
    102  CE2      -27.7320   85.1590   40.5790 C.ar  190  TYR190      0.0417
    103  CZ       -27.1070   85.9970   39.6880 C.ar  190  TYR190      0.1957
    104  OH       -27.0680   85.6740   38.3390 O.3   190  TYR190     -0.2866
    105  N        -29.0220   89.7400   42.5670 N.am  191  LEU191     -0.1966
    106  CA       -30.2550   90.1890   41.9260 C.3   191  LEU191      0.1728
    107  C        -30.4880   89.2670   40.7390 C.2   191  LEU191      0.2616
    108  O        -29.6440   89.1910   39.8430 O.2   191  LEU191     -0.2715
    109  CB       -30.0880   91.6420   41.4720 C.3   191  LEU191      0.0311
    110  CG       -29.9860   92.6540   42.6200 C.3   191  LEU191      0.0022
    111  CD1      -29.2760   93.9390   42.2370 C.3   191  LEU191      0.0001
    112  CD2      -31.3900   92.9870   43.1390 C.3   191  LEU191      0.0001
    113  N        -31.6170   88.5540   40.7410 N.am  192  LEU192     -0.1963
    114  CA       -31.8700   87.5290   39.7370 C.3   192  LEU192      0.1728
    115  C        -33.3770   87.3430   39.5920 C.2   192  LEU192      0.2616
    116  O        -34.1760   87.8510   40.3800 O.2   192  LEU192     -0.2715
    117  CB       -31.1630   86.2060   40.0730 C.3   192  LEU192      0.0311
    118  CG       -31.8420   85.2920   41.1000 C.3   192  LEU192      0.0022
    119  CD1      -31.1870   83.9070   41.1070 C.3   192  LEU192      0.0001
    120  CD2      -31.8500   85.9030   42.4940 C.3   192  LEU192      0.0001
    121  N        -33.7570   86.5640   38.5890 N.am  193  GLU193     -0.1977
    122  CA       -35.1700   86.3610   38.3210 C.3   193  GLU193      0.1602
    123  C        -35.8230   85.4910   39.4000 C.2   193  GLU193      0.2287
    124  O        -35.2190   84.5490   39.9260 O.2   193  GLU193     -0.2864
    125  CB       -35.3490   85.8170   36.8990 C.3   193  GLU193      0.0415
    126  CG       -34.9380   86.8850   35.8860 C.3   193  GLU193      0.1163
    127  CD       -34.8530   86.4490   34.4410 C.2   193  GLU193      0.3649
    128  OE1      -34.6410   85.2440   34.1490 O.co2 193  GLU193     -0.2457
    129  OE2      -34.9330   87.3510   33.5730 O.co2 193  GLU193     -0.2457
    130  N        -35.7310   81.5500   39.2650 N.3   196  MET196     -0.1245
    131  CA       -34.5250   80.8780   39.7550 C.3   196  MET196      0.1570
    132  C        -34.3830   81.0240   41.2700 C.2   196  MET196      0.2261
    133  O        -33.9870   80.0740   41.9630 O.2   196  MET196     -0.2867
    134  CB       -33.2610   81.4140   39.0690 C.3   196  MET196      0.0387
    135  CG       -33.0780   80.9840   37.6150 C.3   196  MET196      0.0595
    136  SD       -34.1340   81.9150   36.5090 S.3   196  MET196     -0.1393
    137  CE       -33.4690   81.5310   34.9000 C.3   196  MET196      0.0692
@<TRIPOS>BOND
     1    47    46    2
     2    46    45    1
     3    45    44    1
     4    45    48    1
     5    48    49    1
     6    49    50    1
     7    36    34    1
     8    13    12    2
     9    50    51    1
    10    51    52    2
    11    12    11    1
    12    34    35    1
    13    34    33    1
    14    52    54    1
    15    52    53    1
    16    33    30    1
    17    11    10    1
    18    11    14    1
    19    40    39    2
    20    32    31    2
    21    14    15    1
    22    39    38    1
    23    30    31    1
    24    30    29    1
    25    31    37   am
    26    68    67    1
    27    29    24   am
    28    37    38    1
    29    16    15   ar
    30    16    18   ar
    31    15    17   ar
    32    38    41    1
    33    67    64    1
    34    22    23    1
    35    22    28    1
    36    18    20   ar
    37    24    23    1
    38    24    25    2
    39    17    19   ar
    40    41    43    1
    41    41    42    1
    42    23    26    1
    43    28    27    1
    44    64    65    1
    45    64    63    1
    46    65    69   am
    47    65    66    2
    48    20    19   ar
    49    20    21    1
    50    69    70    1
    51    70    71    1
    52    77    74    1
    53    77    78    1
    54    71    72    2
    55    71    73   am
    56    73    74    1
    57    74    75    1
    58    27    26    1
    59     1     2    1
    60    75    76    2
    61    75    79   am
    62     5     2    1
    63     5     6    1
    64    62    60    1
    65   129   127   ar
    66     9     7   ar
    67     2     3    1
    68    79    80    1
    69     4     3    2
    70    60    61    1
    71    60    59    1
    72     6     7    1
    73   128   127   ar
    74   127   126    1
    75     7     8   ar
    76    58    57    2
    77    57    56    1
    78   137   136    1
    79    81    80    1
    80    81    82    2
    81    80    83    1
    82    59    56    1
    83    56    55    1
    84   126   125    1
    85    83    84    1
    86    83    85    1
    87   136   135    1
    88    91    90    1
    89    86    87    1
    90   125   122    1
    91   135   134    1
    92    90    87    1
    93    90    92    1
    94    87    88    1
    95   122   121    1
    96   122   123    1
    97   104   103    1
    98   121   115   am
    99    88    89    2
   100   134   131    1
   101   130   131    1
   102   123   124    2
   103   115   114    1
   104   115   116    2
   105   103   101   ar
   106   103   102   ar
   107   114   117    1
   108   114   113    1
   109   131   132    1
   110   108   107    2
   111   117   118    1
   112   101    99   ar
   113   102   100   ar
   114   107   113   am
   115   107   106    1
   116   118   119    1
   117   118   120    1
   118   132   133    2
   119    99    98   ar
   120   109   106    1
   121   109   110    1
   122   100    98   ar
   123   106   105    1
   124   111   110    1
   125    98    97    1
   126   105    95   am
   127   110   112    1
   128    95    94    1
   129    95    96    2
   130    97    94    1
   131    94    93    1
