@<TRIPOS>MOLECULE
tmp/5nijA00.pdb
 155 153 0 0 0
SMALL
GASTEIGER

@<TRIPOS>ATOM
      1  N         48.7050   -1.3660   10.5000 N.3    13  SER13      -0.1217
      2  CA        50.1030   -0.9770   10.3950 C.3    13  SER13       0.1889
      3  C         50.8380   -1.3040   11.6910 C.2    13  SER13       0.2288
      4  O         50.2140   -1.6450   12.6970 O.2    13  SER13      -0.2866
      5  CB        50.2250    0.5120   10.0760 C.3    13  SER13       0.2089
      6  OG        49.6380    1.2950   11.0990 O.3    13  SER13      -0.2183
      7  N         53.8950   -5.0870   15.0290 N.3    16  TRP16      -0.1227
      8  CA        53.0840   -6.0140   15.8160 C.3    16  TRP16       0.1737
      9  C         51.9520   -6.5960   14.9740 C.2    16  TRP16       0.2595
     10  O         51.3870   -7.6360   15.3110 O.2    16  TRP16      -0.2718
     11  CB        52.5240   -5.3240   17.0670 C.3    16  TRP16       0.0564
     12  CG        51.9470   -3.9660   16.8160 C.ar   16  TRP16       0.0003
     13  CD1       50.6410   -3.6630   16.5720 C.ar   16  TRP16       0.0946
     14  CD2       52.6590   -2.7230   16.7850 C.ar   16  TRP16       0.0152
     15  NE1       50.4930   -2.3090   16.3900 N.ar   16  TRP16      -0.2442
     16  CE2       51.7190   -1.7090   16.5150 C.ar   16  TRP16       0.0810
     17  CE3       54.0020   -2.3690   16.9580 C.ar   16  TRP16       0.0012
     18  CZ2       52.0770   -0.3660   16.4110 C.ar   16  TRP16       0.0191
     19  CZ3       54.3550   -1.0350   16.8600 C.ar   16  TRP16       0.0001
     20  CH2       53.3960   -0.0500   16.5890 C.ar   16  TRP16       0.0015
     21  N         51.6350   -5.9240   13.8720 N.am   17  ASN17      -0.1974
     22  CA        50.6500   -6.4210   12.9180 C.3    17  ASN17       0.1688
     23  C         51.3270   -6.9390   11.6550 C.2    17  ASN17       0.2292
     24  O         50.7940   -6.8080   10.5540 O.2    17  ASN17      -0.2864
     25  CB        49.6340   -5.3360   12.5680 C.3    17  ASN17       0.1181
     26  CG        48.7630   -4.9570   13.7440 C.2    17  ASN17       0.2629
     27  OD1       48.4150   -5.8030   14.5670 O.2    17  ASN17      -0.2716
     28  ND2       48.4010   -3.6840   13.8280 N.am   17  ASN17      -0.0877
     29  N         42.4420   -5.7940   11.5330 N.3   121  HIS121     -0.1241
     30  CA        41.6810   -5.7230   12.7740 C.3   121  HIS121      0.1621
     31  C         40.2420   -5.3250   12.5100 C.2   121  HIS121      0.2264
     32  O         39.9240   -4.7600   11.4640 O.2   121  HIS121     -0.2867
     33  CB        42.3120   -4.7210   13.7480 C.3   121  HIS121      0.0745
     34  CG        43.5580   -5.2170   14.4140 C.ar  121  HIS121      0.0817
     35  ND1       43.5390   -6.0970   15.4750 N.ar  121  HIS121     -0.2268
     36  CD2       44.8630   -4.9370   14.1820 C.ar  121  HIS121      0.1154
     37  CE1       44.7780   -6.3490   15.8580 C.ar  121  HIS121      0.1986
     38  NE2       45.6000   -5.6560   15.0900 N.ar  121  HIS121     -0.2212
     39  N         37.7560    4.6640    9.9830 N.3   134  TYR134     -0.1241
     40  CA        37.7580    3.2390    9.6800 C.3   134  TYR134      0.1605
     41  C         36.6640    2.8700    8.6850 C.2   134  TYR134      0.2264
     42  O         35.8330    3.7020    8.3220 O.2   134  TYR134     -0.2867
     43  CB        37.5830    2.4260   10.9630 C.3   134  TYR134      0.0534
     44  CG        38.7390    2.5310   11.9310 C.ar  134  TYR134     -0.0201
     45  CD1       40.0400    2.7050   11.4770 C.ar  134  TYR134     -0.0009
     46  CD2       38.5280    2.4550   13.3010 C.ar  134  TYR134     -0.0009
     47  CE1       41.0990    2.7990   12.3610 C.ar  134  TYR134      0.0417
     48  CE2       39.5790    2.5470   14.1920 C.ar  134  TYR134      0.0417
     49  CZ        40.8620    2.7190   13.7180 C.ar  134  TYR134      0.1957
     50  OH        41.9080    2.8120   14.6070 O.3   134  TYR134     -0.2866
     51  N         43.5510   -9.2320   19.1180 N.3   288  ARG288     -0.1245
     52  CA        43.7970   -8.1320   20.0410 C.3   288  ARG288      0.1563
     53  C         44.9670   -8.4170   20.9810 C.2   288  ARG288      0.2260
     54  O         45.6940   -7.5000   21.3660 O.2   288  ARG288     -0.2867
     55  CB        42.5290   -7.8270   20.8380 C.3   288  ARG288      0.0307
     56  CG        41.4670   -7.1310   20.0070 C.3   288  ARG288      0.0489
     57  CD        40.0810   -7.2810   20.6050 C.3   288  ARG288      0.2205
     58  NE        39.0510   -7.0550   19.5950 N.pl3 288  ARG288     -0.0865
     59  CZ        37.8000   -7.4920   19.6880 C.cat 288  ARG288      0.5346
     60  NH1       37.4070   -8.1710   20.7570 N.pl3 288  ARG288      0.1354
     61  NH2       36.9360   -7.2380   18.7150 N.pl3 288  ARG288      0.1354
     62  N         48.7730   -8.3880   19.2740 N.3   291  ASP291     -0.1225
     63  CA        49.5170   -7.1400   19.2920 C.3   291  ASP291      0.1805
     64  C         50.4470   -7.1010   20.4950 C.2   291  ASP291      0.2597
     65  O         51.5710   -6.6100   20.4130 O.2   291  ASP291     -0.2718
     66  CB        48.5610   -5.9530   19.3100 C.3   291  ASP291      0.1424
     67  CG        47.7700   -5.8380   18.0280 C.2   291  ASP291      0.3668
     68  OD1       47.5690   -6.8680   17.3510 O.co2 291  ASP291     -0.2456
     69  OD2       47.3620   -4.7180   17.6850 O.co2 291  ASP291     -0.2456
     70  N         49.9670   -7.6390   21.6100 N.am  292  LEU292     -0.1979
     71  CA        50.6840   -7.5570   22.8730 C.3   292  LEU292      0.1596
     72  C         51.7910   -8.5990   22.9820 C.2   292  LEU292      0.2287
     73  O         52.7960   -8.3600   23.6490 O.2   292  LEU292     -0.2864
     74  CB        49.7160   -7.7080   24.0460 C.3   292  LEU292      0.0297
     75  CG        48.7190   -6.5670   24.2460 C.3   292  LEU292      0.0022
     76  CD1       47.6890   -6.9410   25.2990 C.3   292  LEU292      0.0001
     77  CD2       49.4410   -5.2860   24.6290 C.3   292  LEU292      0.0001
     78  N         55.0810   -7.1270   21.9430 N.3   295  PHE295     -0.1241
     79  CA        55.6730   -6.2700   22.9590 C.3   295  PHE295      0.1605
     80  C         56.2540   -7.0970   24.0980 C.2   295  PHE295      0.2264
     81  O         57.3590   -6.8310   24.5690 O.2   295  PHE295     -0.2867
     82  CB        54.6310   -5.2880   23.4930 C.3   295  PHE295      0.0534
     83  CG        54.0280   -4.4130   22.4330 C.ar  295  PHE295     -0.0203
     84  CD1       54.8320   -3.7660   21.5100 C.ar  295  PHE295     -0.0042
     85  CD2       52.6560   -4.2510   22.3490 C.ar  295  PHE295     -0.0042
     86  CE1       54.2780   -2.9610   20.5310 C.ar  295  PHE295     -0.0003
     87  CE2       52.0970   -3.4510   21.3720 C.ar  295  PHE295     -0.0003
     88  CZ        52.9080   -2.8050   20.4620 C.ar  295  PHE295     -0.0000
     89  N         50.3720    0.3320   26.0370 N.3   319  ALA319     -0.1245
     90  CA        49.3620   -0.4740   25.3610 C.3   319  ALA319      0.1562
     91  C         48.2980   -0.9300   26.3500 C.2   319  ALA319      0.2260
     92  O         47.1090   -0.6760   26.1600 O.2   319  ALA319     -0.2867
     93  CB        50.0000   -1.6690   24.6760 C.3   319  ALA319      0.0290
     94  N         46.2950    1.8840   27.8930 N.3   322  HIS322     -0.1226
     95  CA        45.3130    2.4190   26.9600 C.3   322  HIS322      0.1752
     96  C         44.0360    1.5950   26.9650 C.2   322  HIS322      0.2595
     97  O         42.9410    2.1380   27.1050 O.2   322  HIS322     -0.2718
     98  CB        45.8840    2.4650   25.5430 C.3   322  HIS322      0.0759
     99  CG        44.8390    2.5810   24.4780 C.ar  322  HIS322      0.0818
    100  ND1       44.0640    3.7090   24.3150 N.ar  322  HIS322     -0.2268
    101  CD2       44.4310    1.7040   23.5300 C.ar  322  HIS322      0.1154
    102  CE1       43.2290    3.5250   23.3070 C.ar  322  HIS322      0.1986
    103  NE2       43.4300    2.3160   22.8140 N.ar  322  HIS322     -0.2212
    104  N         44.1790    0.2840   26.8060 N.am  323  ARG323     -0.1980
    105  CA        43.0170   -0.5860   26.6960 C.3   323  ARG323      0.1597
    106  C         42.2830   -0.7220   28.0260 C.2   323  ARG323      0.2287
    107  O         41.0740   -0.9480   28.0510 O.2   323  ARG323     -0.2864
    108  CB        43.4190   -1.9630   26.1610 C.3   323  ARG323      0.0334
    109  CG        44.5780   -2.6390   26.8490 C.3   323  ARG323      0.0492
    110  CD        44.9150   -3.9380   26.1240 C.3   323  ARG323      0.2205
    111  NE        45.3850   -3.7080   24.7600 N.pl3 323  ARG323     -0.0865
    112  CZ        45.3660   -4.6250   23.7950 C.cat 323  ARG323      0.5346
    113  NH1       44.8820   -5.8350   24.0370 N.pl3 323  ARG323      0.1354
    114  NH2       45.8160   -4.3280   22.5830 N.pl3 323  ARG323      0.1354
    115  N         41.4240    3.5450   18.9260 N.3   379  SER379     -0.1202
    116  CA        42.4420    2.7800   18.2250 C.3   379  SER379      0.2020
    117  C         41.8080    1.5180   17.6310 C.2   379  SER379      0.2619
    118  O         40.5870    1.3700   17.6330 O.2   379  SER379     -0.2717
    119  CB        43.6020    2.4460   19.1610 C.3   379  SER379      0.2103
    120  OG        43.3280    1.2650   19.8950 O.3   379  SER379     -0.2182
    121  N         42.6310    0.6100   17.1250 N.am  380  GLN380     -0.1965
    122  CA        42.1260   -0.6040   16.4940 C.3   380  GLN380      0.1733
    123  C         41.7500   -1.6570   17.5310 C.2   380  GLN380      0.2616
    124  O         41.1720   -2.6890   17.1890 O.2   380  GLN380     -0.2715
    125  CB        43.1620   -1.1670   15.5180 C.3   380  GLN380      0.0408
    126  CG        43.3770   -0.3040   14.2840 C.3   380  GLN380      0.0908
    127  CD        43.9800   -1.0730   13.1240 C.2   380  GLN380      0.2608
    128  OE1       44.8350   -1.9390   13.3160 O.2   380  GLN380     -0.2717
    129  NE2       43.5420   -0.7550   11.9110 N.am  380  GLN380     -0.0878
    130  N         42.0710   -1.3970   18.7960 N.am  381  TYR381     -0.1974
    131  CA        41.6300   -2.2650   19.8830 C.3   381  TYR381      0.1639
    132  C         40.2370   -1.8670   20.3480 C.2   381  TYR381      0.2290
    133  O         39.3610   -2.7130   20.5200 O.2   381  TYR381     -0.2864
    134  CB        42.5930   -2.2160   21.0750 C.3   381  TYR381      0.0560
    135  CG        42.0000   -2.8010   22.3440 C.ar  381  TYR381     -0.0198
    136  CD1       42.1360   -4.1490   22.6440 C.ar  381  TYR381     -0.0009
    137  CD2       41.2880   -2.0040   23.2340 C.ar  381  TYR381     -0.0009
    138  CE1       41.5860   -4.6830   23.7950 C.ar  381  TYR381      0.0417
    139  CE2       40.7240   -2.5310   24.3730 C.ar  381  TYR381      0.0417
    140  CZ        40.8820   -3.8650   24.6560 C.ar  381  TYR381      0.1957
    141  OH        40.3270   -4.3730   25.8060 O.3   381  TYR381     -0.2866
    142  N         48.4590    5.7610   21.7160 N.3   418  TRP418     -0.1241
    143  CA        47.2790    5.0490   21.2450 C.3   418  TRP418      0.1605
    144  C         46.0260    5.9100   21.3650 C.2   418  TRP418      0.2264
    145  O         45.0320    5.6710   20.6800 O.2   418  TRP418     -0.2867
    146  CB        47.0580    3.7390   22.0050 C.3   418  TRP418      0.0550
    147  CG        48.2060    2.7830   21.9460 C.ar  418  TRP418      0.0003
    148  CD1       49.0060    2.4030   22.9840 C.ar  418  TRP418      0.0946
    149  CD2       48.7850    2.2130   20.7680 C.ar  418  TRP418      0.0152
    150  NE1       49.9850    1.5490   22.5400 N.ar  418  TRP418     -0.2442
    151  CE2       49.8810    1.4290   21.1800 C.ar  418  TRP418      0.0810
    152  CE3       48.4620    2.2610   19.4090 C.ar  418  TRP418      0.0012
    153  CZ2       50.6540    0.7010   20.2830 C.ar  418  TRP418      0.0191
    154  CZ3       49.2370    1.5480   18.5210 C.ar  418  TRP418      0.0001
    155  CH2       50.3140    0.7690   18.9610 C.ar  418  TRP418      0.0015
@<TRIPOS>BOND
     1    42    41    2
     2    41    40    1
     3    40    39    1
     4    40    43    1
     5     5     2    1
     6     5     6    1
     7     2     1    1
     8     2     3    1
     9    24    23    2
    10    43    44    1
    11    32    31    2
    12    45    44   ar
    13    45    47   ar
    14    29    30    1
    15    23    22    1
    16     3     4    2
    17   129   127   am
    18    44    46   ar
    19    47    49   ar
    20    31    30    1
    21    25    22    1
    22    25    26    1
    23    30    33    1
    24    22    21    1
    25   127   128    2
    26   127   126    1
    27    46    48   ar
    28    49    48   ar
    29    49    50    1
    30    26    28   am
    31    26    27    2
    32    33    34    1
    33    21     9   am
    34    36    34   ar
    35    36    38   ar
    36   126   125    1
    37    34    35   ar
    38     9    10    2
    39     9     8    1
    40     7     8    1
    41    38    37   ar
    42    35    37   ar
    43   125   122    1
    44     8    11    1
    45    15    16   ar
    46    15    13   ar
    47    18    16   ar
    48    18    20   ar
    49   122   121    1
    50   122   123    1
    51    16    14   ar
    52    13    12   ar
    53    20    19   ar
    54    14    12   ar
    55    14    17   ar
    56    12    11    1
    57    19    17   ar
    58   121   117   am
    59   124   123    2
    60    68    67   ar
    61   123   130   am
    62   117   118    2
    63   117   116    1
    64    69    67   ar
    65    67    66    1
    66   116   115    1
    67   116   119    1
    68   154   155   ar
    69   154   152   ar
    70    61    59    1
    71   130   131    1
    72   155   153   ar
    73    51    52    1
    74   119   120    1
    75    62    63    1
    76    63    66    1
    77    63    64    1
    78   152   149   ar
    79    58    59    2
    80    58    57    1
    81    59    60    1
    82   131   132    1
    83   131   134    1
    84    56    57    1
    85    56    55    1
    86    52    55    1
    87    52    53    1
    88   153   151   ar
    89   132   133    2
    90    65    64    2
    91    88    86   ar
    92    88    87   ar
    93    64    70   am
    94    86    84   ar
    95   145   144    2
    96   149   151   ar
    97   149   147   ar
    98    53    54    2
    99   134   135    1
   100   151   150   ar
   101   143   144    1
   102   143   142    1
   103   143   146    1
   104    87    85   ar
   105    84    83   ar
   106    70    71    1
   107    78    79    1
   108   147   146    1
   109   147   148   ar
   110   135   136   ar
   111   135   137   ar
   112    85    83   ar
   113    83    82    1
   114   150   148   ar
   115   114   112    1
   116   136   138   ar
   117   103   102   ar
   118   103   101   ar
   119    71    72    1
   120    71    74    1
   121    79    82    1
   122    79    80    1
   123    72    73    2
   124   137   139   ar
   125   102   100   ar
   126   101    99   ar
   127   112   113    1
   128   112   111    2
   129   138   140   ar
   130    74    75    1
   131    80    81    2
   132    75    77    1
   133    75    76    1
   134   100    99   ar
   135   139   140   ar
   136    99    98    1
   137   140   141    1
   138    93    90    1
   139   111   110    1
   140    90    89    1
   141    90    91    1
   142    98    95    1
   143   110   109    1
   144    92    91    2
   145   108   105    1
   146   108   109    1
   147   105   104    1
   148   105   106    1
   149   104    96   am
   150    95    96    1
   151    95    94    1
   152    96    97    2
   153   106   107    2
