@<TRIPOS>MOLECULE
tmp/5nimA00.pdb
 184 182 0 0 0
SMALL
GASTEIGER

@<TRIPOS>ATOM
      1  N          6.9790   35.9670    3.2330 N.3    67  LEU67      -0.1245
      2  CA         6.7030   34.7420    3.9430 C.3    67  LEU67       0.1561
      3  C          5.7280   34.9410    5.0880 C.2    67  LEU67       0.2260
      4  O          4.8450   34.1340    5.2560 O.2    67  LEU67      -0.2867
      5  CB         8.0380   34.1440    4.4190 C.3    67  LEU67       0.0270
      6  CG         7.9630   32.7560    5.0240 C.3    67  LEU67       0.0019
      7  CD1        7.5240   31.6670    4.0460 C.3    67  LEU67       0.0001
      8  CD2        9.3120   32.4210    5.6660 C.3    67  LEU67       0.0001
      9  N          1.4780   23.9590   -0.9550 N.3    82  MET82      -0.1182
     10  CA         1.8060   24.7610    0.2090 C.3    82  MET82       0.1917
     11  C          3.3660   25.0450    0.2310 C.2    82  MET82       0.2634
     12  O          3.8390   26.1730    0.3690 O.2    82  MET82      -0.2714
     13  CB         1.3450   24.0800    1.5430 C.2    82  MET82       0.0083
     14  CG         1.7590   24.8180    2.8280 C.2    82  MET82       0.0282
     15  SD         1.4430   24.0240    4.4760 S.3    82  MET82      -0.1125
     16  CE         2.4680   22.5650    4.3260 C.3    82  MET82       0.0742
     17  N          4.1440   23.9730    0.0480 N.am   83  TRP83      -0.1973
     18  CA         5.5880   24.1570    0.1120 C.3    83  TRP83       0.1640
     19  C          6.1150   24.8880   -1.1280 C.2    83  TRP83       0.2290
     20  O          7.0420   25.7080   -1.0370 O.2    83  TRP83      -0.2864
     21  CB         6.2870   22.7880    0.2750 C.3    83  TRP83       0.0576
     22  CG         6.0260   22.1180    1.5990 C.ar   83  TRP83       0.0006
     23  CD1        5.1880   21.0580    1.8200 C.ar   83  TRP83       0.0946
     24  CD2        6.5790   22.4740    2.8660 C.ar   83  TRP83       0.0152
     25  NE1        5.1640   20.7550    3.1490 N.ar   83  TRP83      -0.2442
     26  CE2        6.0130   21.5800    3.8250 C.ar   83  TRP83       0.0810
     27  CE3        7.4720   23.4430    3.2970 C.ar   83  TRP83       0.0012
     28  CZ2        6.3590   21.6480    5.2000 C.ar   83  TRP83       0.0191
     29  CZ3        7.7770   23.5580    4.6710 C.ar   83  TRP83       0.0001
     30  CH2        7.2000   22.6510    5.5860 C.ar   83  TRP83       0.0015
     31  N          5.6410   28.6360   -0.7600 N.3    86  GLY86      -0.1210
     32  CA         6.5960   29.1730    0.1440 C.3    86  GLY86       0.1956
     33  C          8.0410   29.2670   -0.3520 C.2    86  GLY86       0.2611
     34  O          8.7170   30.3050   -0.2610 O.2    86  GLY86      -0.2717
     35  N          8.5240   28.1900   -0.9820 N.am   87  ILE87      -0.1979
     36  CA         9.8610   28.2310   -1.5860 C.3    87  ILE87       0.1595
     37  C          9.9100   29.2940   -2.6970 C.2    87  ILE87       0.2287
     38  O         10.9320   30.0040   -2.8640 O.2    87  ILE87      -0.2864
     39  CB        10.2920   26.8400   -2.1180 C.3    87  ILE87       0.0276
     40  CG1       10.4090   25.8430   -0.9270 C.3    87  ILE87       0.0022
     41  CG2       11.5660   26.9440   -2.9060 C.3    87  ILE87       0.0022
     42  CD1       10.4470   24.4370   -1.3670 C.3    87  ILE87       0.0001
     43  N         11.1920   32.8240   -2.0550 N.3    90  PHE90      -0.1241
     44  CA        12.6100   33.0270   -2.0560 C.3    90  PHE90       0.1605
     45  C         13.1660   33.0470   -3.4670 C.2    90  PHE90       0.2264
     46  O         13.9940   33.8640   -3.8340 O.2    90  PHE90      -0.2867
     47  CB        13.2990   31.9890   -1.1290 C.3    90  PHE90       0.0534
     48  CG        12.9330   32.1880    0.3050 C.ar   90  PHE90      -0.0203
     49  CD1       13.6760   33.0580    1.1080 C.ar   90  PHE90      -0.0042
     50  CD2       11.7440   31.6880    0.8330 C.ar   90  PHE90      -0.0042
     51  CE1       13.2820   33.3300    2.4220 C.ar   90  PHE90      -0.0003
     52  CE2       11.3600   31.9750    2.1570 C.ar   90  PHE90      -0.0003
     53  CZ        12.1180   32.8340    2.9010 C.ar   90  PHE90      -0.0000
     54  N         14.7450   36.7160   -4.2650 N.3    94  PHE94      -0.1241
     55  CA        16.1770   36.8150   -4.5250 C.3    94  PHE94       0.1605
     56  C         16.4700   36.8050   -6.0220 C.2    94  PHE94       0.2264
     57  O         17.4010   37.4350   -6.4840 O.2    94  PHE94      -0.2867
     58  CB        16.9540   35.7170   -3.7540 C.3    94  PHE94       0.0534
     59  CG        16.9930   35.9540   -2.2700 C.ar   94  PHE94      -0.0203
     60  CD1       17.9560   36.8290   -1.7530 C.ar   94  PHE94      -0.0042
     61  CD2       16.0960   35.4220   -1.4190 C.ar   94  PHE94      -0.0042
     62  CE1       18.0380   37.1190   -0.3910 C.ar   94  PHE94      -0.0003
     63  CE2       16.1280   35.7660   -0.0380 C.ar   94  PHE94      -0.0003
     64  CZ        17.1050   36.5780    0.4580 C.ar   94  PHE94      -0.0000
     65  N         22.6990   37.5040    7.5670 N.3   118  TRP118     -0.1241
     66  CA        22.2900   36.2790    6.8960 C.3   118  TRP118      0.1605
     67  C         22.0230   35.1520    7.9020 C.2   118  TRP118      0.2264
     68  O         20.9750   34.5030    7.8390 O.2   118  TRP118     -0.2867
     69  CB        23.3040   35.8850    5.8670 C.3   118  TRP118      0.0550
     70  CG        22.7980   34.7920    4.9880 C.ar  118  TRP118      0.0003
     71  CD1       23.1520   33.5190    5.0320 C.ar  118  TRP118      0.0946
     72  CD2       21.7910   34.9190    3.9890 C.ar  118  TRP118      0.0152
     73  NE1       22.4030   32.7990    4.1250 N.ar  118  TRP118     -0.2442
     74  CE2       21.5440   33.6380    3.4940 C.ar  118  TRP118      0.0810
     75  CE3       20.9440   35.9600    3.6060 C.ar  118  TRP118      0.0012
     76  CZ2       20.5510   33.3810    2.5530 C.ar  118  TRP118      0.0191
     77  CZ3       20.0220   35.7350    2.6070 C.ar  118  TRP118      0.0001
     78  CH2       19.8600   34.4500    2.0640 C.ar  118  TRP118      0.0015
     79  N         18.4010   33.2450    8.3600 N.3   122  MET122     -0.1245
     80  CA        18.3970   31.7810    8.1620 C.3   122  MET122      0.1570
     81  C         17.8640   31.0470    9.3970 C.2   122  MET122      0.2261
     82  O         17.0920   30.0880    9.2980 O.2   122  MET122     -0.2867
     83  CB        19.7500   31.2520    7.7840 C.3   122  MET122      0.0387
     84  CG        20.2320   31.5890    6.3880 C.3   122  MET122      0.0595
     85  SD        19.2480   30.8640    5.0450 S.3   122  MET122     -0.1393
     86  CE        19.8010   29.1380    5.1110 C.3   122  MET122      0.0692
     87  N         14.0480   31.4460    9.3740 N.3   125  TRP125     -0.1241
     88  CA        13.4340   30.6330    8.3410 C.3   125  TRP125      0.1605
     89  C         13.4520   29.1170    8.6010 C.2   125  TRP125      0.2264
     90  O         12.4860   28.4130    8.3690 O.2   125  TRP125     -0.2867
     91  CB        14.0860   30.9720    7.0090 C.3   125  TRP125      0.0550
     92  CG        13.8730   32.4500    6.6020 C.ar  125  TRP125      0.0003
     93  CD1       12.8230   33.2260    6.9830 C.ar  125  TRP125      0.0946
     94  CD2       14.6920   33.2370    5.7450 C.ar  125  TRP125      0.0152
     95  NE1       12.9830   34.5010    6.4420 N.ar  125  TRP125     -0.2442
     96  CE2       14.1060   34.5460    5.7080 C.ar  125  TRP125      0.0810
     97  CE3       15.9000   33.0400    5.0950 C.ar  125  TRP125      0.0012
     98  CZ2       14.6770   35.5970    4.9440 C.ar  125  TRP125      0.0191
     99  CZ3       16.4560   34.1120    4.3700 C.ar  125  TRP125      0.0001
    100  CH2       15.8270   35.3540    4.3250 C.ar  125  TRP125      0.0015
    101  N         10.8500   28.5070   11.3010 N.3   128  TYR128     -0.1227
    102  CA         9.5520   28.4590   10.7170 C.3   128  TYR128      0.1736
    103  C          9.2960   27.1670    9.9730 C.2   128  TYR128      0.2596
    104  O          8.2500   26.5560   10.0960 O.2   128  TYR128     -0.2718
    105  CB         9.2770   29.6910    9.7880 C.3   128  TYR128      0.0548
    106  CG         7.9030   29.6610    9.1880 C.ar  128  TYR128     -0.0200
    107  CD1        6.7840   29.7510    9.9990 C.ar  128  TYR128     -0.0009
    108  CD2        7.7100   29.5230    7.8210 C.ar  128  TYR128     -0.0009
    109  CE1        5.5020   29.7610    9.4530 C.ar  128  TYR128      0.0417
    110  CE2        6.4440   29.4090    7.2950 C.ar  128  TYR128      0.0417
    111  CZ         5.3700   29.5920    8.1040 C.ar  128  TYR128      0.1957
    112  OH         4.1070   29.4660    7.5500 O.3   128  TYR128     -0.2866
    113  N         10.2330   26.7410    9.1360 N.am  129  THR129     -0.1953
    114  CA        10.1200   25.4830    8.4630 C.3   129  THR129      0.1897
    115  C          9.8640   24.3290    9.4210 C.2   129  THR129      0.2313
    116  O          9.0380   23.4810    9.1960 O.2   129  THR129     -0.2863
    117  CB        11.4080   25.2190    7.6250 C.3   129  THR129      0.1794
    118  OG1       11.5880   26.2300    6.6020 O.3   129  THR129     -0.2208
    119  CG2       11.3940   23.8970    6.9760 C.3   129  THR129      0.0378
    120  N          6.3460   24.3190   10.7700 N.3   132  VAL132     -0.1245
    121  CA         5.3720   23.7420    9.8530 C.3   132  VAL132      0.1561
    122  C          5.4770   22.2130    9.7810 C.2   132  VAL132      0.2260
    123  O          4.4910   21.5000    9.7470 O.2   132  VAL132     -0.2867
    124  CB         5.4700   24.3780    8.4370 C.3   132  VAL132      0.0252
    125  CG1        4.4540   23.7570    7.4560 C.3   132  VAL132      0.0019
    126  CG2        5.3020   25.8950    8.5270 C.3   132  VAL132      0.0019
    127  N         16.9890   24.0150    4.1930 N.3   156  ASN156     -0.1240
    128  CA        17.2040   25.4140    3.9910 C.3   156  ASN156      0.1653
    129  C         18.6110   25.7220    3.4670 C.2   156  ASN156      0.2266
    130  O         18.7980   26.6070    2.6240 O.2   156  ASN156     -0.2867
    131  CB        16.9120   26.2740    5.2310 C.3   156  ASN156      0.1155
    132  CG        15.4270   26.5830    5.4280 C.2   156  ASN156      0.2627
    133  OD1       14.9510   27.4900    4.7810 O.2   156  ASN156     -0.2716
    134  ND2       14.6820   25.7650    6.0710 N.am  156  ASN156     -0.0877
    135  N         18.6280   24.9470   -0.1460 N.3   159  ASN159     -0.1225
    136  CA        18.0390   25.9880   -0.9770 C.3   159  ASN159      0.1785
    137  C         18.9840   27.1620   -1.1190 C.2   159  ASN159      0.2597
    138  O         19.0920   27.7330   -2.2190 O.2   159  ASN159     -0.2718
    139  CB        16.7230   26.4700   -0.3900 C.3   159  ASN159      0.1169
    140  CG        15.5930   25.5010   -0.6060 C.2   159  ASN159      0.2627
    141  OD1       15.7850   24.3310   -0.9110 O.2   159  ASN159     -0.2716
    142  ND2       14.3770   25.9650   -0.4350 N.am  159  ASN159     -0.0877
    143  N         19.6550   27.5910   -0.0370 N.am  160  GLU160     -0.1979
    144  CA        20.6200   28.6830   -0.0910 C.3   160  GLU160      0.1602
    145  C         21.6620   28.4030   -1.1660 C.2   160  GLU160      0.2287
    146  O         21.8190   29.2410   -2.1080 O.2   160  GLU160     -0.2864
    147  CB        21.2960   28.8180    1.2640 C.3   160  GLU160      0.0415
    148  CG        22.3660   29.8990    1.3120 C.3   160  GLU160      0.1163
    149  CD        23.2560   29.7900    2.5350 C.2   160  GLU160      0.3649
    150  OE1       22.8000   29.9390    3.6610 O.co2 160  GLU160     -0.2457
    151  OE2       24.4690   29.6300    2.3380 O.co2 160  GLU160     -0.2457
    152  N         19.7990   27.7070   -4.9510 N.3   163  LEU163     -0.1231
    153  CA        19.3140   28.9380   -5.5760 C.3   163  LEU163      0.1693
    154  C         20.4390   29.8260   -5.9710 C.2   163  LEU163      0.2592
    155  O         20.4220   30.3350   -7.1350 O.2   163  LEU163     -0.2718
    156  CB        18.3470   29.6750   -4.6440 C.3   163  LEU163      0.0284
    157  CG        17.0220   29.0000   -4.4050 C.3   163  LEU163      0.0019
    158  CD1       16.2370   29.7000   -3.3140 C.3   163  LEU163      0.0001
    159  CD2       16.1540   28.9080   -5.6730 C.3   163  LEU163      0.0001
    160  N         21.4170   30.0730   -5.1290 N.am  164  PHE164     -0.1976
    161  CA        22.4290   31.0450   -5.5270 C.3   164  PHE164      0.1639
    162  C         23.3270   30.4890   -6.6330 C.2   164  PHE164      0.2290
    163  O         23.6540   31.2660   -7.5600 O.2   164  PHE164     -0.2864
    164  CB        23.1450   31.5960   -4.3190 C.3   164  PHE164      0.0560
    165  CG        22.2020   32.2550   -3.3450 C.ar  164  PHE164     -0.0200
    166  CD1       20.9420   32.6610   -3.7420 C.ar  164  PHE164     -0.0042
    167  CD2       22.5270   32.3590   -2.0220 C.ar  164  PHE164     -0.0042
    168  CE1       20.0480   33.2120   -2.8420 C.ar  164  PHE164     -0.0003
    169  CE2       21.6650   32.9670   -1.1370 C.ar  164  PHE164     -0.0003
    170  CZ        20.4480   33.4160   -1.5440 C.ar  164  PHE164     -0.0000
    171  N         12.0700   18.6530   -0.9040 N.3   187  TRP187     -0.1241
    172  CA        11.4020   18.9970    0.3730 C.3   187  TRP187      0.1605
    173  C         10.2360   18.0490    0.6070 C.2   187  TRP187      0.2264
    174  O         10.0740   17.4790    1.7270 O.2   187  TRP187     -0.2867
    175  CB        10.9480   20.4540    0.3420 C.3   187  TRP187      0.0550
    176  CG        11.9670   21.4760    0.6130 C.ar  187  TRP187      0.0003
    177  CD1       13.1910   21.6720   -0.0480 C.ar  187  TRP187      0.0946
    178  CD2       11.9090   22.5160    1.5910 C.ar  187  TRP187      0.0152
    179  NE1       13.8530   22.7470    0.4910 N.ar  187  TRP187     -0.2442
    180  CE2       13.0830   23.2740    1.5010 C.ar  187  TRP187      0.0810
    181  CE3       10.9470   22.9000    2.5510 C.ar  187  TRP187      0.0012
    182  CZ2       13.3410   24.3750    2.3220 C.ar  187  TRP187      0.0191
    183  CZ3       11.1830   24.0040    3.3100 C.ar  187  TRP187      0.0001
    184  CH2       12.3560   24.7090    3.2430 C.ar  187  TRP187      0.0015
@<TRIPOS>BOND
     1   163   162    2
     2   155   154    2
     3   162   161    1
     4    57    56    2
     5    56    55    1
     6   154   153    1
     7   154   160   am
     8   159   157    1
     9   153   152    1
    10   153   156    1
    11   161   160    1
    12   161   164    1
    13   156   157    1
    14    55    54    1
    15    55    58    1
    16   157   158    1
    17   164   165    1
    18    46    45    2
    19    58    59    1
    20   166   165   ar
    21   166   168   ar
    22    45    44    1
    23   165   167   ar
    24    41    39    1
    25    38    37    2
    26   168   170   ar
    27    37    36    1
    28    59    60   ar
    29    59    61   ar
    30   138   137    2
    31    39    36    1
    32    39    40    1
    33   146   145    2
    34    44    43    1
    35    44    47    1
    36   167   169   ar
    37    60    62   ar
    38    36    35    1
    39   170   169   ar
    40    61    63   ar
    41    42    40    1
    42   145   144    1
    43    47    48    1
    44    19    20    2
    45    19    18    1
    46   137   136    1
    47   137   143   am
    48    35    33   am
    49   136   139    1
    50   136   135    1
    51     9    10    1
    52   141   140    2
    53   171   172    1
    54    31    32    1
    55   140   142   am
    56   140   139    1
    57    62    64   ar
    58    33    34    2
    59    33    32    1
    60   144   143    1
    61   144   147    1
    62   177   179   ar
    63   177   176   ar
    64    63    64   ar
    65    17    18    1
    66    17    11   am
    67    18    21    1
    68    10    11    1
    69    10    13    1
    70    11    12    2
    71    21    22    1
    72    48    50   ar
    73    48    49   ar
    74   175   172    1
    75   175   176    1
    76   172   173    1
    77   179   180   ar
    78   173   174    2
    79   176   178   ar
    80    50    52   ar
    81    49    51   ar
    82   147   148    1
    83   148   149    1
    84   180   178   ar
    85   180   182   ar
    86    13    14    2
    87   178   181   ar
    88    22    23   ar
    89    22    24   ar
    90    23    25   ar
    91    78    76   ar
    92    78    77   ar
    93    52    53   ar
    94   182   184   ar
    95   151   149   ar
    96    51    53   ar
    97   149   150   ar
    98   181   183   ar
    99    76    74   ar
   100    77    75   ar
   101   130   129    2
   102    14    15    1
   103    24    27   ar
   104    24    26   ar
   105    25    26   ar
   106     1     2    1
   107   184   183   ar
   108    27    29   ar
   109   129   128    1
   110    74    72   ar
   111    74    73   ar
   112    75    72   ar
   113    26    28   ar
   114     2     5    1
   115     2     3    1
   116    72    70   ar
   117   128   127    1
   118   128   131    1
   119     7     6    1
   120    73    71   ar
   121   100    99   ar
   122   100    98   ar
   123    16    15    1
   124    99    97   ar
   125     5     6    1
   126    29    30   ar
   127   133   132    2
   128    98    96   ar
   129    70    71   ar
   130    70    69    1
   131     6     8    1
   132    85    86    1
   133    85    84    1
   134     3     4    2
   135    97    94   ar
   136    28    30   ar
   137   131   132    1
   138   132   134   am
   139    96    94   ar
   140    96    95   ar
   141    94    92   ar
   142    69    66    1
   143    84    83    1
   144    95    93   ar
   145    92    93   ar
   146    92    91    1
   147   118   117    1
   148    66    65    1
   149    66    67    1
   150   119   117    1
   151    91    88    1
   152   110   108   ar
   153   110   111   ar
   154   125   124    1
   155   112   111    1
   156   117   114    1
   157    83    80    1
   158   108   106   ar
   159    68    67    2
   160   111   109   ar
   161    80    79    1
   162    80    81    1
   163    88    89    1
   164    88    87    1
   165    90    89    2
   166   124   126    1
   167   124   121    1
   168   114   113    1
   169   114   115    1
   170   113   103   am
   171   106   105    1
   172   106   107   ar
   173   116   115    2
   174    82    81    2
   175   109   107   ar
   176   123   122    2
   177   122   121    1
   178   105   102    1
   179   121   120    1
   180   103   104    2
   181   103   102    1
   182   102   101    1
