@<TRIPOS>MOLECULE
tmp/5ninA00.pdb
 61 57 0 0 0
SMALL
GASTEIGER

@<TRIPOS>ATOM
      1  N         -3.0980  -17.7890  -16.0080 N.3    86  PHE86      -0.1241
      2  CA        -4.1400  -18.7990  -15.9760 C.3    86  PHE86       0.1605
      3  C         -5.3570  -18.3320  -15.1830 C.2    86  PHE86       0.2264
      4  O         -6.4810  -18.7110  -15.5130 O.2    86  PHE86      -0.2867
      5  CB        -3.5700  -20.0840  -15.3860 C.3    86  PHE86       0.0534
      6  CG        -2.5020  -20.7500  -16.2310 C.ar   86  PHE86      -0.0203
      7  CD1       -2.3060  -20.4360  -17.5640 C.ar   86  PHE86      -0.0042
      8  CD2       -1.7020  -21.7270  -15.6620 C.ar   86  PHE86      -0.0042
      9  CE1       -1.3080  -21.0880  -18.3120 C.ar   86  PHE86      -0.0003
     10  CE2       -0.7110  -22.3740  -16.4070 C.ar   86  PHE86      -0.0003
     11  CZ        -0.5270  -22.0540  -17.7150 C.ar   86  PHE86      -0.0000
     12  N         -9.3460  -23.3520  -16.0630 N.3    99  LEU99      -0.1245
     13  CA        -8.3970  -24.4080  -16.3720 C.3    99  LEU99       0.1561
     14  C         -8.7670  -25.1370  -17.6650 C.2    99  LEU99       0.2260
     15  O         -7.8810  -25.4750  -18.4630 O.2    99  LEU99      -0.2867
     16  CB        -8.2810  -25.3630  -15.1780 C.3    99  LEU99       0.0270
     17  CG        -7.1750  -26.4050  -15.3150 C.3    99  LEU99       0.0019
     18  CD1       -5.8430  -25.7160  -15.5730 C.3    99  LEU99       0.0001
     19  CD2       -7.0730  -27.3010  -14.0940 C.3    99  LEU99       0.0001
     20  N         -7.3540  -23.0130  -20.3390 N.3   102  VAL102     -0.1231
     21  CA        -5.9030  -23.1260  -20.4160 C.3   102  VAL102      0.1692
     22  C         -5.5240  -24.3690  -21.2070 C.2   102  VAL102      0.2591
     23  O         -4.6430  -24.3300  -22.0790 O.2   102  VAL102     -0.2718
     24  CB        -5.2880  -23.1450  -19.0080 C.3   102  VAL102      0.0266
     25  CG1       -3.8410  -23.5630  -19.0390 C.3   102  VAL102      0.0020
     26  CG2       -5.4530  -21.7400  -18.3370 C.3   102  VAL102      0.0020
     27  N         -6.1420  -25.5040  -20.8820 N.am  103  MET103     -0.1979
     28  CA        -5.7620  -26.7480  -21.5390 C.3   103  MET103      0.1605
     29  C         -6.1460  -26.7300  -23.0090 C.2   103  MET103      0.2287
     30  O         -5.3690  -27.1760  -23.8600 O.2   103  MET103     -0.2864
     31  CB        -6.3800  -27.9490  -20.8100 C.3   103  MET103      0.0413
     32  CG        -5.9860  -28.0410  -19.3170 C.3   103  MET103      0.0598
     33  SD        -4.2280  -27.7690  -18.9420 S.3   103  MET103     -0.1393
     34  CE        -3.5090  -29.2040  -19.7060 C.3   103  MET103      0.0692
     35  N         -3.5840  -24.6100  -24.9030 N.3   106  LEU106     -0.1245
     36  CA        -2.3470  -25.3400  -25.1880 C.3   106  LEU106      0.1561
     37  C         -2.4520  -26.2340  -26.4070 C.2   106  LEU106      0.2260
     38  O         -1.4190  -26.6400  -26.9570 O.2   106  LEU106     -0.2867
     39  CB        -1.9520  -26.2140  -23.9980 C.3   106  LEU106      0.0270
     40  CG        -1.2100  -25.4890  -22.8940 C.3   106  LEU106      0.0019
     41  CD1       -1.1180  -26.3690  -21.6840 C.3   106  LEU106      0.0001
     42  CD2        0.1760  -25.1440  -23.3740 C.3   106  LEU106      0.0001
     43  N         -7.7510  -32.8310  -12.6430 N.3   118  MET118     -0.1245
     44  CA        -6.6360  -31.9150  -12.4030 C.3   118  MET118      0.1570
     45  C         -6.9030  -31.0400  -11.1900 C.2   118  MET118      0.2261
     46  O         -6.0200  -30.8390  -10.3460 O.2   118  MET118     -0.2867
     47  CB        -6.4000  -31.0250  -13.6270 C.3   118  MET118      0.0387
     48  CG        -5.7970  -31.7070  -14.7670 C.3   118  MET118      0.0595
     49  SD        -5.5180  -30.5760  -16.1600 S.3   118  MET118     -0.1393
     50  CE        -4.0580  -29.6980  -15.5840 C.3   118  MET118      0.0692
     51  N         -1.1650  -24.1370   -6.5330 N.3   135  PHE135     -0.1241
     52  CA        -0.4330  -24.1570   -7.7970 C.3   135  PHE135      0.1605
     53  C          1.0700  -24.3220   -7.5730 C.2   135  PHE135      0.2264
     54  O          1.7220  -25.1010   -8.2780 O.2   135  PHE135     -0.2867
     55  CB        -0.7510  -22.8700   -8.5530 C.3   135  PHE135      0.0534
     56  CG        -0.2460  -22.8040   -9.9640 C.ar  135  PHE135     -0.0203
     57  CD1       -0.8780  -23.5160  -10.9700 C.ar  135  PHE135     -0.0042
     58  CD2        0.8060  -21.9400  -10.3090 C.ar  135  PHE135     -0.0042
     59  CE1       -0.4520  -23.3990  -12.2850 C.ar  135  PHE135     -0.0003
     60  CE2        1.2410  -21.8350  -11.6300 C.ar  135  PHE135     -0.0003
     61  CZ         0.6120  -22.5550  -12.6050 C.ar  135  PHE135     -0.0000
@<TRIPOS>BOND
     1    38    37    2
     2    37    36    1
     3    36    35    1
     4    36    39    1
     5    39    40    1
     6    30    29    2
     7    42    40    1
     8    29    28    1
     9    40    41    1
    10    23    22    2
    11    28    27    1
    12    28    31    1
    13    22    27   am
    14    22    21    1
    15    31    32    1
    16    21    20    1
    17    21    24    1
    18    34    33    1
    19    32    33    1
    20    25    24    1
    21    24    26    1
    22    15    14    2
    23     9    11   ar
    24     9     7   ar
    25    11    10   ar
    26    14    13    1
    27     7     6   ar
    28    10     8   ar
    29    13    12    1
    30    13    16    1
    31     6     8   ar
    32     6     5    1
    33    49    50    1
    34    49    48    1
    35     1     2    1
    36     2     5    1
    37     2     3    1
    38    18    17    1
    39     4     3    2
    40    17    16    1
    41    17    19    1
    42    48    47    1
    43    47    44    1
    44    43    44    1
    45    61    59   ar
    46    61    60   ar
    47    44    45    1
    48    59    57   ar
    49    60    58   ar
    50    45    46    2
    51    57    56   ar
    52    58    56   ar
    53    56    55    1
    54    55    52    1
    55    54    53    2
    56    52    53    1
    57    52    51    1
