@<TRIPOS>MOLECULE
tmp/5nioA00.pdb
 176 174 0 0 0
SMALL
GASTEIGER

@<TRIPOS>ATOM
      1  N         -5.8750  -34.6140    3.2610 N.3    66  LEU66      -0.1245
      2  CA        -5.5430  -33.3730    3.9250 C.3    66  LEU66       0.1561
      3  C         -4.5300  -33.5470    5.0680 C.2    66  LEU66       0.2260
      4  O         -3.6280  -32.7500    5.2190 O.2    66  LEU66      -0.2867
      5  CB        -6.8210  -32.6610    4.4330 C.3    66  LEU66       0.0270
      6  CG        -6.5860  -31.3240    5.1420 C.3    66  LEU66       0.0019
      7  CD1       -6.0600  -30.2470    4.2100 C.3    66  LEU66       0.0001
      8  CD2       -7.9150  -30.8640    5.7290 C.3    66  LEU66       0.0001
      9  N         -2.7380  -22.4730   -0.0200 N.3    82  TRP82      -0.1241
     10  CA        -4.1870  -22.6490    0.0420 C.3    82  TRP82       0.1605
     11  C         -4.7110  -23.4150   -1.1930 C.2    82  TRP82       0.2264
     12  O         -5.6110  -24.2420   -1.0570 O.2    82  TRP82      -0.2867
     13  CB        -4.8520  -21.2870    0.1830 C.3    82  TRP82       0.0550
     14  CG        -4.5990  -20.6470    1.5090 C.ar   82  TRP82       0.0003
     15  CD1       -3.7800  -19.6050    1.7380 C.ar   82  TRP82       0.0946
     16  CD2       -5.0920  -21.0690    2.7800 C.ar   82  TRP82       0.0152
     17  NE1       -3.7610  -19.3100    3.0790 N.ar   82  TRP82      -0.2442
     18  CE2       -4.5460  -20.1940    3.7500 C.ar   82  TRP82       0.0810
     19  CE3       -5.8930  -22.1230    3.2130 C.ar   82  TRP82       0.0012
     20  CZ2       -4.8140  -20.3260    5.1000 C.ar   82  TRP82       0.0191
     21  CZ3       -6.1520  -22.2260    4.5540 C.ar   82  TRP82       0.0001
     22  CH2       -5.6580  -21.3010    5.4720 C.ar   82  TRP82       0.0015
     23  N         -4.3490  -27.1090   -0.7800 N.3    85  GLY85      -0.1210
     24  CA        -5.3300  -27.5730    0.1690 C.3    85  GLY85       0.1956
     25  C         -6.7530  -27.6810   -0.3630 C.2    85  GLY85       0.2611
     26  O         -7.4440  -28.6990   -0.2340 O.2    85  GLY85      -0.2717
     27  N         -7.1600  -26.6150   -1.0510 N.am   86  ILE86      -0.1979
     28  CA        -8.5020  -26.6390   -1.6750 C.3    86  ILE86       0.1595
     29  C         -8.5910  -27.7840   -2.7180 C.2    86  ILE86       0.2287
     30  O         -9.5820  -28.4730   -2.8830 O.2    86  ILE86      -0.2864
     31  CB        -8.8910  -25.2950   -2.2770 C.3    86  ILE86       0.0276
     32  CG1       -8.9780  -24.2160   -1.1690 C.3    86  ILE86       0.0022
     33  CG2      -10.2170  -25.4080   -2.9720 C.3    86  ILE86       0.0022
     34  CD1       -9.1160  -22.8240   -1.6640 C.3    86  ILE86       0.0001
     35  N         -9.9530  -31.2490   -1.9240 N.3    89  PHE89      -0.1241
     36  CA       -11.3810  -31.4340   -1.9330 C.3    89  PHE89       0.1605
     37  C        -11.8920  -31.4740   -3.3830 C.2    89  PHE89       0.2264
     38  O        -12.8160  -32.2480   -3.7450 O.2    89  PHE89      -0.2867
     39  CB       -12.0280  -30.3380   -1.0790 C.3    89  PHE89       0.0534
     40  CG       -11.6950  -30.4500    0.3800 C.ar   89  PHE89      -0.0203
     41  CD1      -12.3140  -31.3990    1.1560 C.ar   89  PHE89      -0.0042
     42  CD2      -10.6200  -29.8060    0.9180 C.ar   89  PHE89      -0.0042
     43  CE1      -11.9400  -31.6430    2.4790 C.ar   89  PHE89      -0.0003
     44  CE2      -10.2700  -30.0250    2.2430 C.ar   89  PHE89      -0.0003
     45  CZ       -10.8900  -31.0180    2.9850 C.ar   89  PHE89      -0.0000
     46  N        -13.6220  -35.0920   -4.0740 N.3    93  PHE93      -0.1241
     47  CA       -15.0440  -35.0850   -4.3210 C.3    93  PHE93       0.1605
     48  C        -15.3210  -35.1190   -5.8270 C.2    93  PHE93       0.2264
     49  O        -16.3020  -35.7260   -6.2900 O.2    93  PHE93      -0.2867
     50  CB       -15.7850  -33.9250   -3.5830 C.3    93  PHE93       0.0534
     51  CG       -15.8780  -34.1550   -2.1050 C.ar   93  PHE93      -0.0203
     52  CD1      -16.9100  -34.9560   -1.5670 C.ar   93  PHE93      -0.0042
     53  CD2      -14.9430  -33.6500   -1.2700 C.ar   93  PHE93      -0.0042
     54  CE1      -16.9820  -35.1910   -0.2050 C.ar   93  PHE93      -0.0003
     55  CE2      -15.0280  -33.8740    0.1220 C.ar   93  PHE93      -0.0003
     56  CZ       -16.0080  -34.6650    0.6240 C.ar   93  PHE93      -0.0000
     57  N        -21.4330  -35.4880    7.7760 N.3   117  TRP117     -0.1241
     58  CA       -21.0230  -34.2500    7.1230 C.3   117  TRP117      0.1605
     59  C        -20.5890  -33.1960    8.1360 C.2   117  TRP117      0.2264
     60  O        -19.5500  -32.5490    7.9810 O.2   117  TRP117     -0.2867
     61  CB       -22.0890  -33.7250    6.2190 C.3   117  TRP117      0.0550
     62  CG       -21.5130  -32.6870    5.3020 C.ar  117  TRP117      0.0003
     63  CD1      -21.7000  -31.3510    5.3730 C.ar  117  TRP117      0.0946
     64  CD2      -20.5060  -32.9070    4.2920 C.ar  117  TRP117      0.0152
     65  NE1      -20.9090  -30.7190    4.3940 N.ar  117  TRP117     -0.2442
     66  CE2      -20.1880  -31.6530    3.7270 C.ar  117  TRP117      0.0810
     67  CE3      -19.8850  -34.0520    3.7610 C.ar  117  TRP117      0.0012
     68  CZ2      -19.2460  -31.5080    2.7180 C.ar  117  TRP117      0.0191
     69  CZ3      -18.9930  -33.8990    2.6790 C.ar  117  TRP117      0.0001
     70  CH2      -18.6620  -32.6260    2.1980 C.ar  117  TRP117      0.0015
     71  N        -16.9120  -31.4700    8.4760 N.3   121  MET121     -0.1245
     72  CA       -16.8600  -30.0360    8.2490 C.3   121  MET121      0.1570
     73  C        -16.2860  -29.3080    9.4910 C.2   121  MET121      0.2261
     74  O        -15.4440  -28.3770    9.3650 O.2   121  MET121     -0.2867
     75  CB       -18.2450  -29.5100    7.9050 C.3   121  MET121      0.0387
     76  CG       -18.6660  -29.8400    6.5000 C.3   121  MET121      0.0595
     77  SD       -17.6460  -29.1160    5.1970 S.3   121  MET121     -0.1393
     78  CE       -18.1860  -27.3850    5.1840 C.3   121  MET121      0.0692
     79  N        -12.4910  -29.7620    9.3660 N.3   124  TRP124     -0.1241
     80  CA       -11.8760  -29.0130    8.3030 C.3   124  TRP124      0.1605
     81  C        -11.8620  -27.4950    8.5630 C.2   124  TRP124      0.2264
     82  O        -10.8620  -26.8400    8.3240 O.2   124  TRP124     -0.2867
     83  CB       -12.4850  -29.3920    6.9510 C.3   124  TRP124      0.0550
     84  CG       -12.3730  -30.8490    6.6110 C.ar  124  TRP124      0.0003
     85  CD1      -11.3720  -31.6590    7.0270 C.ar  124  TRP124      0.0946
     86  CD2      -13.2170  -31.6070    5.7690 C.ar  124  TRP124      0.0152
     87  NE1      -11.5790  -32.9250    6.5020 N.ar  124  TRP124     -0.2442
     88  CE2      -12.7140  -32.9390    5.7740 C.ar  124  TRP124      0.0810
     89  CE3      -14.4050  -31.3670    5.1280 C.ar  124  TRP124      0.0012
     90  CZ2      -13.3210  -33.9660    5.0250 C.ar  124  TRP124      0.0191
     91  CZ3      -15.0480  -32.4140    4.4340 C.ar  124  TRP124      0.0001
     92  CH2      -14.4630  -33.6810    4.3680 C.ar  124  TRP124      0.0015
     93  N         -9.2210  -26.9480   11.3150 N.3   127  TYR127     -0.1227
     94  CA        -7.8740  -26.9050   10.7510 C.3   127  TYR127      0.1736
     95  C         -7.5950  -25.6000    9.9800 C.2   127  TYR127      0.2596
     96  O         -6.5930  -24.9400   10.1180 O.2   127  TYR127     -0.2718
     97  CB        -7.6570  -28.1420    9.8280 C.3   127  TYR127      0.0548
     98  CG        -6.3160  -28.1620    9.1750 C.ar  127  TYR127     -0.0200
     99  CD1       -5.1840  -28.2640    9.9450 C.ar  127  TYR127     -0.0009
    100  CD2       -6.1610  -27.9360    7.8240 C.ar  127  TYR127     -0.0009
    101  CE1       -3.9220  -28.2000    9.3950 C.ar  127  TYR127      0.0417
    102  CE2       -4.9060  -27.8310    7.2740 C.ar  127  TYR127      0.0417
    103  CZ        -3.8040  -28.0360    8.0530 C.ar  127  TYR127      0.1957
    104  OH        -2.5440  -27.9280    7.4820 O.3   127  TYR127     -0.2866
    105  N         -8.5910  -25.1700    9.1880 N.am  128  THR128     -0.1953
    106  CA        -8.4900  -23.8880    8.5110 C.3   128  THR128      0.1897
    107  C         -8.1980  -22.7300    9.4540 C.2   128  THR128      0.2313
    108  O         -7.3470  -21.9010    9.2200 O.2   128  THR128     -0.2863
    109  CB        -9.8180  -23.6020    7.7290 C.3   128  THR128      0.1794
    110  OG1      -10.0610  -24.6240    6.7420 O.3   128  THR128     -0.2208
    111  CG2       -9.7230  -22.2920    7.0460 C.3   128  THR128      0.0378
    112  N         -4.6800  -22.7950   10.7400 N.3   131  VAL131     -0.1245
    113  CA        -3.7260  -22.2670    9.8060 C.3   131  VAL131      0.1561
    114  C         -3.7850  -20.7220    9.7140 C.2   131  VAL131      0.2260
    115  O         -2.7840  -20.0180    9.7270 O.2   131  VAL131     -0.2867
    116  CB        -3.8750  -22.8850    8.3920 C.3   131  VAL131      0.0252
    117  CG1       -2.9290  -22.2230    7.3920 C.3   131  VAL131      0.0019
    118  CG2       -3.6790  -24.4190    8.4180 C.3   131  VAL131      0.0019
    119  N        -15.1990  -22.2960    4.1720 N.3   155  ASN155     -0.1240
    120  CA       -15.4730  -23.6850    3.9720 C.3   155  ASN155      0.1653
    121  C        -16.8530  -23.9220    3.4090 C.2   155  ASN155      0.2266
    122  O        -17.0540  -24.8100    2.5100 O.2   155  ASN155     -0.2867
    123  CB       -15.2760  -24.5380    5.2490 C.3   155  ASN155      0.1155
    124  CG       -13.8160  -24.8870    5.4920 C.2   155  ASN155      0.2627
    125  OD1      -13.4640  -26.0540    5.2420 O.2   155  ASN155     -0.2716
    126  ND2      -13.0140  -24.0250    5.9810 N.am  155  ASN155     -0.0877
    127  N        -16.8790  -23.1080   -0.1700 N.3   158  ASN158     -0.1225
    128  CA       -16.2550  -24.1610   -1.0000 C.3   158  ASN158      0.1785
    129  C        -17.2190  -25.2990   -1.1570 C.2   158  ASN158      0.2597
    130  O        -17.3260  -25.8730   -2.2720 O.2   158  ASN158     -0.2718
    131  CB       -14.9350  -24.6480   -0.3860 C.3   158  ASN158      0.1169
    132  CG       -13.8120  -23.7110   -0.6070 C.2   158  ASN158      0.2627
    133  OD1      -14.0150  -22.5270   -0.9190 O.2   158  ASN158     -0.2716
    134  ND2      -12.5840  -24.1540   -0.3900 N.am  158  ASN158     -0.0877
    135  N        -17.8750  -25.7460   -0.1180 N.am  159  GLU159     -0.1979
    136  CA       -18.8590  -26.8200   -0.2250 C.3   159  GLU159      0.1602
    137  C        -19.8910  -26.5130   -1.2920 C.2   159  GLU159      0.2287
    138  O        -20.0990  -27.2890   -2.2420 O.2   159  GLU159     -0.2864
    139  CB       -19.5660  -26.9730    1.1110 C.3   159  GLU159      0.0415
    140  CG       -20.6370  -28.0700    1.1280 C.3   159  GLU159      0.1163
    141  CD       -21.5070  -27.9820    2.3200 C.2   159  GLU159      0.3649
    142  OE1      -21.0460  -27.9230    3.4220 O.co2 159  GLU159     -0.2457
    143  OE2      -22.7270  -27.9680    2.0920 O.co2 159  GLU159     -0.2457
    144  N        -18.0670  -25.8410   -5.0290 N.3   162  LEU162     -0.1231
    145  CA       -17.5660  -27.1050   -5.6200 C.3   162  LEU162      0.1693
    146  C        -18.7200  -27.9740   -6.0170 C.2   162  LEU162      0.2592
    147  O        -18.7380  -28.4720   -7.1920 O.2   162  LEU162     -0.2718
    148  CB       -16.6510  -27.8870   -4.6810 C.3   162  LEU162      0.0284
    149  CG       -15.3220  -27.2310   -4.3880 C.3   162  LEU162      0.0019
    150  CD1      -14.6320  -27.8890   -3.2300 C.3   162  LEU162      0.0001
    151  CD2      -14.3860  -27.1280   -5.6150 C.3   162  LEU162      0.0001
    152  N        -19.6880  -28.1700   -5.1750 N.am  163  PHE163     -0.1976
    153  CA       -20.7700  -29.1310   -5.4760 C.3   163  PHE163      0.1639
    154  C        -21.6550  -28.6210   -6.5690 C.2   163  PHE163      0.2290
    155  O        -22.0850  -29.3800   -7.4570 O.2   163  PHE163     -0.2864
    156  CB       -21.4380  -29.5840   -4.2130 C.3   163  PHE163      0.0560
    157  CG       -20.4910  -30.2790   -3.2220 C.ar  163  PHE163     -0.0200
    158  CD1      -19.2060  -30.6460   -3.5340 C.ar  163  PHE163     -0.0042
    159  CD2      -20.9250  -30.5200   -1.9450 C.ar  163  PHE163     -0.0042
    160  CE1      -18.3360  -31.2190   -2.5920 C.ar  163  PHE163     -0.0003
    161  CE2      -20.0960  -31.1360   -1.0250 C.ar  163  PHE163     -0.0003
    162  CZ       -18.8060  -31.4410   -1.3240 C.ar  163  PHE163     -0.0000
    163  N        -10.2950  -16.8540   -0.9600 N.3   186  TRP186     -0.1241
    164  CA        -9.5580  -17.2090    0.2630 C.3   186  TRP186      0.1605
    165  C         -8.4230  -16.2780    0.5030 C.2   186  TRP186      0.2264
    166  O         -8.2540  -15.7610    1.6460 O.2   186  TRP186     -0.2867
    167  CB        -9.0940  -18.6780    0.2050 C.3   186  TRP186      0.0550
    168  CG       -10.1360  -19.6700    0.4710 C.ar  186  TRP186      0.0003
    169  CD1      -11.3440  -19.8860   -0.2050 C.ar  186  TRP186      0.0946
    170  CD2      -10.1160  -20.6770    1.4920 C.ar  186  TRP186      0.0152
    171  NE1      -12.0300  -20.9320    0.3500 N.ar  186  TRP186     -0.2442
    172  CE2      -11.3000  -21.4170    1.4100 C.ar  186  TRP186      0.0810
    173  CE3       -9.2090  -21.0080    2.5210 C.ar  186  TRP186      0.0012
    174  CZ2      -11.6220  -22.4020    2.3180 C.ar  186  TRP186      0.0191
    175  CZ3       -9.5460  -21.9880    3.4010 C.ar  186  TRP186      0.0001
    176  CH2      -10.7030  -22.7110    3.2830 C.ar  186  TRP186      0.0015
@<TRIPOS>BOND
     1   155   154    2
     2   147   146    2
     3   154   153    1
     4    49    48    2
     5   146   145    1
     6   146   152   am
     7    48    47    1
     8   145   144    1
     9   145   148    1
    10   151   149    1
    11   153   152    1
    12   153   156    1
    13   148   149    1
    14   149   150    1
    15    47    46    1
    16    47    50    1
    17   156   157    1
    18    38    37    2
    19    50    51    1
    20   158   157   ar
    21   158   160   ar
    22    37    36    1
    23   157   159   ar
    24    33    31    1
    25    30    29    2
    26    29    28    1
    27   160   162   ar
    28    31    28    1
    29    31    32    1
    30   130   129    2
    31   138   137    2
    32    51    52   ar
    33    51    53   ar
    34   159   161   ar
    35    36    35    1
    36    36    39    1
    37    28    27    1
    38    34    32    1
    39    52    54   ar
    40   162   161   ar
    41   137   136    1
    42    53    55   ar
    43    11    12    2
    44    11    10    1
    45   129   128    1
    46   129   135   am
    47    39    40    1
    48    27    25   am
    49   128   131    1
    50   128   127    1
    51   163   164    1
    52   133   132    2
    53    23    24    1
    54   132   134   am
    55   132   131    1
    56    25    26    2
    57    25    24    1
    58   136   135    1
    59   136   139    1
    60    54    56   ar
    61   169   171   ar
    62   169   168   ar
    63     9    10    1
    64    10    13    1
    65    55    56   ar
    66    13    14    1
    67   167   164    1
    68   167   168    1
    69   164   165    1
    70   171   172   ar
    71    40    42   ar
    72    40    41   ar
    73   168   170   ar
    74   165   166    2
    75    42    44   ar
    76   139   140    1
    77   140   141    1
    78    41    43   ar
    79   172   170   ar
    80   172   174   ar
    81   170   173   ar
    82    14    15   ar
    83    14    16   ar
    84    15    17   ar
    85   143   141   ar
    86    70    69   ar
    87    70    68   ar
    88    44    45   ar
    89   174   176   ar
    90   141   142   ar
    91    43    45   ar
    92   122   121    2
    93   173   175   ar
    94    69    67   ar
    95    68    66   ar
    96    16    19   ar
    97    16    18   ar
    98    17    18   ar
    99    19    21   ar
   100     1     2    1
   101   176   175   ar
   102   121   120    1
   103    66    64   ar
   104    66    65   ar
   105    18    20   ar
   106    67    64   ar
   107     2     5    1
   108     2     3    1
   109   120   119    1
   110   120   123    1
   111     7     6    1
   112    64    62   ar
   113    92    91   ar
   114    92    90   ar
   115    65    63   ar
   116     5     6    1
   117    91    89   ar
   118    21    22   ar
   119    90    88   ar
   120     3     4    2
   121    20    22   ar
   122    89    86   ar
   123     6     8    1
   124    78    77    1
   125    77    76    1
   126   125   124    2
   127   123   124    1
   128    62    63   ar
   129    62    61    1
   130   124   126   am
   131    86    88   ar
   132    86    84   ar
   133    88    87   ar
   134    61    58    1
   135    76    75    1
   136    87    85   ar
   137    84    83    1
   138    84    85   ar
   139   110   109    1
   140    83    80    1
   141   111   109    1
   142    58    57    1
   143    58    59    1
   144   102   100   ar
   145   102   103   ar
   146   117   116    1
   147   104   103    1
   148   109   106    1
   149   100    98   ar
   150    75    72    1
   151    60    59    2
   152   103   101   ar
   153    72    71    1
   154    72    73    1
   155    80    81    1
   156    80    79    1
   157    82    81    2
   158   116   118    1
   159   116   113    1
   160   106   105    1
   161   106   107    1
   162    98    97    1
   163    98    99   ar
   164   105    95   am
   165   108   107    2
   166    74    73    2
   167   101    99   ar
   168   114   115    2
   169   114   113    1
   170   113   112    1
   171    97    94    1
   172    95    96    2
   173    95    94    1
   174    94    93    1
