@<TRIPOS>MOLECULE
tmp/5nirB02.pdb
 88 87 0 0 0
SMALL
GASTEIGER

@<TRIPOS>ATOM
      1  N         -2.3030   23.4470   34.0050 N.3    23  CYS23      -0.1235
      2  CA        -1.4710   22.2260   34.0770 C.3    23  CYS23       0.1677
      3  C         -0.8280   21.8220   32.7540 C.2    23  CYS23       0.2270
      4  O         -0.4590   20.6660   32.5820 O.2    23  CYS23      -0.2867
      5  CB        -2.2620   21.0610   34.6680 C.3    23  CYS23       0.0956
      6  SG        -2.8480   21.3710   36.3520 S.3    23  CYS23      -0.0801
      7  N          1.4700   18.8560   33.4820 N.3    38  ILE38      -0.1231
      8  CA         1.9630   18.8030   34.8470 C.3    38  ILE38       0.1692
      9  C          1.0510   17.8810   35.6200 C.2    38  ILE38       0.2592
     10  O         -0.1670   18.0230   35.5590 O.2    38  ILE38      -0.2718
     11  CB         2.0090   20.2250   35.5010 C.3    38  ILE38       0.0266
     12  CG1        2.8970   21.1780   34.6810 C.3    38  ILE38       0.0019
     13  CG2        2.4080   20.1930   37.0100 C.3    38  ILE38       0.0020
     14  CD1        2.7300   22.6120   35.0930 C.3    38  ILE38       0.0001
     15  N          1.6570   16.9650   36.3500 N.am   39  ILE39      -0.1966
     16  CA         0.9630   16.0550   37.2710 C.3    39  ILE39       0.1727
     17  C          1.4970   16.3580   38.6650 C.2    39  ILE39       0.2616
     18  O          2.7070   16.3370   38.8790 O.2    39  ILE39      -0.2715
     19  CB         1.1300   14.5490   36.8880 C.3    39  ILE39       0.0290
     20  CG1        0.4720   14.2240   35.5210 C.3    39  ILE39       0.0022
     21  CG2        0.5800   13.6250   38.0180 C.3    39  ILE39       0.0023
     22  CD1       -0.9740   14.4540   35.4000 C.3    39  ILE39       0.0001
     23  N          0.5920   16.5520   39.6300 N.am   40  CYS40      -0.1954
     24  CA         0.9810   16.8310   41.0090 C.3    40  CYS40       0.1843
     25  C          1.3030   15.5210   41.7150 C.2    40  CYS40       0.2625
     26  O          0.5450   14.5730   41.6110 O.2    40  CYS40      -0.2714
     27  CB        -0.1690   17.5670   41.6960 C.3    40  CYS40       0.0997
     28  SG        -0.7690   18.9800   40.7320 S.3    40  CYS40      -0.0797
     29  N          2.3950   15.4690   42.4720 N.am   41  GLU41      -0.1963
     30  CA         2.6610   14.2800   43.3020 C.3    41  GLU41       0.1733
     31  C          1.4140   14.0550   44.1970 C.2    41  GLU41       0.2616
     32  O          0.8960   15.0070   44.7790 O.2    41  GLU41      -0.2715
     33  CB         3.8570   14.5700   44.1970 C.3    41  GLU41       0.0429
     34  CG         4.2050   13.3750   45.0900 C.3    41  GLU41       0.1163
     35  CD         5.4520   13.6160   45.9030 C.2    41  GLU41       0.3649
     36  OE1        5.7710   14.8020   46.1500 O.co2  41  GLU41      -0.2457
     37  OE2        6.1380   12.6260   46.2430 O.co2  41  GLU41      -0.2457
     38  N          0.9720   12.8090   44.3160 N.am   42  ASP42      -0.1957
     39  CA        -0.1600   12.4440   45.1580 C.3    42  ASP42       0.1840
     40  C          0.2870   12.3570   46.6160 C.2    42  ASP42       0.2622
     41  O          0.7440   11.3230   47.0530 O.2    42  ASP42      -0.2715
     42  CB        -0.7540   11.1040   44.6930 C.3    42  ASP42       0.1450
     43  CG        -2.0570   10.7280   45.3790 C.2    42  ASP42       0.3671
     44  OD1       -2.5810   11.5450   46.1590 O.co2  42  ASP42      -0.2456
     45  OD2       -2.5390    9.6220   45.1460 O.co2  42  ASP42      -0.2456
     46  N          0.1280   13.4490   47.3490 N.am   43  VAL43      -0.1963
     47  CA         0.4370   13.5970   48.7650 C.3    43  VAL43       0.1727
     48  C         -0.7860   14.2500   49.4170 C.2    43  VAL43       0.2616
     49  O         -1.1970   15.3460   49.0110 O.2    43  VAL43      -0.2715
     50  CB         1.6600   14.4890   49.0740 C.3    43  VAL43       0.0290
     51  CG1        2.1620   14.2290   50.4960 C.3    43  VAL43       0.0023
     52  CG2        2.7710   14.3080   48.0750 C.3    43  VAL43       0.0023
     53  N         -1.3180   13.6240   50.4440 N.am   44  LYS44      -0.1977
     54  CA        -2.4810   14.1980   51.1270 C.3    44  LYS44       0.1596
     55  C         -2.1090   14.5270   52.5220 C.2    44  LYS44       0.2287
     56  O         -2.3530   13.7250   53.4070 O.2    44  LYS44      -0.2864
     57  CB        -3.6430   13.1980   51.1610 C.3    44  LYS44       0.0298
     58  CG        -3.9780   12.5390   49.8490 C.3    44  LYS44       0.0038
     59  CD        -4.5270   13.4760   48.8360 C.3    44  LYS44       0.0206
     60  CE        -5.3290   12.6750   47.8500 C.3    44  LYS44       0.1093
     61  NZ        -5.8010   13.5320   46.7490 N.3    44  LYS44      -0.1314
     62  N         -4.6960   26.3270   45.5280 N.3    51  ILE51      -0.1245
     63  CA        -4.1670   26.3590   44.1750 C.3    51  ILE51       0.1561
     64  C         -4.0900   27.8170   43.7680 C.2    51  ILE51       0.2260
     65  O         -5.1160   28.4120   43.4660 O.2    51  ILE51      -0.2867
     66  CB        -4.9190   25.4960   43.1410 C.3    51  ILE51       0.0252
     67  CG1       -5.0410   24.0330   43.6190 C.3    51  ILE51       0.0019
     68  CG2       -4.1410   25.5830   41.8020 C.3    51  ILE51       0.0019
     69  CD1       -5.8030   23.1570   42.6660 C.3    51  ILE51       0.0001
     70  N         -0.9220   24.9820   38.7070 N.3    56  CYS56      -0.1221
     71  CA        -1.4880   23.6670   38.5980 C.3    56  CYS56       0.1808
     72  C         -1.7550   23.0050   39.9460 C.2    56  CYS56       0.2601
     73  O         -2.8480   22.5130   40.1970 O.2    56  CYS56      -0.2717
     74  CB        -0.5720   22.8000   37.7360 C.3    56  CYS56       0.0970
     75  SG        -1.1870   21.1240   37.5000 S.3    56  CYS56      -0.0800
     76  N         -0.7210   22.9280   40.7770 N.am   57  CYS57      -0.1956
     77  CA        -0.7140   22.1250   41.9820 C.3    57  CYS57       0.1828
     78  C         -0.9780   22.8730   43.2660 C.2    57  CYS57       0.2467
     79  O         -0.5140   23.9820   43.4580 O.2    57  CYS57      -0.2730
     80  CB         0.5870   21.3420   42.0830 C.3    57  CYS57       0.0996
     81  SG         0.8430   20.1950   40.7030 S.3    57  CYS57      -0.0797
     82  N         -1.7050   22.2210   44.1820 N.am   58  PRO58      -0.2726
     83  CA        -1.9410   22.8530   45.4790 C.3    58  PRO58       0.1402
     84  C         -0.6660   22.8730   46.2950 C.2    58  PRO58       0.2269
     85  O          0.1950   21.9760   46.2160 O.2    58  PRO58      -0.2865
     86  CB        -2.9760   21.9370   46.1390 C.3    58  PRO58       0.0296
     87  CG        -2.7970   20.6360   45.5150 C.3    58  PRO58       0.0237
     88  CD        -2.3290   20.8900   44.1040 C.3    58  PRO58       0.0939
@<TRIPOS>BOND
     1     4     3    2
     2     3     2    1
     3     7     8    1
     4     1     2    1
     5     2     5    1
     6     5     6    1
     7    12    14    1
     8    12    11    1
     9     8    11    1
    10     8     9    1
    11    22    20    1
    12    11    13    1
    13    20    19    1
    14    10     9    2
    15     9    15   am
    16    15    16    1
    17     6    75    1
    18    19    16    1
    19    19    21    1
    20    16    17    1
    21    75    74    1
    22    74    71    1
    23    71    70    1
    24    71    72    1
    25    17    18    2
    26    17    23   am
    27    23    24    1
    28    72    73    2
    29    72    76   am
    30    81    28    1
    31    81    80    1
    32    28    27    1
    33    76    77    1
    34    24    27    1
    35    24    25    1
    36    26    25    2
    37    25    29   am
    38    68    66    1
    39    77    80    1
    40    77    78    1
    41    29    30    1
    42    69    67    1
    43    66    67    1
    44    66    63    1
    45    78    79    2
    46    78    82   am
    47    30    31    1
    48    30    33    1
    49    65    64    2
    50    64    63    1
    51    88    82    1
    52    88    87    1
    53    63    62    1
    54    82    83    1
    55    31    38   am
    56    31    32    2
    57    33    34    1
    58    38    39    1
    59    42    39    1
    60    42    43    1
    61    34    35    1
    62    45    43   ar
    63    39    40    1
    64    43    44   ar
    65    83    86    1
    66    83    84    1
    67    87    86    1
    68    35    36   ar
    69    35    37   ar
    70    85    84    2
    71    40    41    2
    72    40    46   am
    73    61    60    1
    74    46    47    1
    75    60    59    1
    76    52    50    1
    77    47    50    1
    78    47    48    1
    79    59    58    1
    80    49    48    2
    81    50    51    1
    82    48    53   am
    83    58    57    1
    84    53    54    1
    85    54    57    1
    86    54    55    1
    87    55    56    2
