@<TRIPOS>MOLECULE
tmp/5niuD00.pdb
 126 122 0 0 0
SMALL
GASTEIGER

@<TRIPOS>ATOM
      1  N         13.9300   70.9140  182.6590 N.3     1  ALA1       -0.1231
      2  CA        13.9080   69.4040  182.8040 C.3     1  ALA1        0.1694
      3  C         13.3950   68.9800  184.2140 C.2     1  ALA1        0.2592
      4  O         14.1380   68.7770  185.1780 O.2     1  ALA1       -0.2718
      5  CB        15.2700   68.8110  182.5120 C.3     1  ALA1        0.0304
      6  N         12.0890   68.8300  184.3030 N.am    2  PHE2       -0.1962
      7  CA        11.4470   68.3390  185.5220 C.3     2  PHE2        0.1771
      8  C         11.8680   66.8940  185.8060 C.2     2  PHE2        0.2620
      9  O         11.6210   65.9970  185.0170 O.2     2  PHE2       -0.2715
     10  CB         9.9400   68.4690  185.3570 C.3     2  PHE2        0.0574
     11  CG         9.1720   68.0470  186.5560 C.ar    2  PHE2       -0.0200
     12  CD1        9.0230   68.9080  187.6330 C.ar    2  PHE2       -0.0042
     13  CD2        8.6350   66.7720  186.6370 C.ar    2  PHE2       -0.0042
     14  CE1        8.3200   68.5190  188.7730 C.ar    2  PHE2       -0.0003
     15  CE2        7.9310   66.3750  187.7600 C.ar    2  PHE2       -0.0003
     16  CZ         7.7580   67.2380  188.8170 C.ar    2  PHE2       -0.0000
     17  N         12.5230   66.6640  186.9270 N.am    3  THR3       -0.1951
     18  CA        13.0140   65.3650  187.2690 C.3     3  THR3        0.1897
     19  C         12.5620   64.9360  188.6580 C.2     3  THR3        0.2313
     20  O         12.7580   65.6530  189.6400 O.2     3  THR3       -0.2863
     21  CB        14.5530   65.3140  187.2050 C.3     3  THR3        0.1794
     22  OG1       15.0670   66.2370  188.1470 O.3     3  THR3       -0.2208
     23  CG2       15.0280   65.7260  185.8440 C.3     3  THR3        0.0378
     24  N         -0.1150   67.0530  190.7960 N.3    37  ILE37      -0.1245
     25  CA        -0.7270   65.7320  190.8160 C.3    37  ILE37       0.1561
     26  C          0.3140   64.7170  191.3090 C.2    37  ILE37       0.2260
     27  O          1.4580   64.6730  190.7910 O.2    37  ILE37      -0.2867
     28  CB        -1.2580   65.3380  189.4310 C.3    37  ILE37       0.0252
     29  CG1       -2.3550   66.3030  188.9760 C.3    37  ILE37       0.0019
     30  CG2       -1.8200   63.9430  189.4640 C.3    37  ILE37       0.0019
     31  CD1       -2.6520   66.2470  187.4830 C.3    37  ILE37       0.0001
     32  N          0.5760   60.5220  191.8820 N.3    39  TYR39      -0.1241
     33  CA        -0.0310   59.2150  191.6850 C.3    39  TYR39       0.1605
     34  C          0.9660   58.1160  192.0840 C.2    39  TYR39       0.2264
     35  O          2.1320   58.1410  191.6730 O.2    39  TYR39      -0.2867
     36  CB        -0.4610   59.1070  190.2390 C.3    39  TYR39       0.0534
     37  CG        -1.1390   57.8180  189.8550 C.ar   39  TYR39      -0.0201
     38  CD1       -0.3410   56.7680  189.4360 C.ar   39  TYR39      -0.0009
     39  CD2       -2.5070   57.6210  189.9240 C.ar   39  TYR39      -0.0009
     40  CE1       -0.8860   55.5380  189.1100 C.ar   39  TYR39       0.0417
     41  CE2       -3.0560   56.3710  189.5940 C.ar   39  TYR39       0.0417
     42  CZ        -2.2220   55.3480  189.1830 C.ar   39  TYR39       0.1957
     43  OH        -2.6920   54.1080  188.8450 O.3    39  TYR39      -0.2866
     44  N         -4.0280   58.7490  194.4960 N.3    49  GLN49      -0.1245
     45  CA        -4.3530   59.6260  193.3760 C.3    49  GLN49       0.1566
     46  C         -4.7120   60.9720  193.9520 C.2    49  GLN49       0.2260
     47  O         -5.8400   61.1860  194.3550 O.2    49  GLN49      -0.2867
     48  CB        -5.5070   59.0030  192.6140 C.3    49  GLN49       0.0367
     49  CG        -6.0670   59.7970  191.4390 C.3    49  GLN49       0.0905
     50  CD        -7.2580   59.0270  190.8250 C.2    49  GLN49       0.2608
     51  OE1       -7.2480   57.7970  190.7110 O.2    49  GLN49      -0.2717
     52  NE2       -8.2790   59.7550  190.4240 N.am   49  GLN49      -0.0878
     53  N         -4.9500   64.7920  193.3730 N.3    51  VAL51      -0.1245
     54  CA        -5.1200   65.7100  192.2370 C.3    51  VAL51       0.1561
     55  C         -5.5540   67.0960  192.7680 C.2    51  VAL51       0.2260
     56  O         -6.6320   67.2530  193.3440 O.2    51  VAL51      -0.2867
     57  CB        -6.1310   65.1900  191.2400 C.3    51  VAL51       0.0252
     58  CG1       -6.2930   66.1810  190.0760 C.3    51  VAL51       0.0019
     59  CG2       -5.7510   63.7690  190.7560 C.3    51  VAL51       0.0019
     60  N          4.3450   58.7160  190.1500 N.3    98  MET98      -0.1230
     61  CA         4.1430   59.5520  188.9790 C.3    98  MET98       0.1702
     62  C          3.7180   60.9350  189.4510 C.2    98  MET98       0.2592
     63  O          2.7460   61.0780  190.2310 O.2    98  MET98      -0.2718
     64  CB         3.0630   58.9550  188.0800 C.3    98  MET98       0.0401
     65  CG         3.2960   57.4740  187.8290 C.3    98  MET98       0.0596
     66  SD         2.3130   56.7250  186.5280 S.3    98  MET98      -0.1393
     67  CE         0.7240   57.4080  186.5390 C.3    98  MET98       0.0692
     68  N          4.4780   61.9480  189.0260 N.am   99  ILE99      -0.1966
     69  CA         4.2710   63.3350  189.5070 C.3    99  ILE99       0.1727
     70  C          4.1510   64.2830  188.3330 C.2    99  ILE99       0.2616
     71  O          5.0030   64.2740  187.4310 O.2    99  ILE99      -0.2715
     72  CB         5.4000   63.7710  190.4340 C.3    99  ILE99       0.0290
     73  CG1        5.5190   62.7420  191.5970 C.3    99  ILE99       0.0022
     74  CG2        5.1410   65.2110  190.9340 C.3    99  ILE99       0.0023
     75  CD1        6.4860   63.0960  192.6730 C.3    99  ILE99       0.0001
     76  N          3.0880   65.0880  188.3430 N.am  100  SER100     -0.1950
     77  CA         2.9310   66.1920  187.4250 C.3   100  SER100      0.1924
     78  C          2.9590   67.4800  188.2420 C.2   100  SER100      0.2314
     79  O          2.1330   67.6710  189.1770 O.2   100  SER100     -0.2863
     80  CB         1.6090   66.0620  186.6940 C.3   100  SER100      0.2116
     81  OG         1.3930   67.1810  185.8850 O.3   100  SER100     -0.2180
     82  N          6.4710   66.6410  184.0290 N.3   104  ALA104     -0.1231
     83  CA         6.0120   65.3100  184.4790 C.3   104  ALA104      0.1694
     84  C          7.1170   64.3030  184.3880 C.2   104  ALA104      0.2592
     85  O          7.9790   64.3690  183.4770 O.2   104  ALA104     -0.2718
     86  CB         4.7810   64.8760  183.7050 C.3   104  ALA104      0.0304
     87  N          7.1470   63.3940  185.3620 N.am  105  ASP105     -0.1960
     88  CA         8.1710   62.3550  185.4230 C.3   105  ASP105      0.1840
     89  C          7.6700   61.2390  186.3560 C.2   105  ASP105      0.2622
     90  O          6.6540   61.4160  187.0390 O.2   105  ASP105     -0.2715
     91  CB         9.4810   62.9530  185.9200 C.3   105  ASP105      0.1450
     92  CG        10.7110   62.0880  185.6080 C.2   105  ASP105      0.3671
     93  OD1       10.6350   61.2010  184.7390 O.co2 105  ASP105     -0.2456
     94  OD2       11.7780   62.2770  186.2740 O.co2 105  ASP105     -0.2456
     95  N          8.3650   60.1070  186.3780 N.am  106  TYR106     -0.1960
     96  CA         8.1010   59.0370  187.3400 C.3   106  TYR106      0.1771
     97  C          9.3480   58.2770  187.6540 C.2   106  TYR106      0.2619
     98  O         10.3220   58.3350  186.9010 O.2   106  TYR106     -0.2715
     99  CB         6.9900   58.1340  186.8350 C.3   106  TYR106      0.0574
    100  CG         7.4250   57.0630  185.8550 C.ar  106  TYR106     -0.0198
    101  CD1        7.8170   55.8010  186.3260 C.ar  106  TYR106     -0.0009
    102  CD2        7.3860   57.2760  184.4720 C.ar  106  TYR106     -0.0009
    103  CE1        8.2240   54.8100  185.4560 C.ar  106  TYR106      0.0417
    104  CE2        7.7970   56.2960  183.5870 C.ar  106  TYR106      0.0417
    105  CZ         8.2020   55.0560  184.0630 C.ar  106  TYR106      0.1957
    106  OH         8.6190   54.0580  183.2060 O.3   106  TYR106     -0.2866
    107  N          9.3580   57.6040  188.7960 N.am  107  LYS107     -0.1963
    108  CA        10.4370   56.6720  189.1540 C.3   107  LYS107      0.1728
    109  C          9.8570   55.3840  189.6990 C.2   107  LYS107      0.2616
    110  O          8.7250   55.3540  190.1980 O.2   107  LYS107     -0.2715
    111  CB        11.3720   57.2740  190.1810 C.3   107  LYS107      0.0311
    112  CG        12.3100   58.3730  189.6470 C.3   107  LYS107      0.0038
    113  CD        13.3680   57.7620  188.7260 C.3   107  LYS107      0.0206
    114  CE        14.5010   58.7220  188.3770 C.3   107  LYS107      0.1093
    115  NZ        13.9710   59.8390  187.5210 N.3   107  LYS107     -0.1314
    116  N         10.6460   54.3260  189.6360 N.am  108  ARG108     -0.1977
    117  CA        10.2820   53.0120  190.1680 C.3   108  ARG108      0.1597
    118  C         11.0130   52.7800  191.4700 C.2   108  ARG108      0.2287
    119  O         12.1750   53.1450  191.5960 O.2   108  ARG108     -0.2864
    120  CB        10.6860   51.9050  189.2060 C.3   108  ARG108      0.0334
    121  CG         9.9000   51.9200  187.9300 C.3   108  ARG108      0.0492
    122  CD        10.2060   50.8520  186.8970 C.3   108  ARG108      0.2205
    123  NE        11.6360   50.7790  186.6860 N.pl3 108  ARG108     -0.0865
    124  CZ        12.4480   49.8700  187.2390 C.cat 108  ARG108      0.5346
    125  NH1       11.9860   48.8480  187.9930 N.pl3 108  ARG108      0.1354
    126  NH2       13.7650   49.9430  186.9970 N.pl3 108  ARG108      0.1354
@<TRIPOS>BOND
     1     5     2    1
     2     1     2    1
     3     2     3    1
     4   106   105    1
     5    85    84    2
     6   104   105   ar
     7   104   102   ar
     8    86    83    1
     9    82    83    1
    10   105   103   ar
    11     3     6   am
    12     3     4    2
    13     6     7    1
    14    84    83    1
    15    84    87   am
    16   102   100   ar
    17    93    92   ar
    18     9     8    2
    19    10     7    1
    20    10    11    1
    21    87    88    1
    22    88    91    1
    23    88    89    1
    24   103   101   ar
    25     7     8    1
    26    92    91    1
    27    92    94   ar
    28     8    17   am
    29    23    21    1
    30   100   101   ar
    31   100    99    1
    32    81    80    1
    33    89    95   am
    34    89    90    2
    35    95    96    1
    36    66    67    1
    37    66    65    1
    38    11    13   ar
    39    11    12   ar
    40    13    15   ar
    41   123   122    1
    42   123   124    2
    43    80    77    1
    44    99    96    1
    45   122   121    1
    46    98    97    2
    47    17    18    1
    48   126   124    1
    49    21    18    1
    50    21    22    1
    51   124   125    1
    52    18    19    1
    53    96    97    1
    54    77    78    1
    55    77    76    1
    56    71    70    2
    57    31    29    1
    58   115   114    1
    59    12    14   ar
    60    97   107   am
    61    15    16   ar
    62    65    64    1
    63   121   120    1
    64    64    61    1
    65    78    79    2
    66    70    76   am
    67    70    69    1
    68   114   113    1
    69    19    20    2
    70   113   112    1
    71    14    16   ar
    72   107   108    1
    73    43    42    1
    74    29    28    1
    75    61    62    1
    76    61    60    1
    77    68    62   am
    78    68    69    1
    79    40    42   ar
    80    40    38   ar
    81   108   109    1
    82   108   111    1
    83    42    41   ar
    84   120   117    1
    85    28    30    1
    86    28    25    1
    87    38    37   ar
    88    62    63    2
    89    69    72    1
    90    41    39   ar
    91   116   109   am
    92   116   117    1
    93   112   111    1
    94   109   110    2
    95    37    39   ar
    96    37    36    1
    97    58    57    1
    98   117   118    1
    99    36    33    1
   100    52    50   am
   101    72    74    1
   102    72    73    1
   103    51    50    2
   104    59    57    1
   105    27    26    2
   106    24    25    1
   107    25    26    1
   108    50    49    1
   109    57    54    1
   110    49    48    1
   111   118   119    2
   112    73    75    1
   113    35    34    2
   114    33    32    1
   115    33    34    1
   116    54    55    1
   117    54    53    1
   118    48    45    1
   119    55    56    2
   120    45    46    1
   121    45    44    1
   122    46    47    2
