@<TRIPOS>MOLECULE
tmp/5niwA03.pdb
 81 79 0 0 0
SMALL
GASTEIGER

@<TRIPOS>ATOM
      1  N         31.9170  169.0610   70.3150 N.3    79  GLU79      -0.1231
      2  CA        33.1010  168.2410   70.1080 C.3    79  GLU79       0.1699
      3  C         33.8830  168.1200   71.3950 C.2    79  GLU79       0.2593
      4  O         34.0290  169.1130   72.1530 O.2    79  GLU79      -0.2718
      5  CB        33.9560  168.8490   69.0330 C.3    79  GLU79       0.0402
      6  CG        33.1990  168.9250   67.7280 C.3    79  GLU79       0.1161
      7  CD        33.8770  169.7290   66.6220 C.2    79  GLU79       0.3649
      8  OE1       33.1960  170.6240   66.0510 O.co2  79  GLU79      -0.2457
      9  OE2       35.0740  169.4320   66.3910 O.co2  79  GLU79      -0.2457
     10  N         34.3260  166.8910   71.6740 N.am   80  THR80      -0.1939
     11  CA        35.2060  166.6480   72.7860 C.3    80  THR80       0.2028
     12  C         36.6660  167.1050   72.4040 C.2    80  THR80       0.2642
     13  O         37.0420  167.3780   71.2400 O.2    80  THR80      -0.2714
     14  CB        35.2700  165.1560   73.1910 C.3    80  THR80       0.1808
     15  OG1       35.9900  164.3950   72.1960 O.3    80  THR80      -0.2208
     16  CG2       33.8690  164.6520   73.3660 C.3    80  THR80       0.0379
     17  N         37.5130  167.0920   73.4190 N.am   81  VAL81      -0.1963
     18  CA        38.9610  167.1920   73.1630 C.3    81  VAL81       0.1727
     19  C         39.4100  165.9710   72.3910 C.2    81  VAL81       0.2616
     20  O         38.6880  164.9600   72.2530 O.2    81  VAL81      -0.2715
     21  CB        39.7590  167.2350   74.4680 C.3    81  VAL81       0.0290
     22  CG1       39.2780  168.4440   75.3020 C.3    81  VAL81       0.0023
     23  CG2       39.6260  165.9350   75.2630 C.3    81  VAL81       0.0023
     24  N         40.6710  165.9650   72.0110 N.am   82  GLU82      -0.1977
     25  CA        41.2170  164.7060   71.4070 C.3    82  GLU82       0.1602
     26  C         41.3320  163.6880   72.5620 C.2    82  GLU82       0.2287
     27  O         42.1380  163.9010   73.4510 O.2    82  GLU82      -0.2864
     28  CB        42.6150  164.9970   70.7890 C.3    82  GLU82       0.0415
     29  CG        43.3040  163.7240   70.3170 C.3    82  GLU82       0.1163
     30  CD        44.7410  163.9310   69.7220 C.2    82  GLU82       0.3649
     31  OE1       45.1730  165.0930   69.4680 O.co2  82  GLU82      -0.2457
     32  OE2       45.4750  162.9160   69.6480 O.co2  82  GLU82      -0.2457
     33  N         38.7280  162.9790   68.3340 N.3    89  THR89      -0.1218
     34  CA        37.6210  163.6210   69.0040 C.3    89  THR89       0.1862
     35  C         36.3280  162.8550   68.8070 C.2    89  THR89       0.2287
     36  O         36.1830  162.1750   67.8120 O.2    89  THR89      -0.2866
     37  CB        37.4490  165.0730   68.5110 C.3    89  THR89       0.1770
     38  OG1       37.0740  165.0400   67.2100 O.3    89  THR89      -0.2211
     39  CG2       38.7750  165.8330   68.4640 C.3    89  THR89       0.0375
     40  N         38.0320  177.5550   77.2520 N.3   436  LEU436     -0.1231
     41  CA        39.4050  177.7300   76.7430 C.3   436  LEU436      0.1693
     42  C         39.6360  179.1560   76.2450 C.2   436  LEU436      0.2592
     43  O         40.7280  179.4250   75.7100 O.2   436  LEU436     -0.2718
     44  CB        39.7060  176.8500   75.5840 C.3   436  LEU436      0.0284
     45  CG        39.7350  175.3760   75.9180 C.3   436  LEU436      0.0019
     46  CD1       39.7560  174.5410   74.6160 C.3   436  LEU436      0.0001
     47  CD2       40.9850  175.1100   76.7780 C.3   436  LEU436      0.0001
     48  N         38.6700  180.0480   76.4530 N.am  437  ASP437     -0.1974
     49  CA        38.7330  181.4170   75.9650 C.3   437  ASP437      0.1709
     50  C         37.8100  182.2330   76.8380 C.2   437  ASP437      0.2293
     51  O         36.9090  181.6850   77.3770 O.2   437  ASP437     -0.2864
     52  CB        38.2480  181.5510   74.4590 C.3   437  ASP437      0.1436
     53  CG        38.6040  182.8920   73.8830 C.2   437  ASP437      0.3671
     54  OD1       39.7520  183.0080   73.5180 O.co2 437  ASP437     -0.2456
     55  OD2       37.7850  183.8160   73.7750 O.co2 437  ASP437     -0.2456
     56  N         34.5750  178.0580   72.5400 N.3   444  HIS444     -0.1226
     57  CA        35.8170  177.4120   72.4930 C.3   444  HIS444      0.1752
     58  C         36.0020  176.8220   73.8740 C.2   444  HIS444      0.2596
     59  O         36.3220  177.5370   74.8480 O.2   444  HIS444     -0.2718
     60  CB        36.9040  178.3990   72.2050 C.3   444  HIS444      0.0759
     61  CG        38.2770  177.8110   72.0410 C.ar  444  HIS444      0.0818
     62  ND1       38.5250  176.6160   71.4010 N.ar  444  HIS444     -0.2268
     63  CD2       39.4830  178.2720   72.4870 C.ar  444  HIS444      0.1154
     64  CE1       39.8420  176.3950   71.4090 C.ar  444  HIS444      0.1986
     65  NE2       40.4430  177.3770   72.0790 N.ar  444  HIS444     -0.2212
     66  N         35.8690  175.4980   73.9420 N.am  445  PHE445     -0.1962
     67  CA        35.8730  174.8160   75.2980 C.3   445  PHE445      0.1771
     68  C         36.4080  173.4320   75.1640 C.2   445  PHE445      0.2619
     69  O         36.4430  172.8390   74.0690 O.2   445  PHE445     -0.2715
     70  CB        34.4860  174.8300   75.9330 C.3   445  PHE445      0.0574
     71  CG        33.4690  174.0800   75.0590 C.ar  445  PHE445     -0.0200
     72  CD1       33.4520  172.6790   75.0190 C.ar  445  PHE445     -0.0042
     73  CD2       32.6330  174.7890   74.2060 C.ar  445  PHE445     -0.0042
     74  CE1       32.6260  171.9840   74.1040 C.ar  445  PHE445     -0.0003
     75  CE2       31.7580  174.1480   73.3430 C.ar  445  PHE445     -0.0003
     76  CZ        31.7740  172.7330   73.2750 C.ar  445  PHE445     -0.0000
     77  N         36.9600  172.9350   76.2790 N.am  446  ALA446     -0.1977
     78  CA        37.4910  171.6220   76.3710 C.3   446  ALA446      0.1597
     79  C         36.5500  170.7410   77.1500 C.2   446  ALA446      0.2287
     80  O         36.4060  170.8760   78.3940 O.2   446  ALA446     -0.2864
     81  CB        38.8630  171.6240   77.0920 C.3   446  ALA446      0.0319
@<TRIPOS>BOND
     1     8     7   ar
     2     9     7   ar
     3     7     6    1
     4    38    37    1
     5     6     5    1
     6    36    35    2
     7    33    34    1
     8    39    37    1
     9    37    34    1
    10    35    34    1
    11     5     2    1
    12    31    30   ar
    13    32    30   ar
    14    30    29    1
    15     2     1    1
    16     2     3    1
    17    29    28    1
    18    28    25    1
    19    13    12    2
    20     3    10   am
    21     3     4    2
    22    62    64   ar
    23    62    61   ar
    24    25    24    1
    25    25    26    1
    26    64    65   ar
    27    10    11    1
    28    24    19   am
    29    61    60    1
    30    61    63   ar
    31    65    63   ar
    32    15    14    1
    33    60    57    1
    34    20    19    2
    35    19    18    1
    36    12    11    1
    37    12    17   am
    38    57    56    1
    39    57    58    1
    40    26    27    2
    41    11    14    1
    42    18    17    1
    43    18    21    1
    44    14    16    1
    45    76    75   ar
    46    76    74   ar
    47    75    73   ar
    48    54    53   ar
    49    55    53   ar
    50    58    66   am
    51    58    59    2
    52    53    52    1
    53    66    67    1
    54    69    68    2
    55    74    72   ar
    56    73    71   ar
    57    52    49    1
    58    21    23    1
    59    21    22    1
    60    46    45    1
    61    72    71   ar
    62    71    70    1
    63    68    67    1
    64    68    77   am
    65    67    70    1
    66    44    45    1
    67    44    41    1
    68    43    42    2
    69    45    47    1
    70    49    48    1
    71    49    50    1
    72    42    48   am
    73    42    41    1
    74    77    78    1
    75    78    81    1
    76    78    79    1
    77    41    40    1
    78    50    51    2
    79    79    80    2
