@<TRIPOS>MOLECULE
tmp/5niyA00.pdb
 143 133 0 0 0
SMALL
GASTEIGER

@<TRIPOS>ATOM
      1  N          3.0360   -5.6620    4.2140 N.3   105  VAL105     -0.1231
      2  CA         2.2720   -5.3100    3.0220 C.3   105  VAL105      0.1692
      3  C          1.1000   -4.4180    3.4080 C.2   105  VAL105      0.2592
      4  O          0.7780   -4.2650    4.5950 O.2   105  VAL105     -0.2718
      5  CB         1.7870   -6.5670    2.2770 C.3   105  VAL105      0.0266
      6  CG1        2.9430   -7.5120    2.0310 C.3   105  VAL105      0.0020
      7  CG2        0.7000   -7.2550    3.0700 C.3   105  VAL105      0.0020
      8  N          0.4820   -3.7920    2.4120 N.am  106  ASN106     -0.1960
      9  CA        -0.7240   -3.0160    2.6580 C.3   106  ASN106      0.1819
     10  C         -1.9010   -3.9370    2.9750 C.2   106  ASN106      0.2622
     11  O         -1.9670   -5.0780    2.5130 O.2   106  ASN106     -0.2715
     12  CB        -1.0500   -2.1450    1.4410 C.3   106  ASN106      0.1195
     13  CG         0.0720   -1.1810    1.1060 C.2   106  ASN106      0.2630
     14  OD1        0.7980   -0.7250    1.9930 O.2   106  ASN106     -0.2716
     15  ND2        0.2260   -0.8690   -0.1760 N.am  106  ASN106     -0.0877
     16  N         -2.8270   -3.4350    3.7850 N.am  107  GLY107     -0.1940
     17  CA        -4.0930   -4.1160    4.0010 C.3   107  GLY107      0.2014
     18  C         -4.1120   -5.1900    5.0690 C.2   107  GLY107      0.2639
     19  O         -5.1190   -5.9040    5.1800 O.2   107  GLY107     -0.2714
     20  N         -3.0490   -5.3360    5.8550 N.am  108  VAL108     -0.1963
     21  CA        -2.9920   -6.3850    6.8750 C.3   108  VAL108      0.1727
     22  C         -2.9680   -5.8090    8.2920 C.2   108  VAL108      0.2617
     23  O         -2.6770   -6.5300    9.2440 O.2   108  VAL108     -0.2715
     24  CB        -1.8050   -7.3380    6.6440 C.3   108  VAL108      0.0290
     25  CG1       -1.9650   -8.0640    5.3070 C.3   108  VAL108      0.0023
     26  CG2       -0.4730   -6.5870    6.7430 C.3   108  VAL108      0.0023
     27  N         -3.2830   -4.5320    8.4520 N.am  109  GLY109     -0.1940
     28  CA        -3.4010   -3.9440    9.7650 C.3   109  GLY109      0.2014
     29  C         -2.2790   -3.0250   10.1910 C.2   109  GLY109      0.2639
     30  O         -2.1850   -2.7240   11.3860 O.2   109  GLY109     -0.2714
     31  N         -1.4480   -2.5430    9.2620 N.am  110  LYS110     -0.1963
     32  CA        -0.2710   -1.7810    9.6700 C.3   110  LYS110      0.1728
     33  C         -0.6510   -0.4160   10.2420 C.2   110  LYS110      0.2617
     34  O         -0.1850   -0.0420   11.3240 O.2   110  LYS110     -0.2715
     35  CB         0.6990   -1.6260    8.4890 C.3   110  LYS110      0.0311
     36  CG         2.0550   -1.1270    8.9220 C.3   110  LYS110      0.0038
     37  CD         2.9030   -0.6630    7.7490 C.3   110  LYS110      0.0206
     38  CE         3.2370   -1.7500    6.7810 C.3   110  LYS110      0.1093
     39  NZ         3.7630   -1.1360    5.4870 N.3   110  LYS110     -0.1314
     40  N         -1.4680    0.3670    9.5230 N.am  111  THR111     -0.1937
     41  CA        -1.7840    1.7040   10.0330 C.3   111  THR111      0.2028
     42  C         -2.6710    1.6360   11.2740 C.2   111  THR111      0.2643
     43  O         -2.5310    2.4730   12.1690 O.2   111  THR111     -0.2714
     44  CB        -2.4500    2.5850    8.9740 C.3   111  THR111      0.1808
     45  OG1       -3.6350    1.9460    8.4850 O.3   111  THR111     -0.2208
     46  CG2       -1.4850    2.8900    7.8190 C.3   111  THR111      0.0379
     47  N         -3.5800    0.6600   11.3510 N.am  112  THR112     -0.1936
     48  CA        -4.3500    0.4660   12.5840 C.3   112  THR112      0.2028
     49  C         -3.4370    0.1260   13.7530 C.2   112  THR112      0.2642
     50  O         -3.6200    0.6290   14.8750 O.2   112  THR112     -0.2714
     51  CB        -5.3910   -0.6390   12.3860 C.3   112  THR112      0.1808
     52  OG1       -6.4070   -0.1800   11.4960 O.3   112  THR112     -0.2208
     53  CG2       -6.0440   -1.0360   13.7180 C.3   112  THR112      0.0379
     54  N         -2.4580   -0.7440   13.5220 N.am  113  THR113     -0.1950
     55  CA        -1.5310   -1.0940   14.5850 C.3   113  THR113      0.1897
     56  C         -0.7280    0.1270   15.0150 C.2   113  THR113      0.2313
     57  O         -0.5010    0.3310   16.2120 O.2   113  THR113     -0.2863
     58  CB        -0.6240   -2.2430   14.1270 C.3   113  THR113      0.1794
     59  OG1       -1.4270   -3.4090   13.8600 O.3   113  THR113     -0.2208
     60  CG2        0.4110   -2.5940   15.1670 C.3   113  THR113      0.0378
     61  N         -3.0460    2.1870   17.3410 N.3   116  LYS116     -0.1245
     62  CA        -3.2380    1.5550   18.6560 C.3   116  LYS116      0.1561
     63  C         -1.9670    1.6210   19.4970 C.2   116  LYS116      0.2260
     64  O         -2.0260    1.9440   20.6970 O.2   116  LYS116     -0.2867
     65  CB        -3.6850    0.0990   18.4950 C.3   116  LYS116      0.0271
     66  CG        -5.0930   -0.0690   17.9210 C.3   116  LYS116      0.0035
     67  CD        -5.5450   -1.5370   18.0040 C.3   116  LYS116      0.0206
     68  CE        -6.9660   -1.7540   17.4600 C.3   116  LYS116      0.1093
     69  NZ        -7.4860   -3.1380   17.7970 N.3   116  LYS116     -0.1314
     70  N          1.3570    6.5860   -1.0510 N.3   137  ARG137     -0.1245
     71  CA        -0.0500    6.3300   -0.7520 C.3   137  ARG137      0.1563
     72  C         -0.5850    7.5610   -0.0290 C.2   137  ARG137      0.2260
     73  O         -0.5580    7.6410    1.1990 O.2   137  ARG137     -0.2867
     74  CB        -0.2190    5.0590    0.0770 C.3   137  ARG137      0.0307
     75  CG         0.0570    3.7880   -0.7110 C.3   137  ARG137      0.0489
     76  CD        -0.8700    2.6700   -0.2700 C.3   137  ARG137      0.2205
     77  NE        -0.7060    2.3570    1.1440 N.pl3 137  ARG137     -0.0865
     78  CZ        -1.6240    1.7420    1.8830 C.cat 137  ARG137      0.5346
     79  NH1       -2.7810    1.3880    1.3380 N.pl3 137  ARG137      0.1354
     80  NH2       -1.3910    1.4890    3.1670 N.pl3 137  ARG137      0.1354
     81  N         -2.9830    6.9190    2.7910 N.3   140  ALA140     -0.1245
     82  CA        -2.3550    6.4690    4.0280 C.3   140  ALA140      0.1562
     83  C         -1.6940    7.6260    4.7650 C.2   140  ALA140      0.2260
     84  O         -1.7900    7.7240    5.9930 O.2   140  ALA140     -0.2867
     85  CB        -1.3320    5.3730    3.7300 C.3   140  ALA140      0.0290
     86  N         -4.3390    9.8060    6.2610 N.3   143  GLN143     -0.1245
     87  CA        -4.9260    9.1340    7.4160 C.3   143  GLN143      0.1566
     88  C         -4.1090    9.3890    8.6770 C.2   143  GLN143      0.2260
     89  O         -4.6570    9.7620    9.7180 O.2   143  GLN143     -0.2867
     90  CB        -5.0460    7.6370    7.1510 C.3   143  GLN143      0.0367
     91  CG        -5.4870    6.8490    8.3690 C.3   143  GLN143      0.0905
     92  CD        -6.2950    5.6300    8.0000 C.2   143  GLN143      0.2608
     93  OE1       -5.9620    4.5130    8.3900 O.2   143  GLN143     -0.2717
     94  NE2       -7.3710    5.8360    7.2430 N.am  143  GLN143     -0.0878
     95  N         -2.2540   -9.7050   13.6390 N.3   250  THR250     -0.1203
     96  CA        -3.5690   -9.1050   13.8120 C.3   250  THR250      0.1994
     97  C         -4.6960  -10.0810   13.4660 C.2   250  THR250      0.2617
     98  O         -4.4900  -11.1200   12.8280 O.2   250  THR250     -0.2717
     99  CB        -3.7040   -7.8550   12.9410 C.3   250  THR250      0.1784
    100  OG1       -3.6540   -8.2420   11.5660 O.3   250  THR250     -0.2211
    101  CG2       -2.5660   -6.8770   13.2200 C.3   250  THR250      0.0376
    102  N         -5.9070   -9.7120   13.8980 N.am  251  LYS251     -0.1979
    103  CA        -7.1630  -10.3280   13.4500 C.3   251  LYS251      0.1596
    104  C         -7.2220  -11.8160   13.7920 C.2   251  LYS251      0.2287
    105  O         -7.6220  -12.6510   12.9790 O.2   251  LYS251     -0.2864
    106  CB        -7.3860  -10.1000   11.9500 C.3   251  LYS251      0.0298
    107  CG        -7.5210   -8.6370   11.5760 C.3   251  LYS251      0.0038
    108  CD        -7.7090   -8.4670   10.0840 C.3   251  LYS251      0.0206
    109  CE        -6.9230   -7.2620    9.5820 C.3   251  LYS251      0.1093
    110  NZ        -7.0100   -7.0870    8.0990 N.3   251  LYS251     -0.1314
    111  N         -9.2540  -12.7250   16.2180 N.3   253  ASP253     -0.1239
    112  CA       -10.6570  -12.8990   16.5560 C.3   253  ASP253      0.1674
    113  C        -11.4730  -13.1560   15.2990 C.2   253  ASP253      0.2266
    114  O        -11.3930  -12.3980   14.3270 O.2   253  ASP253     -0.2867
    115  CB       -11.1880  -11.6700   17.2890 C.3   253  ASP253      0.1410
    116  CG       -10.9110  -10.3790   16.5450 C.2   253  ASP253      0.3668
    117  OD1       -9.8270  -10.2610   15.9250 O.co2 253  ASP253     -0.2456
    118  OD2      -11.7770   -9.4780   16.5900 O.co2 253  ASP253     -0.2456
    119  N         -3.5700   -9.1920   17.8960 N.3   276  GLY276     -0.1225
    120  CA        -4.8090   -8.4360   17.8420 C.3   276  GLY276      0.1811
    121  C         -6.0160   -9.3180   18.0970 C.2   276  GLY276      0.2280
    122  O         -6.2780  -10.2200   17.3050 O.2   276  GLY276     -0.2866
    123  N         -9.2410   -8.0460   19.0450 N.3   278  GLY278     -0.1210
    124  CA       -10.4810   -7.3020   18.9900 C.3   278  GLY278      0.1956
    125  C        -10.2180   -5.9520   18.3600 C.2   278  GLY278      0.2611
    126  O         -9.1160   -5.6780   17.8820 O.2   278  GLY278     -0.2717
    127  N        -11.2410   -5.1030   18.3610 N.am  279  GLU279     -0.1979
    128  CA       -11.1280   -3.8270   17.6730 C.3   279  GLU279      0.1602
    129  C        -10.7370   -2.6800   18.5880 C.2   279  GLU279      0.2287
    130  O        -10.4460   -1.5890   18.0840 O.2   279  GLU279     -0.2864
    131  CB       -12.4450   -3.4780   16.9680 C.3   279  GLU279      0.0415
    132  CG       -12.7190   -4.2850   15.7060 C.3   279  GLU279      0.1163
    133  CD       -12.8710   -5.7630   15.9850 C.2   279  GLU279      0.3649
    134  OE1      -12.0670   -6.5500   15.4480 O.co2 279  GLU279     -0.2457
    135  OE2      -13.7760   -6.1390   16.7610 O.co2 279  GLU279     -0.2457
    136  N         -5.2180   -4.8550   21.1320 N.3   284  LEU284     -0.1245
    137  CA        -3.8730   -5.1570   20.6380 C.3   284  LEU284      0.1561
    138  C         -3.0580   -5.5050   21.8720 C.2   284  LEU284      0.2260
    139  O         -2.5460   -4.6280   22.5720 O.2   284  LEU284     -0.2867
    140  CB        -3.2690   -3.9780   19.8810 C.3   284  LEU284      0.0270
    141  CG        -1.8720   -4.2360   19.2990 C.3   284  LEU284      0.0019
    142  CD1       -1.9240   -5.3520   18.2520 C.3   284  LEU284      0.0001
    143  CD2       -1.2760   -2.9360   18.7080 C.3   284  LEU284      0.0001
@<TRIPOS>BOND
     1    70    71    1
     2    71    72    1
     3    71    74    1
     4    75    76    1
     5    75    74    1
     6    76    77    1
     7    15    13   am
     8    72    73    2
     9    13    12    1
    10    13    14    2
    11    77    78    2
    12    79    78    1
    13    12     9    1
    14    78    80    1
    15     6     5    1
    16     5     2    1
    17     5     7    1
    18     8     9    1
    19     8     3   am
    20    11    10    2
    21     9    10    1
    22    81    82    1
    23    10    16   am
    24     2     3    1
    25     2     1    1
    26     3     4    2
    27    85    82    1
    28    16    17    1
    29    17    18    1
    30    82    83    1
    31    83    84    2
    32    18    19    2
    33    18    20   am
    34    25    24    1
    35    39    38    1
    36    20    21    1
    37    86    87    1
    38    24    26    1
    39    24    21    1
    40    38    37    1
    41    21    22    1
    42    90    87    1
    43    90    91    1
    44    94    92   am
    45    87    88    1
    46    37    36    1
    47    46    44    1
    48    92    91    1
    49    92    93    2
    50   110   109    1
    51    22    27   am
    52    22    23    2
    53    27    28    1
    54    45    44    1
    55    35    36    1
    56    35    32    1
    57    88    89    2
    58    44    41    1
    59    31    32    1
    60    31    29   am
    61    40    41    1
    62    40    33   am
    63   109   108    1
    64    32    33    1
    65    28    29    1
    66    41    42    1
    67   108   107    1
    68    29    30    2
    69    33    34    2
    70    42    47   am
    71    42    43    2
    72    47    48    1
    73    52    51    1
    74   100    99    1
    75   107   106    1
    76   106   103    1
    77    51    48    1
    78    51    53    1
    79    48    49    1
    80    98    97    2
    81    99   101    1
    82    99    96    1
    83   105   104    2
    84   103   104    1
    85   103   102    1
    86    97    96    1
    87    97   102   am
    88    54    49   am
    89    54    55    1
    90    95    96    1
    91    49    50    2
    92    59    58    1
    93    58    55    1
    94    58    60    1
    95   114   113    2
    96    55    56    1
    97    56    57    2
    98   113   112    1
    99   134   133   ar
   100   132   133    1
   101   132   131    1
   102   117   116   ar
   103   133   135   ar
   104   111   112    1
   105   116   118   ar
   106   116   115    1
   107   112   115    1
   108   131   128    1
   109   122   121    2
   110    61    62    1
   111    68    69    1
   112    68    67    1
   113   128   127    1
   114   128   129    1
   115   120   119    1
   116   120   121    1
   117   126   125    2
   118    66    67    1
   119    66    65    1
   120   130   129    2
   121   142   141    1
   122   125   127   am
   123   125   124    1
   124    65    62    1
   125    62    63    1
   126   143   141    1
   127   124   123    1
   128   141   140    1
   129    63    64    2
   130   140   137    1
   131   137   136    1
   132   137   138    1
   133   138   139    2
