@<TRIPOS>MOLECULE
tmp/5nizA00.pdb
 219 214 0 0 0
SMALL
GASTEIGER

@<TRIPOS>ATOM
      1  N         -5.9670  -34.7950    3.2560 N.3    65  LEU65      -0.1245
      2  CA        -5.6750  -33.5310    3.9000 C.3    65  LEU65       0.1561
      3  C         -4.6470  -33.7630    5.0100 C.2    65  LEU65       0.2260
      4  O         -3.6870  -32.9990    5.1330 O.2    65  LEU65      -0.2867
      5  CB        -6.9690  -32.8580    4.4210 C.3    65  LEU65       0.0270
      6  CG        -6.8090  -31.6070    5.2910 C.3    65  LEU65       0.0019
      7  CD1       -6.1440  -30.5310    4.4820 C.3    65  LEU65       0.0001
      8  CD2       -8.1290  -31.1080    5.8390 C.3    65  LEU65       0.0001
      9  N         -1.2270  -33.9780    3.3260 N.3    68  LEU68      -0.1245
     10  CA        -0.7650  -32.6430    3.0150 C.3    68  LEU68       0.1561
     11  C         -0.2390  -31.9260    4.2490 C.2    68  LEU68       0.2260
     12  O          0.8250  -31.2840    4.1960 O.2    68  LEU68      -0.2867
     13  CB        -1.9280  -31.8220    2.4370 C.3    68  LEU68       0.0270
     14  CG        -1.7160  -30.8670    1.3060 C.3    68  LEU68       0.0019
     15  CD1       -0.8180  -31.5190    0.2510 C.3    68  LEU68       0.0001
     16  CD2       -3.1020  -30.4840    0.7510 C.3    68  LEU68       0.0001
     17  N         -0.4020  -22.9120   -1.2850 N.3    80  MET80      -0.1182
     18  CA        -0.7390  -23.6920   -0.0890 C.3    80  MET80       0.1917
     19  C         -2.2810  -23.9590   -0.0170 C.2    80  MET80       0.2634
     20  O         -2.7380  -25.1270    0.0910 O.2    80  MET80      -0.2714
     21  CB        -0.2260  -23.0470    1.2380 C.2    80  MET80       0.0083
     22  CG        -0.8640  -23.6020    2.5290 C.2    80  MET80       0.0282
     23  SD        -0.5500  -22.8940    4.2170 S.3    80  MET80      -0.1125
     24  CE        -1.4110  -21.3310    4.2180 C.3    80  MET80       0.0742
     25  N         -3.0700  -22.8850   -0.0890 N.am   81  TRP81      -0.1973
     26  CA        -4.5250  -23.0240   -0.0210 C.3    81  TRP81       0.1640
     27  C         -5.0650  -23.7720   -1.2320 C.2    81  TRP81       0.2290
     28  O         -5.9060  -24.6700   -1.0790 O.2    81  TRP81      -0.2864
     29  CB        -5.1790  -21.6560    0.1260 C.3    81  TRP81       0.0576
     30  CG        -4.8610  -21.0080    1.4300 C.ar   81  TRP81       0.0006
     31  CD1       -3.9860  -19.9830    1.6450 C.ar   81  TRP81       0.0946
     32  CD2       -5.3660  -21.3660    2.7060 C.ar   81  TRP81       0.0152
     33  NE1       -3.9330  -19.6570    2.9790 N.ar   81  TRP81      -0.2442
     34  CE2       -4.7770  -20.4850    3.6570 C.ar   81  TRP81       0.0810
     35  CE3       -6.2720  -22.3180    3.1490 C.ar   81  TRP81       0.0012
     36  CZ2       -5.0640  -20.5460    4.9900 C.ar   81  TRP81       0.0191
     37  CZ3       -6.5200  -22.3920    4.5030 C.ar   81  TRP81       0.0001
     38  CH2       -5.9460  -21.5020    5.3920 C.ar   81  TRP81       0.0015
     39  N         -4.7700  -27.4760   -0.7960 N.3    84  GLY84      -0.1210
     40  CA        -5.7560  -28.0040    0.1270 C.3    84  GLY84       0.1956
     41  C         -7.1700  -28.0990   -0.4340 C.2    84  GLY84       0.2611
     42  O         -7.8510  -29.1410   -0.3400 O.2    84  GLY84      -0.2717
     43  N         -7.6380  -27.0060   -1.0260 N.am   85  ILE85      -0.1979
     44  CA        -8.9370  -27.0530   -1.6740 C.3    85  ILE85       0.1595
     45  C         -8.9570  -28.1630   -2.7780 C.2    85  ILE85       0.2287
     46  O         -9.9660  -28.8540   -2.9930 O.2    85  ILE85      -0.2864
     47  CB        -9.2780  -25.6680   -2.2540 C.3    85  ILE85       0.0276
     48  CG1       -9.3640  -24.6400   -1.1140 C.3    85  ILE85       0.0022
     49  CG2      -10.5830  -25.7160   -2.9980 C.3    85  ILE85       0.0022
     50  CD1       -9.3290  -23.2160   -1.5790 C.3    85  ILE85       0.0001
     51  N        -10.2630  -31.6540   -2.0680 N.3    88  PHE88      -0.1241
     52  CA       -11.7040  -31.8600   -2.1080 C.3    88  PHE88       0.1605
     53  C        -12.2520  -31.9060   -3.5220 C.2    88  PHE88       0.2264
     54  O        -13.1090  -32.7320   -3.8810 O.2    88  PHE88      -0.2867
     55  CB       -12.3680  -30.7620   -1.2410 C.3    88  PHE88       0.0534
     56  CG       -12.0590  -30.9550    0.1960 C.ar   88  PHE88      -0.0203
     57  CD1      -12.6990  -31.9670    0.8780 C.ar   88  PHE88      -0.0042
     58  CD2      -10.9770  -30.3550    0.7990 C.ar   88  PHE88      -0.0042
     59  CE1      -12.3920  -32.2680    2.1710 C.ar   88  PHE88      -0.0003
     60  CE2      -10.6790  -30.6320    2.1070 C.ar   88  PHE88      -0.0003
     61  CZ       -11.3900  -31.6080    2.7960 C.ar   88  PHE88      -0.0000
     62  N        -13.8070  -35.5560   -4.2010 N.3    92  PHE92      -0.1241
     63  CA       -15.2370  -35.6160   -4.4590 C.3    92  PHE92       0.1605
     64  C        -15.5830  -35.6150   -5.9410 C.2    92  PHE92       0.2264
     65  O        -16.5860  -36.2310   -6.3710 O.2    92  PHE92      -0.2867
     66  CB       -15.9400  -34.4710   -3.7060 C.3    92  PHE92       0.0534
     67  CG       -15.9360  -34.6750   -2.2280 C.ar   92  PHE92      -0.0203
     68  CD1      -16.7840  -35.6160   -1.6540 C.ar   92  PHE92      -0.0042
     69  CD2      -15.0890  -34.0100   -1.4190 C.ar   92  PHE92      -0.0042
     70  CE1      -16.7650  -35.8680   -0.2900 C.ar   92  PHE92      -0.0003
     71  CE2      -15.0570  -34.2680   -0.0510 C.ar   92  PHE92      -0.0003
     72  CZ       -15.8870  -35.1840    0.5150 C.ar   92  PHE92      -0.0000
     73  N        -21.1180  -38.4040   -4.0320 N.3    99  THR99      -0.1218
     74  CA       -21.1310  -37.0930   -3.4030 C.3    99  THR99       0.1862
     75  C        -22.4940  -36.4640   -3.4800 C.2    99  THR99       0.2287
     76  O        -23.0150  -36.0140   -2.4880 O.2    99  THR99      -0.2866
     77  CB       -20.1350  -36.1740   -4.1130 C.3    99  THR99       0.1770
     78  OG1      -18.8450  -36.6220   -3.8150 O.3    99  THR99      -0.2211
     79  CG2      -20.2280  -34.7540   -3.6090 C.3    99  THR99       0.0375
     80  N        -25.1320  -35.9860   -0.3240 N.3   103  GLN103     -0.1245
     81  CA       -25.7110  -34.6850    0.0330 C.3   103  GLN103      0.1566
     82  C        -27.2420  -34.7350    0.0480 C.2   103  GLN103      0.2260
     83  O        -27.8390  -34.2840    1.0030 O.2   103  GLN103     -0.2867
     84  CB       -25.1720  -33.5600   -0.8690 C.3   103  GLN103      0.0367
     85  CG       -23.7340  -33.1610   -0.5640 C.3   103  GLN103      0.0905
     86  CD       -23.5400  -32.4580    0.7860 C.2   103  GLN103      0.2608
     87  OE1      -24.4880  -31.9990    1.4180 O.2   103  GLN103     -0.2717
     88  NE2      -22.3010  -32.3500    1.2140 N.am  103  GLN103     -0.0878
     89  N        -21.4420  -36.0570    7.6860 N.3   116  TRP116     -0.1241
     90  CA       -21.0800  -34.7580    7.1060 C.3   116  TRP116      0.1605
     91  C        -20.7280  -33.7160    8.1670 C.2   116  TRP116      0.2264
     92  O        -19.7110  -33.0040    8.0780 O.2   116  TRP116     -0.2867
     93  CB       -22.1770  -34.2470    6.1970 C.3   116  TRP116      0.0550
     94  CG       -22.1490  -34.7730    4.8350 C.ar  116  TRP116      0.0003
     95  CD1      -23.1180  -35.5190    4.2240 C.ar  116  TRP116      0.0946
     96  CD2      -21.1430  -34.5220    3.8330 C.ar  116  TRP116      0.0152
     97  NE1      -22.7680  -35.7670    2.9140 N.ar  116  TRP116     -0.2442
     98  CE2      -21.5570  -35.1780    2.6550 C.ar  116  TRP116      0.0810
     99  CE3      -19.9480  -33.7920    3.8170 C.ar  116  TRP116      0.0012
    100  CZ2      -20.8030  -35.1340    1.4690 C.ar  116  TRP116      0.0191
    101  CZ3      -19.1970  -33.7590    2.6480 C.ar  116  TRP116      0.0001
    102  CH2      -19.6200  -34.4340    1.5000 C.ar  116  TRP116      0.0015
    103  N        -17.1080  -31.9300    8.5340 N.3   120  MET120     -0.1245
    104  CA       -17.1180  -30.4640    8.3120 C.3   120  MET120      0.1570
    105  C        -16.5430  -29.7540    9.5550 C.2   120  MET120      0.2261
    106  O        -15.7190  -28.8280    9.4280 O.2   120  MET120     -0.2867
    107  CB       -18.5030  -29.9430    7.8900 C.3   120  MET120      0.0387
    108  CG       -18.9320  -30.2180    6.4610 C.3   120  MET120      0.0595
    109  SD       -17.7970  -29.4870    5.2720 S.3   120  MET120     -0.1393
    110  CE       -18.0400  -27.7520    5.5850 C.3   120  MET120      0.0692
    111  N        -12.7170  -30.1030    9.4070 N.3   123  TRP123     -0.1241
    112  CA       -12.0430  -29.3680    8.3830 C.3   123  TRP123      0.1605
    113  C        -12.1150  -27.8540    8.6280 C.2   123  TRP123      0.2264
    114  O        -11.1660  -27.1250    8.3490 O.2   123  TRP123     -0.2867
    115  CB       -12.7020  -29.7110    7.0600 C.3   123  TRP123      0.0550
    116  CG       -12.5680  -31.1710    6.7110 C.ar  123  TRP123      0.0003
    117  CD1      -11.5070  -31.9800    7.0330 C.ar  123  TRP123      0.0946
    118  CD2      -13.4840  -31.9830    5.9370 C.ar  123  TRP123      0.0152
    119  NE1      -11.7490  -33.2460    6.5730 N.ar  123  TRP123     -0.2442
    120  CE2      -12.9350  -33.2710    5.8720 C.ar  123  TRP123      0.0810
    121  CE3      -14.6990  -31.7370    5.2760 C.ar  123  TRP123      0.0012
    122  CZ2      -13.5410  -34.3040    5.1440 C.ar  123  TRP123      0.0191
    123  CZ3      -15.3450  -32.7930    4.6170 C.ar  123  TRP123      0.0001
    124  CH2      -14.7390  -34.0410    4.5150 C.ar  123  TRP123      0.0015
    125  N         -9.5050  -27.1680   11.3980 N.3   126  TYR126     -0.1227
    126  CA        -8.1870  -27.1390   10.7900 C.3   126  TYR126      0.1736
    127  C         -7.9120  -25.8400   10.0520 C.2   126  TYR126      0.2596
    128  O         -6.8770  -25.2130   10.2610 O.2   126  TYR126     -0.2718
    129  CB        -8.0050  -28.4170    9.9060 C.3   126  TYR126      0.0548
    130  CG        -6.6710  -28.4450    9.2770 C.ar  126  TYR126     -0.0200
    131  CD1       -5.5200  -28.5220   10.0670 C.ar  126  TYR126     -0.0009
    132  CD2       -6.5280  -28.2230    7.9190 C.ar  126  TYR126     -0.0009
    133  CE1       -4.2450  -28.4280    9.5130 C.ar  126  TYR126      0.0417
    134  CE2       -5.2620  -28.1610    7.3400 C.ar  126  TYR126      0.0417
    135  CZ        -4.1250  -28.2540    8.1430 C.ar  126  TYR126      0.1957
    136  OH        -2.8700  -28.1880    7.5840 O.3   126  TYR126     -0.2866
    137  N         -8.8740  -25.4000    9.2400 N.am  127  THR127     -0.1953
    138  CA        -8.8070  -24.1420    8.5060 C.3   127  THR127      0.1897
    139  C         -8.5860  -22.9860    9.4680 C.2   127  THR127      0.2313
    140  O         -7.6640  -22.1970    9.3360 O.2   127  THR127     -0.2863
    141  CB       -10.1440  -23.9060    7.7300 C.3   127  THR127      0.1794
    142  OG1      -10.3900  -24.9800    6.7970 O.3   127  THR127     -0.2208
    143  CG2      -10.0760  -22.6090    6.9810 C.3   127  THR127      0.0378
    144  N         -5.0480  -22.9160   10.8100 N.3   130  VAL130     -0.1245
    145  CA        -4.0570  -22.3890    9.8630 C.3   130  VAL130      0.1561
    146  C         -4.1300  -20.8580    9.8030 C.2   130  VAL130      0.2260
    147  O         -3.1020  -20.1430    9.8760 O.2   130  VAL130     -0.2867
    148  CB        -4.1920  -23.0560    8.4430 C.3   130  VAL130      0.0252
    149  CG1       -3.2110  -22.4630    7.4380 C.3   130  VAL130      0.0019
    150  CG2       -3.9750  -24.5630    8.5330 C.3   130  VAL130      0.0019
    151  N        -15.6160  -22.6220    4.1910 N.3   154  ASN154     -0.1240
    152  CA       -15.8260  -24.0770    3.9640 C.3   154  ASN154      0.1653
    153  C        -17.2370  -24.3730    3.4160 C.2   154  ASN154      0.2266
    154  O        -17.4550  -25.2730    2.6110 O.2   154  ASN154     -0.2867
    155  CB       -15.5480  -24.8490    5.2520 C.3   154  ASN154      0.1155
    156  CG       -14.1030  -25.2320    5.3690 C.2   154  ASN154      0.2627
    157  OD1      -13.6780  -26.2310    4.7400 O.2   154  ASN154     -0.2716
    158  ND2      -13.3200  -24.4170    6.0330 N.am  154  ASN154     -0.0877
    159  N        -17.3190  -23.5390   -0.2410 N.3   157  ASN157     -0.1225
    160  CA       -16.7330  -24.5900   -1.0520 C.3   157  ASN157      0.1785
    161  C        -17.6700  -25.7530   -1.2100 C.2   157  ASN157      0.2597
    162  O        -17.7780  -26.2880   -2.2870 O.2   157  ASN157     -0.2718
    163  CB       -15.4220  -25.1190   -0.4810 C.3   157  ASN157      0.1169
    164  CG       -14.2970  -24.1850   -0.6830 C.2   157  ASN157      0.2627
    165  OD1      -14.4740  -23.0090   -0.9860 O.2   157  ASN157     -0.2716
    166  ND2      -13.1140  -24.6690   -0.4160 N.am  157  ASN157     -0.0877
    167  N        -18.2770  -26.2140   -0.1260 N.am  158  GLU158     -0.1979
    168  CA       -19.2810  -27.2960   -0.1960 C.3   158  GLU158      0.1602
    169  C        -20.3590  -26.9910   -1.2440 C.2   158  GLU158      0.2287
    170  O        -20.6430  -27.8300   -2.1170 O.2   158  GLU158     -0.2864
    171  CB       -19.9490  -27.5000    1.1590 C.3   158  GLU158      0.0415
    172  CG       -20.9000  -28.7000    1.2280 C.3   158  GLU158      0.1163
    173  CD       -21.3780  -29.0320    2.6680 C.2   158  GLU158      0.3649
    174  OE1      -22.0310  -28.1880    3.2820 O.co2 158  GLU158     -0.2457
    175  OE2      -21.1110  -30.1510    3.1920 O.co2 158  GLU158     -0.2457
    176  N        -18.6860  -26.4520   -4.9910 N.3   161  LEU161     -0.1231
    177  CA       -18.2880  -27.7410   -5.5510 C.3   161  LEU161      0.1693
    178  C        -19.4610  -28.6050   -5.9840 C.2   161  LEU161      0.2592
    179  O        -19.4820  -29.0810   -7.1320 O.2   161  LEU161     -0.2718
    180  CB       -17.3820  -28.5140   -4.5910 C.3   161  LEU161      0.0284
    181  CG       -15.9930  -27.8600   -4.4730 C.3   161  LEU161      0.0019
    182  CD1      -15.1730  -28.5650   -3.3880 C.3   161  LEU161      0.0001
    183  CD2      -15.2380  -27.8700   -5.8060 C.3   161  LEU161      0.0001
    184  N        -20.4500  -28.7400   -5.1140 N.am  162  PHE162     -0.1976
    185  CA       -21.6780  -29.5440   -5.3560 C.3   162  PHE162      0.1639
    186  C        -22.3960  -28.9940   -6.5760 C.2   162  PHE162      0.2290
    187  O        -22.7890  -29.7610   -7.4760 O.2   162  PHE162     -0.2864
    188  CB       -22.5830  -29.5440   -4.1110 C.3   162  PHE162      0.0560
    189  CG       -23.9030  -30.2710   -4.2610 C.ar  162  PHE162     -0.0200
    190  CD1      -25.0370  -29.6050   -4.7270 C.ar  162  PHE162     -0.0042
    191  CD2      -24.0350  -31.6220   -3.8760 C.ar  162  PHE162     -0.0042
    192  CE1      -26.2490  -30.2610   -4.8440 C.ar  162  PHE162     -0.0003
    193  CE2      -25.2590  -32.2790   -3.9850 C.ar  162  PHE162     -0.0003
    194  CZ       -26.3590  -31.6050   -4.4740 C.ar  162  PHE162     -0.0000
    195  N        -20.2620  -29.7650   -9.7850 N.3   165  PHE165     -0.1241
    196  CA       -20.2480  -31.1620  -10.1460 C.3   165  PHE165      0.1605
    197  C        -21.5770  -31.5970  -10.7030 C.2   165  PHE165      0.2264
    198  O        -21.6090  -32.4770  -11.5270 O.2   165  PHE165     -0.2867
    199  CB       -20.0040  -32.0410   -8.9410 C.3   165  PHE165      0.0534
    200  CG       -18.6450  -31.9280   -8.3710 C.ar  165  PHE165     -0.0203
    201  CD1      -17.5570  -31.5210   -9.1400 C.ar  165  PHE165     -0.0042
    202  CD2      -18.4350  -32.2810   -7.0460 C.ar  165  PHE165     -0.0042
    203  CE1      -16.2830  -31.4610   -8.5850 C.ar  165  PHE165     -0.0003
    204  CE2      -17.1660  -32.1960   -6.4920 C.ar  165  PHE165     -0.0003
    205  CZ       -16.0980  -31.8010   -7.2700 C.ar  165  PHE165     -0.0000
    206  N        -10.7840  -17.3240   -0.9300 N.3   185  TRP185     -0.1241
    207  CA       -10.0350  -17.7190    0.3060 C.3   185  TRP185      0.1605
    208  C         -8.8800  -16.7600    0.5770 C.2   185  TRP185      0.2264
    209  O         -8.7230  -16.2600    1.6950 O.2   185  TRP185     -0.2867
    210  CB        -9.5370  -19.1620    0.2360 C.3   185  TRP185      0.0550
    211  CG       -10.5770  -20.1420    0.5430 C.ar  185  TRP185      0.0003
    212  CD1      -11.7840  -20.3150   -0.1220 C.ar  185  TRP185      0.0946
    213  CD2      -10.5100  -21.2010    1.4920 C.ar  185  TRP185      0.0152
    214  NE1      -12.4680  -21.3430    0.4110 N.ar  185  TRP185     -0.2442
    215  CE2      -11.7490  -21.8810    1.4420 C.ar  185  TRP185      0.0810
    216  CE3       -9.5930  -21.5700    2.4570 C.ar  185  TRP185      0.0012
    217  CZ2      -12.0390  -22.9920    2.2400 C.ar  185  TRP185      0.0191
    218  CZ3       -9.9110  -22.6830    3.2820 C.ar  185  TRP185      0.0001
    219  CH2      -11.1180  -23.3540    3.1770 C.ar  185  TRP185      0.0015
@<TRIPOS>BOND
     1   198   197    2
     2   197   196    1
     3   196   195    1
     4   196   199    1
     5   201   203   ar
     6   201   200   ar
     7   199   200    1
     8   203   205   ar
     9   200   202   ar
    10   187   186    2
    11   205   204   ar
    12   179   178    2
    13   202   204   ar
    14   186   185    1
    15    65    64    2
    16   178   177    1
    17   178   184   am
    18    64    63    1
    19   183   181    1
    20   177   176    1
    21   177   180    1
    22   185   184    1
    23   185   188    1
    24   192   190   ar
    25   192   194   ar
    26   190   189   ar
    27   180   181    1
    28   194   193   ar
    29   181   182    1
    30    63    62    1
    31    63    66    1
    32   189   188    1
    33   189   191   ar
    34    77    78    1
    35    77    79    1
    36    77    74    1
    37    73    74    1
    38   193   191   ar
    39    54    53    2
    40    66    67    1
    41    53    52    1
    42    75    74    1
    43    75    76    2
    44    49    47    1
    45    46    45    2
    46    45    44    1
    47   162   161    2
    48    47    44    1
    49    47    48    1
    50    67    68   ar
    51    67    69   ar
    52   170   169    2
    53    52    51    1
    54    52    55    1
    55    44    43    1
    56    68    70   ar
    57    50    48    1
    58    69    71   ar
    59    17    18    1
    60   169   168    1
    61    55    56    1
    62    27    28    2
    63    27    26    1
    64   161   160    1
    65   161   167   am
    66   160   163    1
    67   160   159    1
    68    43    41   am
    69   165   164    2
    70   206   207    1
    71    84    85    1
    72    84    81    1
    73    39    40    1
    74   164   163    1
    75   164   166   am
    76    85    86    1
    77    41    42    2
    78    41    40    1
    79    80    81    1
    80    70    72   ar
    81   168   167    1
    82   168   171    1
    83   212   214   ar
    84   212   211   ar
    85    25    26    1
    86    25    19   am
    87    18    19    1
    88    18    21    1
    89    71    72   ar
    90    26    29    1
    91    19    20    2
    92    81    82    1
    93    82    83    2
    94    29    30    1
    95    56    58   ar
    96    56    57   ar
    97   210   207    1
    98   210   211    1
    99    15    14    1
   100   207   208    1
   101   214   215   ar
   102   211   213   ar
   103   208   209    2
   104    16    14    1
   105    86    88   am
   106    86    87    2
   107    58    60   ar
   108    57    59   ar
   109   171   172    1
   110   172   173    1
   111    21    22    2
   112    14    13    1
   113    30    31   ar
   114    30    32   ar
   115   215   213   ar
   116   215   217   ar
   117   100   102   ar
   118   100    98   ar
   119   213   216   ar
   120   102   101   ar
   121    31    33   ar
   122    60    61   ar
   123    59    61   ar
   124   217   219   ar
   125    13    10    1
   126   216   218   ar
   127    22    23    1
   128   154   153    2
   129   101    99   ar
   130    98    97   ar
   131    98    96   ar
   132   173   175   ar
   133   173   174   ar
   134    32    35   ar
   135    32    34   ar
   136    97    95   ar
   137    33    34   ar
   138    10     9    1
   139    10    11    1
   140    35    37   ar
   141   219   218   ar
   142     1     2    1
   143   153   152    1
   144    34    36   ar
   145    99    96   ar
   146    96    94   ar
   147     2     5    1
   148     2     3    1
   149   152   151    1
   150   152   155    1
   151    12    11    2
   152    23    24    1
   153    95    94   ar
   154     5     6    1
   155     7     6    1
   156    37    38   ar
   157   124   123   ar
   158   124   122   ar
   159   123   121   ar
   160   157   156    2
   161    94    93    1
   162    36    38   ar
   163     3     4    2
   164   122   120   ar
   165   155   156    1
   166   109   110    1
   167   109   108    1
   168   121   118   ar
   169     6     8    1
   170   156   158   am
   171   120   118   ar
   172   120   119   ar
   173   118   116   ar
   174    93    90    1
   175   108   107    1
   176   119   117   ar
   177   116   117   ar
   178   116   115    1
   179   142   141    1
   180   143   141    1
   181   115   112    1
   182    90    89    1
   183    90    91    1
   184   134   132   ar
   185   134   135   ar
   186   149   148    1
   187   136   135    1
   188   141   138    1
   189   107   104    1
   190   132   130   ar
   191    92    91    2
   192   135   133   ar
   193   104   103    1
   194   104   105    1
   195   114   113    2
   196   112   113    1
   197   112   111    1
   198   148   150    1
   199   148   145    1
   200   138   137    1
   201   138   139    1
   202   137   127   am
   203   130   129    1
   204   130   131   ar
   205   140   139    2
   206   106   105    2
   207   133   131   ar
   208   146   145    1
   209   146   147    2
   210   145   144    1
   211   129   126    1
   212   127   128    2
   213   127   126    1
   214   126   125    1
