@<TRIPOS>MOLECULE
tmp/5nj0A00.pdb
 192 189 0 0 0
SMALL
GASTEIGER

@<TRIPOS>ATOM
      1  N         -6.7260  -35.4340    3.2030 N.3    65  LEU65      -0.1245
      2  CA        -6.4200  -34.1440    3.7820 C.3    65  LEU65       0.1561
      3  C         -5.4000  -34.2730    4.9660 C.2    65  LEU65       0.2260
      4  O         -4.4940  -33.4350    5.1050 O.2    65  LEU65      -0.2867
      5  CB        -7.6860  -33.4630    4.2550 C.3    65  LEU65       0.0270
      6  CG        -7.4430  -32.1390    4.9730 C.3    65  LEU65       0.0019
      7  CD1       -6.8330  -31.0990    4.0310 C.3    65  LEU65       0.0001
      8  CD2       -8.7530  -31.6600    5.5980 C.3    65  LEU65       0.0001
      9  N         -1.8120  -34.4540    3.4980 N.3    68  LEU68      -0.1245
     10  CA        -1.3300  -33.0970    3.2890 C.3    68  LEU68       0.1561
     11  C         -0.9000  -32.4050    4.5610 C.2    68  LEU68       0.2260
     12  O          0.0940  -31.6750    4.5630 O.2    68  LEU68      -0.2867
     13  CB        -2.4230  -32.2190    2.6860 C.3    68  LEU68       0.0270
     14  CG        -2.6360  -32.3380    1.2120 C.3    68  LEU68       0.0019
     15  CD1       -3.6890  -31.3070    0.8230 C.3    68  LEU68       0.0001
     16  CD2       -1.3190  -32.1030    0.4720 C.3    68  LEU68       0.0001
     17  N         -1.1730  -23.5210   -1.0270 N.3    80  MET80      -0.1230
     18  CA        -1.5060  -24.3730    0.1160 C.3    80  MET80       0.1702
     19  C         -3.0430  -24.5830    0.2050 C.2    80  MET80       0.2592
     20  O         -3.5410  -25.7110    0.3860 O.2    80  MET80      -0.2718
     21  CB        -0.9550  -23.7460    1.4250 C.3    80  MET80       0.0401
     22  CG        -1.4230  -24.4400    2.7150 C.3    80  MET80       0.0596
     23  SD        -1.2280  -23.5080    4.2840 S.3    80  MET80      -0.1393
     24  CE        -2.3180  -22.0890    4.0980 C.3    80  MET80       0.0692
     25  N         -3.7880  -23.4760    0.1040 N.am   81  TRP81      -0.1976
     26  CA        -5.2260  -23.5560    0.1290 C.3    81  TRP81       0.1640
     27  C         -5.7190  -24.3460   -1.0690 C.2    81  TRP81       0.2290
     28  O         -6.5650  -25.2220   -0.9140 O.2    81  TRP81      -0.2864
     29  CB        -5.8710  -22.1390    0.2090 C.3    81  TRP81       0.0576
     30  CG        -5.5950  -21.4780    1.5450 C.ar   81  TRP81       0.0006
     31  CD1       -4.7610  -20.4290    1.7600 C.ar   81  TRP81       0.0946
     32  CD2       -6.0750  -21.8860    2.8390 C.ar   81  TRP81       0.0152
     33  NE1       -4.6940  -20.1380    3.1100 N.ar   81  TRP81      -0.2442
     34  CE2       -5.4900  -21.0210    3.7910 C.ar   81  TRP81       0.0810
     35  CE3       -6.9370  -22.9100    3.2870 C.ar   81  TRP81       0.0012
     36  CZ2       -5.7860  -21.0930    5.1470 C.ar   81  TRP81       0.0191
     37  CZ3       -7.2010  -23.0170    4.6160 C.ar   81  TRP81       0.0001
     38  CH2       -6.6230  -22.1120    5.5550 C.ar   81  TRP81       0.0015
     39  N         -5.2790  -28.1590   -0.7310 N.3    84  GLY84      -0.1210
     40  CA        -6.2430  -28.7820    0.1900 C.3    84  GLY84       0.1956
     41  C         -7.6560  -28.8220   -0.3530 C.2    84  GLY84       0.2611
     42  O         -8.3760  -29.8490   -0.2650 O.2    84  GLY84      -0.2717
     43  N         -8.1280  -27.6970   -0.8610 N.am   85  ILE85      -0.1979
     44  CA        -9.4570  -27.7440   -1.5410 C.3    85  ILE85       0.1595
     45  C         -9.4880  -28.8530   -2.6380 C.2    85  ILE85       0.2287
     46  O        -10.4860  -29.6040   -2.7850 O.2    85  ILE85      -0.2864
     47  CB        -9.8770  -26.3770   -2.1050 C.3    85  ILE85       0.0276
     48  CG1      -10.0480  -25.3820   -0.9530 C.3    85  ILE85       0.0022
     49  CG2      -11.1850  -26.5230   -2.8690 C.3    85  ILE85       0.0022
     50  CD1      -10.1480  -23.9300   -1.3550 C.3    85  ILE85       0.0001
     51  N        -10.7220  -32.3470   -2.0630 N.3    88  PHE88      -0.1241
     52  CA       -12.1480  -32.5730   -2.0640 C.3    88  PHE88       0.1605
     53  C        -12.6550  -32.6050   -3.5090 C.2    88  PHE88       0.2264
     54  O        -13.5100  -33.4350   -3.8450 O.2    88  PHE88      -0.2867
     55  CB       -12.8310  -31.5420   -1.1300 C.3    88  PHE88       0.0534
     56  CG       -12.5110  -31.7890    0.3190 C.ar   88  PHE88      -0.0203
     57  CD1      -11.3300  -31.3480    0.8640 C.ar   88  PHE88      -0.0042
     58  CD2      -13.3150  -32.5800    1.0900 C.ar   88  PHE88      -0.0042
     59  CE1      -10.9640  -31.6650    2.1730 C.ar   88  PHE88      -0.0003
     60  CE2      -13.0190  -32.8370    2.4160 C.ar   88  PHE88      -0.0003
     61  CZ       -11.8210  -32.3920    2.9600 C.ar   88  PHE88      -0.0000
     62  N        -14.3320  -36.1580   -4.3370 N.3    92  PHE92      -0.1241
     63  CA       -15.7840  -36.2380   -4.5420 C.3    92  PHE92       0.1605
     64  C        -16.0570  -36.2290   -6.0230 C.2    92  PHE92       0.2264
     65  O        -17.0370  -36.8400   -6.5010 O.2    92  PHE92      -0.2867
     66  CB       -16.4820  -35.0510   -3.8680 C.3    92  PHE92       0.0534
     67  CG       -16.5450  -35.1670   -2.3850 C.ar   92  PHE92      -0.0203
     68  CD1      -17.2970  -36.1760   -1.8030 C.ar   92  PHE92      -0.0042
     69  CD2      -15.9290  -34.2730   -1.5820 C.ar   92  PHE92      -0.0042
     70  CE1      -17.3520  -36.3040   -0.4130 C.ar   92  PHE92      -0.0003
     71  CE2      -15.9720  -34.3980   -0.2040 C.ar   92  PHE92      -0.0003
     72  CZ       -16.6370  -35.4270    0.3890 C.ar   92  PHE92      -0.0000
     73  N        -22.1400  -36.7540    7.6670 N.3   116  TRP116     -0.1241
     74  CA       -21.7640  -35.5800    6.9170 C.3   116  TRP116      0.1605
     75  C        -21.4120  -34.4650    7.9140 C.2   116  TRP116      0.2264
     76  O        -20.3240  -33.8840    7.8710 O.2   116  TRP116     -0.2867
     77  CB       -22.8640  -35.1680    5.8980 C.3   116  TRP116      0.0550
     78  CG       -22.3320  -34.1210    5.0310 C.ar  116  TRP116      0.0003
     79  CD1      -22.5320  -32.7540    5.1440 C.ar  116  TRP116      0.0946
     80  CD2      -21.3270  -34.2890    4.0550 C.ar  116  TRP116      0.0152
     81  NE1      -21.7900  -32.0860    4.2060 N.ar  116  TRP116     -0.2442
     82  CE2      -21.0150  -33.0020    3.5450 C.ar  116  TRP116      0.0810
     83  CE3      -20.6760  -35.4040    3.5240 C.ar  116  TRP116      0.0012
     84  CZ2      -20.0920  -32.8200    2.5300 C.ar  116  TRP116      0.0191
     85  CZ3      -19.7930  -35.2210    2.5130 C.ar  116  TRP116      0.0001
     86  CH2      -19.4740  -33.9430    2.0470 C.ar  116  TRP116      0.0015
     87  N        -17.8620  -32.5420    8.4820 N.3   120  MET120     -0.1245
     88  CA       -17.8440  -31.0830    8.2410 C.3   120  MET120      0.1570
     89  C        -17.2420  -30.3880    9.4660 C.2   120  MET120      0.2261
     90  O        -16.3750  -29.5350    9.3390 O.2   120  MET120     -0.2867
     91  CB       -19.2640  -30.5650    7.9210 C.3   120  MET120      0.0387
     92  CG       -19.7730  -30.9680    6.5400 C.3   120  MET120      0.0595
     93  SD       -18.7880  -30.2080    5.1860 S.3   120  MET120     -0.1393
     94  CE       -19.2690  -28.4700    5.3290 C.3   120  MET120      0.0692
     95  N        -13.5250  -30.7510    9.3710 N.3   123  TRP123     -0.1241
     96  CA       -12.8500  -29.9960    8.2790 C.3   123  TRP123      0.1605
     97  C        -12.8630  -28.5020    8.5670 C.2   123  TRP123      0.2264
     98  O        -11.8890  -27.7840    8.3690 O.2   123  TRP123     -0.2867
     99  CB       -13.5380  -30.3430    6.9340 C.3   123  TRP123      0.0550
    100  CG       -13.4120  -31.7870    6.5860 C.ar  123  TRP123      0.0003
    101  CD1      -12.4010  -32.6440    6.9610 C.ar  123  TRP123      0.0946
    102  CD2      -14.2810  -32.5380    5.7640 C.ar  123  TRP123      0.0152
    103  NE1      -12.6160  -33.8710    6.4420 N.ar  123  TRP123     -0.2442
    104  CE2      -13.7550  -33.8470    5.6940 C.ar  123  TRP123      0.0810
    105  CE3      -15.4790  -32.2580    5.1150 C.ar  123  TRP123      0.0012
    106  CZ2      -14.4050  -34.8800    5.0120 C.ar  123  TRP123      0.0191
    107  CZ3      -16.1150  -33.2880    4.4040 C.ar  123  TRP123      0.0001
    108  CH2      -15.5660  -34.5750    4.3600 C.ar  123  TRP123      0.0015
    109  N        -10.2740  -27.9030   11.3070 N.3   126  TYR126     -0.1227
    110  CA        -8.9290  -27.8620   10.6930 C.3   126  TYR126      0.1736
    111  C         -8.6980  -26.5590    9.9010 C.2   126  TYR126      0.2596
    112  O         -7.6670  -25.8780   10.0240 O.2   126  TYR126     -0.2718
    113  CB        -8.6940  -29.1080    9.8360 C.3   126  TYR126      0.0548
    114  CG        -7.3300  -29.1020    9.2360 C.ar  126  TYR126     -0.0200
    115  CD1       -6.1930  -29.2400   10.0320 C.ar  126  TYR126     -0.0009
    116  CD2       -7.1530  -28.9280    7.8790 C.ar  126  TYR126     -0.0009
    117  CE1       -4.9170  -29.1920    9.4860 C.ar  126  TYR126      0.0417
    118  CE2       -5.8780  -28.9140    7.3170 C.ar  126  TYR126      0.0417
    119  CZ        -4.7620  -29.0430    8.1180 C.ar  126  TYR126      0.1957
    120  OH        -3.4970  -28.9900    7.5350 O.3   126  TYR126     -0.2866
    121  N         -9.7100  -26.1440    9.1730 N.am  127  THR127     -0.1953
    122  CA        -9.6050  -24.8910    8.4670 C.3   127  THR127      0.1897
    123  C         -9.3310  -23.7330    9.4320 C.2   127  THR127      0.2313
    124  O         -8.4950  -22.8440    9.1550 O.2   127  THR127     -0.2863
    125  CB       -10.8980  -24.6020    7.6670 C.3   127  THR127      0.1794
    126  OG1      -11.0600  -25.5760    6.6170 O.3   127  THR127     -0.2208
    127  CG2      -10.8370  -23.2060    7.0330 C.3   127  THR127      0.0378
    128  N         -5.7700  -23.7380   10.7720 N.3   130  VAL130     -0.1245
    129  CA        -4.8460  -23.1920    9.8190 C.3   130  VAL130      0.1561
    130  C         -4.9540  -21.6760    9.7070 C.2   130  VAL130      0.2260
    131  O         -3.9310  -20.9880    9.7000 O.2   130  VAL130     -0.2867
    132  CB        -4.9630  -23.8560    8.4250 C.3   130  VAL130      0.0252
    133  CG1       -3.9550  -23.2140    7.5000 C.3   130  VAL130      0.0019
    134  CG2       -4.7430  -25.3860    8.4940 C.3   130  VAL130      0.0019
    135  N        -16.3610  -23.3970    4.2060 N.3   154  ASN154     -0.1240
    136  CA       -16.6430  -24.8390    4.0110 C.3   154  ASN154      0.1653
    137  C        -18.0200  -25.1070    3.4720 C.2   154  ASN154      0.2266
    138  O        -18.2030  -26.0060    2.5840 O.2   154  ASN154     -0.2867
    139  CB       -16.4180  -25.6390    5.3100 C.3   154  ASN154      0.1155
    140  CG       -14.9580  -26.0990    5.4690 C.2   154  ASN154      0.2627
    141  OD1      -14.6230  -27.1890    5.0630 O.2   154  ASN154     -0.2716
    142  ND2      -14.1250  -25.2790    6.0710 N.am  154  ASN154     -0.0877
    143  N        -17.9580  -24.2640   -0.1670 N.3   157  ASN157     -0.1225
    144  CA       -17.3300  -25.3070   -0.9560 C.3   157  ASN157      0.1785
    145  C        -18.3000  -26.5220   -1.1320 C.2   157  ASN157      0.2597
    146  O        -18.4020  -27.1360   -2.2190 O.2   157  ASN157     -0.2718
    147  CB       -16.0020  -25.7450   -0.3400 C.3   157  ASN157      0.1169
    148  CG       -14.8980  -24.7660   -0.5600 C.2   157  ASN157      0.2627
    149  OD1      -15.1030  -23.5870   -0.9060 O.2   157  ASN157     -0.2716
    150  ND2      -13.6690  -25.2490   -0.3530 N.am  157  ASN157     -0.0877
    151  N        -18.9850  -26.8700   -0.0560 N.am  158  GLU158     -0.1979
    152  CA       -19.9500  -27.9370   -0.0940 C.3   158  GLU158      0.1602
    153  C        -20.9690  -27.7230   -1.2110 C.2   158  GLU158      0.2287
    154  O        -21.0970  -28.5300   -2.1450 O.2   158  GLU158     -0.2864
    155  CB       -20.6890  -28.0640    1.2310 C.3   158  GLU158      0.0415
    156  CG       -21.7390  -29.1700    1.2140 C.3   158  GLU158      0.1163
    157  CD       -22.6390  -29.1450    2.4200 C.2   158  GLU158      0.3649
    158  OE1      -22.1440  -29.2490    3.5340 O.co2 158  GLU158     -0.2457
    159  OE2      -23.8580  -29.0720    2.2490 O.co2 158  GLU158     -0.2457
    160  N        -19.2360  -27.0730   -4.9320 N.3   161  LEU161     -0.1231
    161  CA       -18.7660  -28.2950   -5.5380 C.3   161  LEU161      0.1693
    162  C        -19.8700  -29.2030   -6.0100 C.2   161  LEU161      0.2592
    163  O        -19.8310  -29.6360   -7.1860 O.2   161  LEU161     -0.2718
    164  CB       -17.7120  -29.0450   -4.7020 C.3   161  LEU161      0.0284
    165  CG       -16.3790  -28.3120   -4.6270 C.3   161  LEU161      0.0019
    166  CD1      -15.5440  -28.8370   -3.4840 C.3   161  LEU161      0.0001
    167  CD2      -15.5980  -28.3780   -5.9310 C.3   161  LEU161      0.0001
    168  N        -20.8530  -29.4580   -5.1660 N.am  162  PHE162     -0.1976
    169  CA       -21.9580  -30.3560   -5.5170 C.3   162  PHE162      0.1639
    170  C        -22.7960  -29.8220   -6.6590 C.2   162  PHE162      0.2290
    171  O        -23.0450  -30.5440   -7.6050 O.2   162  PHE162     -0.2864
    172  CB       -22.8200  -30.7370   -4.3010 C.3   162  PHE162      0.0560
    173  CG       -22.0470  -31.5340   -3.2450 C.ar  162  PHE162     -0.0200
    174  CD1      -20.8810  -32.2540   -3.5710 C.ar  162  PHE162     -0.0042
    175  CD2      -22.4130  -31.5040   -1.9040 C.ar  162  PHE162     -0.0042
    176  CE1      -20.1490  -32.9320   -2.5860 C.ar  162  PHE162     -0.0003
    177  CE2      -21.6950  -32.2230   -0.9320 C.ar  162  PHE162     -0.0003
    178  CZ       -20.5790  -32.9380   -1.2700 C.ar  162  PHE162     -0.0000
    179  N        -11.3790  -17.9400   -0.9540 N.3   185  TRP185     -0.1241
    180  CA       -10.7240  -18.3500    0.2990 C.3   185  TRP185      0.1605
    181  C         -9.5630  -17.4100    0.6020 C.2   185  TRP185      0.2264
    182  O         -9.4410  -16.9020    1.7130 O.2   185  TRP185     -0.2867
    183  CB       -10.2050  -19.8040    0.2760 C.3   185  TRP185      0.0550
    184  CG       -11.2420  -20.8840    0.5710 C.ar  185  TRP185      0.0003
    185  CD1      -12.4090  -21.0680   -0.0710 C.ar  185  TRP185      0.0946
    186  CD2      -11.1960  -21.8990    1.5840 C.ar  185  TRP185      0.0152
    187  NE1      -13.1080  -22.1210    0.4660 N.ar  185  TRP185     -0.2442
    188  CE2      -12.4050  -22.6240    1.5130 C.ar  185  TRP185      0.0810
    189  CE3      -10.2590  -22.2660    2.5580 C.ar  185  TRP185      0.0012
    190  CZ2      -12.6840  -23.6980    2.3430 C.ar  185  TRP185      0.0191
    191  CZ3      -10.5880  -23.3030    3.4430 C.ar  185  TRP185      0.0001
    192  CH2      -11.7670  -24.0020    3.3260 C.ar  185  TRP185      0.0015
@<TRIPOS>BOND
     1   171   170    2
     2   163   162    2
     3   170   169    1
     4    65    64    2
     5    64    63    1
     6   162   161    1
     7   162   168   am
     8   167   165    1
     9   161   160    1
    10   161   164    1
    11   169   168    1
    12   169   172    1
    13   164   165    1
    14   165   166    1
    15    63    62    1
    16    63    66    1
    17   172   173    1
    18    66    67    1
    19    54    53    2
    20   174   173   ar
    21   174   176   ar
    22    53    52    1
    23   173   175   ar
    24    49    47    1
    25    46    45    2
    26    45    44    1
    27   176   178   ar
    28    67    68   ar
    29    67    69   ar
    30   146   145    2
    31   154   153    2
    32    47    44    1
    33    47    48    1
    34    52    51    1
    35    52    55    1
    36   175   177   ar
    37    68    70   ar
    38    69    71   ar
    39    44    43    1
    40    50    48    1
    41   178   177   ar
    42   153   152    1
    43   145   144    1
    44   145   151   am
    45    55    56    1
    46    27    28    2
    47    27    26    1
    48    17    18    1
    49   144   147    1
    50   144   143    1
    51   179   180    1
    52   149   148    2
    53    43    41   am
    54    39    40    1
    55   148   150   am
    56   148   147    1
    57    70    72   ar
    58    41    42    2
    59    41    40    1
    60    71    72   ar
    61   152   151    1
    62   152   155    1
    63   185   187   ar
    64   185   184   ar
    65    25    26    1
    66    25    19   am
    67    18    19    1
    68    18    21    1
    69    26    29    1
    70    19    20    2
    71    29    30    1
    72   183   180    1
    73   183   184    1
    74   180   181    1
    75    56    57   ar
    76    56    58   ar
    77   187   188   ar
    78    16    14    1
    79   184   186   ar
    80   181   182    2
    81    15    14    1
    82    57    59   ar
    83    58    60   ar
    84    14    13    1
    85   156   155    1
    86   156   157    1
    87    21    22    1
    88   188   186   ar
    89   188   190   ar
    90    30    31   ar
    91    30    32   ar
    92   186   189   ar
    93    31    33   ar
    94    86    85   ar
    95    86    84   ar
    96    59    61   ar
    97   159   157   ar
    98   190   192   ar
    99    60    61   ar
   100   157   158   ar
   101    85    83   ar
   102    84    82   ar
   103   189   191   ar
   104   138   137    2
   105    13    10    1
   106    22    23    1
   107    32    35   ar
   108    32    34   ar
   109    33    34   ar
   110     1     2    1
   111    35    37   ar
   112    10     9    1
   113    10    11    1
   114   192   191   ar
   115   137   136    1
   116    83    80   ar
   117    82    80   ar
   118    82    81   ar
   119     2     5    1
   120     2     3    1
   121    34    36   ar
   122   136   135    1
   123   136   139    1
   124     7     6    1
   125    80    78   ar
   126    24    23    1
   127    81    79   ar
   128     5     6    1
   129   108   107   ar
   130   108   106   ar
   131   107   105   ar
   132    11    12    2
   133    37    38   ar
   134     3     4    2
   135     6     8    1
   136   106   104   ar
   137    78    79   ar
   138    78    77    1
   139   141   140    2
   140   105   102   ar
   141    36    38   ar
   142    93    94    1
   143    93    92    1
   144   139   140    1
   145   140   142   am
   146   104   102   ar
   147   104   103   ar
   148   102   100   ar
   149    77    74    1
   150   103   101   ar
   151    92    91    1
   152   100    99    1
   153   100   101   ar
   154   126   125    1
   155    74    73    1
   156    74    75    1
   157    99    96    1
   158   127   125    1
   159   118   116   ar
   160   118   119   ar
   161   133   132    1
   162   120   119    1
   163   125   122    1
   164    76    75    2
   165   116   114   ar
   166    91    88    1
   167   119   117   ar
   168    88    87    1
   169    88    89    1
   170    96    97    1
   171    96    95    1
   172    98    97    2
   173   132   134    1
   174   132   129    1
   175   122   121    1
   176   122   123    1
   177   124   123    2
   178   121   111   am
   179   114   113    1
   180   114   115   ar
   181    90    89    2
   182   117   115   ar
   183   131   130    2
   184   130   129    1
   185   129   128    1
   186   113   110    1
   187   111   112    2
   188   111   110    1
   189   110   109    1
