@<TRIPOS>MOLECULE
tmp/5nj2B00.pdb
 75 73 0 0 0
SMALL
GASTEIGER

@<TRIPOS>ATOM
      1  N          3.6280   25.1870  -45.9050 N.3   182  THR182     -0.1203
      2  CA         4.9630   24.9750  -46.3820 C.3   182  THR182      0.1994
      3  C          5.7590   26.2960  -46.2700 C.2   182  THR182      0.2617
      4  O          6.9670   26.2620  -45.8700 O.2   182  THR182     -0.2717
      5  CB         4.9210   24.4420  -47.8210 C.3   182  THR182      0.1784
      6  OG1        4.4340   23.0630  -47.7360 O.3   182  THR182     -0.2211
      7  CG2        6.3140   24.3720  -48.4200 C.3   182  THR182      0.0376
      8  N          5.1660   27.4500  -46.5630 N.am  183  ASP183     -0.1973
      9  CA         5.8740   28.7330  -46.4290 C.3   183  ASP183      0.1709
     10  C          6.2320   29.0820  -44.9800 C.2   183  ASP183      0.2293
     11  O          7.3430   29.4580  -44.6480 O.2   183  ASP183     -0.2864
     12  CB         5.0590   29.8610  -47.0600 C.3   183  ASP183      0.1436
     13  CG         5.5730   31.2280  -46.7460 C.2   183  ASP183      0.3671
     14  OD1        6.6170   31.6400  -47.3160 O.co2 183  ASP183     -0.2456
     15  OD2        4.9710   31.9030  -45.8730 O.co2 183  ASP183     -0.2456
     16  N          9.0790   26.7800  -44.0830 N.3   186  ALA186     -0.1245
     17  CA        10.3080   27.2330  -44.7590 C.3   186  ALA186      0.1562
     18  C         10.9340   28.4170  -44.1130 C.2   186  ALA186      0.2260
     19  O         12.1670   28.5420  -44.1630 O.2   186  ALA186     -0.2867
     20  CB        10.0050   27.6100  -46.1710 C.3   186  ALA186      0.0290
     21  N         16.8190   21.8470  -50.1290 N.3   204  LYS204     -0.1245
     22  CA        15.8390   22.6660  -49.4830 C.3   204  LYS204      0.1561
     23  C         15.3450   21.8930  -48.2460 C.2   204  LYS204      0.2260
     24  O         15.1450   20.6680  -48.3020 O.2   204  LYS204     -0.2867
     25  CB        14.6340   22.9080  -50.3950 C.3   204  LYS204      0.0271
     26  CG        13.5370   23.7120  -49.8030 C.3   204  LYS204      0.0035
     27  CD        12.4250   23.8510  -50.8660 C.3   204  LYS204      0.0206
     28  CE        11.4040   24.8620  -50.5450 C.3   204  LYS204      0.1093
     29  NZ        10.8300   25.3200  -51.8920 N.3   204  LYS204     -0.1314
     30  N         12.5250   22.3100  -44.9730 N.3   206  ILE206     -0.1245
     31  CA        11.5460   23.0220  -44.1940 C.3   206  ILE206      0.1561
     32  C         11.2990   22.1640  -42.9430 C.2   206  ILE206      0.2260
     33  O         11.4060   20.9710  -43.0160 O.2   206  ILE206     -0.2867
     34  CB        10.2090   23.3270  -44.9760 C.3   206  ILE206      0.0252
     35  CG1        9.3680   22.0930  -45.1040 C.3   206  ILE206      0.0019
     36  CG2       10.5450   23.9900  -46.3020 C.3   206  ILE206      0.0019
     37  CD1        8.0740   22.2850  -45.8610 C.3   206  ILE206      0.0001
     38  N         14.2150   18.4970  -49.9740 N.3   224  TRP224     -0.1227
     39  CA        14.2150   18.2370  -51.4340 C.3   224  TRP224      0.1737
     40  C         15.6360   18.2570  -51.9360 C.2   224  TRP224      0.2596
     41  O         16.3690   19.2280  -51.6280 O.2   224  TRP224     -0.2718
     42  CB        13.3700   19.2830  -52.2030 C.3   224  TRP224      0.0564
     43  CG        11.8940   19.2270  -52.0010 C.ar  224  TRP224      0.0003
     44  CD1       10.9340   18.7310  -52.8790 C.ar  224  TRP224      0.0946
     45  CD2       11.1500   19.7680  -50.8910 C.ar  224  TRP224      0.0152
     46  NE1        9.6610   18.8710  -52.3200 N.ar  224  TRP224     -0.2442
     47  CE2        9.7600   19.5740  -51.1520 C.ar  224  TRP224      0.0810
     48  CE3       11.5200   20.4340  -49.7160 C.ar  224  TRP224      0.0012
     49  CZ2        8.7680   19.9630  -50.2800 C.ar  224  TRP224      0.0191
     50  CZ3       10.4990   20.8260  -48.8530 C.ar  224  TRP224      0.0001
     51  CH2        9.1640   20.6500  -49.1540 C.ar  224  TRP224      0.0015
     52  N         15.9870   17.2700  -52.7230 N.am  225  SER225     -0.1938
     53  CA        17.2660   17.2270  -53.3750 C.3   225  SER225      0.2040
     54  C         17.3870   18.4250  -54.2940 C.2   225  SER225      0.2485
     55  O         16.4670   19.1140  -54.6830 O.2   225  SER225     -0.2729
     56  CB        17.5010   15.9180  -54.1100 C.3   225  SER225      0.2129
     57  OG        16.8650   16.0260  -55.4020 O.3   225  SER225     -0.2179
     58  N         18.6960   18.6650  -54.8300 N.am  226  PRO226     -0.2715
     59  CA        18.8610   19.7780  -55.7680 C.3   226  PRO226      0.1536
     60  C         17.9980   19.6380  -57.0450 C.2   226  PRO226      0.2599
     61  O         17.7870   20.6450  -57.6750 O.2   226  PRO226     -0.2715
     62  CB        20.3920   19.7570  -56.0360 C.3   226  PRO226      0.0310
     63  CG        20.9560   19.0790  -54.8270 C.3   226  PRO226      0.0237
     64  CD        19.9530   18.0740  -54.3860 C.3   226  PRO226      0.0939
     65  N         17.5510   18.4700  -57.3530 N.am  227  THR227     -0.1937
     66  CA        16.7190   18.3000  -58.5660 C.3   227  THR227      0.2028
     67  C         15.2290   18.0950  -58.1930 C.2   227  THR227      0.2642
     68  O         14.3720   17.8910  -59.0610 O.2   227  THR227     -0.2714
     69  CB        17.2050   17.1150  -59.3360 C.3   227  THR227      0.1808
     70  OG1       17.2110   15.9590  -58.5200 O.3   227  THR227     -0.2208
     71  CG2       18.6130   17.3480  -59.9550 C.3   227  THR227      0.0379
     72  N         14.8780   18.2930  -56.9360 N.am  228  GLY228     -0.1954
     73  CA        13.4780   18.3770  -56.5330 C.3   228  GLY228      0.1869
     74  C         12.9470   17.0610  -56.0140 C.2   228  GLY228      0.2309
     75  O         11.7240   17.0030  -55.7880 O.2   228  GLY228     -0.2863
@<TRIPOS>BOND
     1    71    69    1
     2    69    66    1
     3    69    70    1
     4    68    67    2
     5    66    67    1
     6    66    65    1
     7    67    72   am
     8    61    60    2
     9    65    60   am
    10    60    59    1
    11    72    73    1
    12    73    74    1
    13    62    59    1
    14    62    63    1
    15    74    75    2
    16    59    58    1
    17    57    56    1
    18    58    64    1
    19    58    54   am
    20    63    64    1
    21    55    54    2
    22    54    53    1
    23    56    53    1
    24    53    52    1
    25    44    46   ar
    26    44    43   ar
    27    52    40   am
    28    46    47   ar
    29    42    43    1
    30    42    39    1
    31    43    45   ar
    32    40    41    2
    33    40    39    1
    34    29    28    1
    35    39    38    1
    36    47    45   ar
    37    47    49   ar
    38    45    48   ar
    39    27    28    1
    40    27    26    1
    41    25    26    1
    42    25    22    1
    43    49    51   ar
    44    21    22    1
    45    48    50   ar
    46    22    23    1
    47    51    50   ar
    48     7     5    1
    49    24    23    2
    50     5     6    1
    51     5     2    1
    52    14    13   ar
    53    12    13    1
    54    12     9    1
    55    13    15   ar
    56     8     9    1
    57     8     3   am
    58     9    10    1
    59     2     3    1
    60     2     1    1
    61    36    34    1
    62     3     4    2
    63    20    17    1
    64    37    35    1
    65    35    34    1
    66    10    11    2
    67    34    31    1
    68    30    31    1
    69    17    18    1
    70    17    16    1
    71    31    32    1
    72    19    18    2
    73    33    32    2
