@<TRIPOS>MOLECULE
tmp/5nj2B01.pdb
 97 94 0 0 0
SMALL
GASTEIGER

@<TRIPOS>ATOM
      1  N         24.4960    1.3080  -40.6850 N.3     2  LEU2       -0.1231
      2  CA        23.7640    2.4990  -40.1870 C.3     2  LEU2        0.1693
      3  C         23.2130    2.3920  -38.7550 C.2     2  LEU2        0.2591
      4  O         23.3610    3.3340  -37.9280 O.2     2  LEU2       -0.2718
      5  CB        22.6730    2.8810  -41.1920 C.3     2  LEU2        0.0284
      6  CG        22.1700    4.3050  -41.0790 C.3     2  LEU2        0.0019
      7  CD1       23.2420    5.4250  -41.1360 C.3     2  LEU2        0.0001
      8  CD2       21.1310    4.5130  -42.2190 C.3     2  LEU2        0.0001
      9  N         22.6760    1.2440  -38.3890 N.am    3  ALA3       -0.1980
     10  CA        22.2100    1.0180  -37.0300 C.3     3  ALA3        0.1597
     11  C         23.3570    1.1510  -36.0100 C.2     3  ALA3        0.2287
     12  O         23.1730    1.7140  -34.9350 O.2     3  ALA3       -0.2864
     13  CB        21.5790   -0.3510  -36.8730 C.3     3  ALA3        0.0319
     14  N         24.1520    4.8800  -35.6190 N.3     6  PHE6       -0.1227
     15  CA        23.1680    5.5620  -34.7450 C.3     6  PHE6        0.1736
     16  C         23.3590    5.1940  -33.2720 C.2     6  PHE6        0.2595
     17  O         23.2500    6.0510  -32.3670 O.2     6  PHE6       -0.2718
     18  CB        21.7500    5.2430  -35.1890 C.3     6  PHE6        0.0547
     19  CG        21.3020    5.9040  -36.4970 C.ar    6  PHE6       -0.0202
     20  CD1       21.5170    7.2670  -36.7940 C.ar    6  PHE6       -0.0042
     21  CD2       20.4900    5.1690  -37.3490 C.ar    6  PHE6       -0.0042
     22  CE1       21.0110    7.8080  -37.9350 C.ar    6  PHE6       -0.0003
     23  CE2       19.9610    5.7590  -38.5150 C.ar    6  PHE6       -0.0003
     24  CZ        20.2160    7.0720  -38.7710 C.ar    6  PHE6       -0.0000
     25  N         23.6870    3.9340  -33.0180 N.am    7  ALA7       -0.1980
     26  CA        23.9100    3.4880  -31.6390 C.3     7  ALA7        0.1597
     27  C         25.1040    4.2110  -31.0450 C.2     7  ALA7        0.2287
     28  O         25.1300    4.5290  -29.8780 O.2     7  ALA7       -0.2864
     29  CB        24.1200    1.9950  -31.5780 C.3     7  ALA7        0.0319
     30  N         24.0500    7.5900  -29.8370 N.3    10  GLU10      -0.1245
     31  CA        23.3730    7.4400  -28.5160 C.3    10  GLU10       0.1567
     32  C         24.3540    7.3230  -27.3690 C.2    10  GLU10       0.2260
     33  O         24.2080    8.0000  -26.3250 O.2    10  GLU10      -0.2867
     34  CB        22.4350    6.2520  -28.4900 C.3    10  GLU10       0.0388
     35  CG        21.2670    6.3890  -29.3930 C.3    10  GLU10       0.1160
     36  CD        20.3050    5.2560  -29.1860 C.2    10  GLU10       0.3649
     37  OE1       19.0730    5.5430  -29.0580 O.co2  10  GLU10      -0.2457
     38  OE2       20.7340    4.0660  -29.2040 O.co2  10  GLU10      -0.2457
     39  N         13.0570    2.5860  -46.5210 N.3    29  ALA29      -0.1231
     40  CA        12.8880    3.3850  -45.2810 C.3    29  ALA29       0.1694
     41  C         14.2050    3.3470  -44.4500 C.2    29  ALA29       0.2592
     42  O         14.9850    2.3500  -44.4400 O.2    29  ALA29      -0.2718
     43  CB        11.7540    2.8580  -44.4560 C.3    29  ALA29       0.0304
     44  N         14.4740    4.4650  -43.7910 N.am   30  ILE30      -0.1966
     45  CA        15.5470    4.5080  -42.7940 C.3    30  ILE30       0.1727
     46  C         14.8670    4.5880  -41.4540 C.2    30  ILE30       0.2616
     47  O         13.9810    5.4320  -41.2120 O.2    30  ILE30      -0.2715
     48  CB        16.4820    5.6940  -42.9460 C.3    30  ILE30       0.0290
     49  CG1       17.1700    5.6470  -44.3150 C.3    30  ILE30       0.0022
     50  CG2       17.5050    5.7690  -41.8140 C.3    30  ILE30       0.0023
     51  CD1       17.7700    6.9670  -44.7030 C.3    30  ILE30       0.0001
     52  N         15.2490    3.7300  -40.5500 N.am   31  GLU31      -0.1963
     53  CA        14.5240    3.6730  -39.2680 C.3    31  GLU31       0.1733
     54  C         15.4660    3.2760  -38.1370 C.2    31  GLU31       0.2616
     55  O         16.2820    2.3650  -38.2860 O.2    31  GLU31      -0.2715
     56  CB        13.3550    2.6970  -39.3230 C.3    31  GLU31       0.0429
     57  CG        13.6820    1.3050  -39.6760 C.3    31  GLU31       0.1163
     58  CD        12.4740    0.4530  -40.1010 C.2    31  GLU31       0.3649
     59  OE1       12.7330   -0.7020  -40.5130 O.co2  31  GLU31      -0.2457
     60  OE2       11.3090    0.8720  -39.9950 O.co2  31  GLU31      -0.2457
     61  N         15.3070    3.9100  -37.0080 N.am   32  TYR32      -0.1960
     62  CA        16.0420    3.6360  -35.8310 C.3    32  TYR32       0.1771
     63  C         15.1670    4.0000  -34.6600 C.2    32  TYR32       0.2619
     64  O         14.7870    5.1570  -34.5080 O.2    32  TYR32      -0.2715
     65  CB        17.3870    4.3940  -35.7800 C.3    32  TYR32       0.0574
     66  CG        18.2680    3.9720  -34.6240 C.ar   32  TYR32      -0.0198
     67  CD1       19.0440    2.8720  -34.7310 C.ar   32  TYR32      -0.0009
     68  CD2       18.3070    4.6790  -33.4220 C.ar   32  TYR32      -0.0009
     69  CE1       19.8040    2.3710  -33.6820 C.ar   32  TYR32       0.0417
     70  CE2       19.1150    4.2880  -32.3640 C.ar   32  TYR32       0.0417
     71  CZ        19.8320    3.1050  -32.4970 C.ar   32  TYR32       0.1957
     72  OH        20.6430    2.6930  -31.4640 O.3    32  TYR32      -0.2866
     73  N         14.7630    3.0330  -33.8420 N.am   33  ARG33      -0.1963
     74  CA        13.7580    3.2670  -32.7810 C.3    33  ARG33       0.1729
     75  C         12.5210    3.9440  -33.3260 C.2    33  ARG33       0.2616
     76  O         11.8810    4.6820  -32.6270 O.2    33  ARG33      -0.2715
     77  CB        14.2990    4.0190  -31.5750 C.3    33  ARG33       0.0348
     78  CG        15.5160    3.3780  -30.9510 C.3    33  ARG33       0.0492
     79  CD        15.8790    4.0390  -29.6160 C.3    33  ARG33       0.2205
     80  NE        17.1550    3.6000  -29.0840 N.pl3  33  ARG33      -0.0865
     81  CZ        17.4070    2.4270  -28.5150 C.cat  33  ARG33       0.5346
     82  NH1       16.4350    1.5560  -28.3000 N.pl3  33  ARG33       0.1354
     83  NH2       18.6390    2.1100  -28.2070 N.pl3  33  ARG33       0.1354
     84  N         12.1490    3.6540  -34.5640 N.am   34  ALA34      -0.1977
     85  CA        11.1480    4.4230  -35.2350 C.3    34  ALA34       0.1597
     86  C          9.7350    4.2350  -34.7190 C.2    34  ALA34       0.2287
     87  O          8.9140    5.1120  -34.8640 O.2    34  ALA34      -0.2864
     88  CB        11.2070    4.1970  -36.7360 C.3    34  ALA34       0.0319
     89  N          9.3060    3.5780  -31.3120 N.3    36  GLU36      -0.1245
     90  CA         9.2950    3.9790  -29.9500 C.3    36  GLU36       0.1567
     91  C          8.6330    5.3440  -29.8230 C.2    36  GLU36       0.2260
     92  O          8.7570    6.2140  -30.7170 O.2    36  GLU36      -0.2867
     93  CB        10.7110    4.0410  -29.3520 C.3    36  GLU36       0.0388
     94  CG        11.3890    2.6820  -29.3310 C.3    36  GLU36       0.1160
     95  CD        12.6710    2.6490  -28.4890 C.2    36  GLU36       0.3649
     96  OE1       13.5200    1.7920  -28.7770 O.co2  36  GLU36      -0.2457
     97  OE2       12.8100    3.5270  -27.6160 O.co2  36  GLU36      -0.2457
@<TRIPOS>BOND
     1    39    40    1
     2    40    43    1
     3    40    41    1
     4    51    49    1
     5    41    42    2
     6    41    44   am
     7    49    48    1
     8    44    45    1
     9    48    45    1
    10    48    50    1
    11    45    46    1
    12     8     6    1
    13    46    47    2
    14    46    52   am
    15     5     6    1
    16     5     2    1
    17     7     6    1
    18     1     2    1
    19    52    53    1
    20    59    58   ar
    21     2     3    1
    22    58    60   ar
    23    58    57    1
    24    57    56    1
    25    56    53    1
    26    53    54    1
    27    24    23   ar
    28    24    22   ar
    29     3     9   am
    30     3     4    2
    31    23    21   ar
    32     9    10    1
    33    55    54    2
    34    54    61   am
    35    22    20   ar
    36    21    19   ar
    37    10    13    1
    38    10    11    1
    39    61    62    1
    40    20    19   ar
    41    88    85    1
    42    19    18    1
    43    11    12    2
    44    62    65    1
    45    62    63    1
    46    65    66    1
    47    14    15    1
    48    85    86    1
    49    85    84    1
    50    18    15    1
    51    87    86    2
    52    15    16    1
    53    67    66   ar
    54    67    69   ar
    55    63    64    2
    56    63    73   am
    57    66    68   ar
    58    84    75   am
    59    73    74    1
    60    69    71   ar
    61    68    70   ar
    62    75    74    1
    63    75    76    2
    64    16    25   am
    65    16    17    2
    66    25    26    1
    67    74    77    1
    68    71    70   ar
    69    71    72    1
    70    26    29    1
    71    26    27    1
    72    77    78    1
    73    89    90    1
    74    27    28    2
    75    78    79    1
    76    92    91    2
    77    90    91    1
    78    90    93    1
    79    30    31    1
    80    79    80    1
    81    35    36    1
    82    35    34    1
    83    93    94    1
    84    94    95    1
    85    38    36   ar
    86    36    37   ar
    87    80    81    2
    88    96    95   ar
    89    31    34    1
    90    31    32    1
    91    81    82    1
    92    81    83    1
    93    95    97   ar
    94    32    33    2
