@<TRIPOS>MOLECULE
tmp/5njaA00.pdb
 105 101 0 0 0
SMALL
GASTEIGER

@<TRIPOS>ATOM
      1  N         13.0950   86.0170   26.7410 N.3    28  ALA28      -0.1245
      2  CA        11.7710   86.5770   27.0350 C.3    28  ALA28       0.1562
      3  C         10.8120   86.6130   25.8450 C.2    28  ALA28       0.2260
      4  O          9.6590   87.0280   25.9950 O.2    28  ALA28      -0.2867
      5  CB        11.8860   87.9750   27.6650 C.3    28  ALA28       0.0290
      6  N          9.7470   83.9060   24.8540 N.3    30  ARG30      -0.1231
      7  CA         8.9020   82.7870   25.2770 C.3    30  ARG30       0.1694
      8  C          8.2460   83.0980   26.6090 C.2    30  ARG30       0.2592
      9  O          8.6620   84.0300   27.3040 O.2    30  ARG30      -0.2718
     10  CB         9.7370   81.5030   25.3740 C.3    30  ARG30       0.0321
     11  CG        10.4960   81.1230   24.0970 C.3    30  ARG30       0.0489
     12  CD         9.5620   81.0260   22.8940 C.3    30  ARG30       0.2205
     13  NE        10.2730   80.7980   21.6410 N.pl3  30  ARG30      -0.0865
     14  CZ        10.6880   79.6120   21.1940 C.cat  30  ARG30       0.5346
     15  NH1       10.5130   78.4770   21.9060 N.pl3  30  ARG30       0.1354
     16  NH2       11.3120   79.5580   20.0240 N.pl3  30  ARG30       0.1354
     17  N          7.2050   82.3270   26.9420 N.am   31  ARG31      -0.1966
     18  CA         6.4110   82.5140   28.1560 C.3    31  ARG31       0.1729
     19  C          7.1640   81.8990   29.3110 C.2    31  ARG31       0.2616
     20  O          7.0400   80.7020   29.5890 O.2    31  ARG31      -0.2715
     21  CB         5.0180   81.8610   27.9820 C.3    31  ARG31       0.0348
     22  CG         4.0330   82.0420   29.1420 C.3    31  ARG31       0.0492
     23  CD         2.7490   81.2690   28.8720 C.3    31  ARG31       0.2205
     24  NE         1.7380   81.3960   29.9180 N.pl3  31  ARG31      -0.0865
     25  CZ         1.5950   80.5840   30.9730 C.cat  31  ARG31       0.5346
     26  NH1        2.4220   79.5590   31.1900 N.pl3  31  ARG31       0.1354
     27  NH2        0.6130   80.8060   31.8420 N.pl3  31  ARG31       0.1354
     28  N          7.9370   82.7380   29.9940 N.am   32  LEU32      -0.1963
     29  CA         8.8480   82.3160   31.0620 C.3    32  LEU32       0.1728
     30  C          8.6090   83.0830   32.3400 C.2    32  LEU32       0.2616
     31  O          8.2420   84.2670   32.3040 O.2    32  LEU32      -0.2715
     32  CB        10.2960   82.5950   30.6680 C.3    32  LEU32       0.0311
     33  CG        10.8400   81.9520   29.3980 C.3    32  LEU32       0.0022
     34  CD1       12.3010   82.3290   29.2320 C.3    32  LEU32       0.0001
     35  CD2       10.6870   80.4600   29.4430 C.3    32  LEU32       0.0001
     36  N          8.8290   82.4360   33.4740 N.am   33  ASP33      -0.1957
     37  CA         8.8520   83.1460   34.7440 C.3    33  ASP33       0.1840
     38  C         10.1860   83.8520   35.0000 C.2    33  ASP33       0.2622
     39  O         10.2440   84.8590   35.7320 O.2    33  ASP33      -0.2715
     40  CB         8.5990   82.1940   35.9050 C.3    33  ASP33       0.1450
     41  CG         7.1730   81.6730   35.9380 C.2    33  ASP33       0.3671
     42  OD1        6.2280   82.4410   35.6490 O.co2  33  ASP33      -0.2456
     43  OD2        6.9990   80.5060   36.3290 O.co2  33  ASP33      -0.2456
     44  N         11.2540   83.3350   34.4040 N.am   34  TYR34      -0.1974
     45  CA        12.5960   83.7490   34.7340 C.3    34  TYR34       0.1639
     46  C         13.5880   83.2530   33.7090 C.2    34  TYR34       0.2290
     47  O         13.4350   82.1650   33.1760 O.2    34  TYR34      -0.2864
     48  CB        12.9520   83.1720   36.0970 C.3    34  TYR34       0.0560
     49  CG        14.3350   83.4450   36.6230 C.ar   34  TYR34      -0.0198
     50  CD1       15.3750   82.5800   36.3320 C.ar   34  TYR34      -0.0009
     51  CD2       14.6150   84.5420   37.4520 C.ar   34  TYR34      -0.0009
     52  CE1       16.6520   82.7950   36.8110 C.ar   34  TYR34       0.0417
     53  CE2       15.9080   84.7370   37.9600 C.ar   34  TYR34       0.0417
     54  CZ        16.9140   83.8550   37.6260 C.ar   34  TYR34       0.1957
     55  OH        18.2030   83.9970   38.0970 O.3    34  TYR34      -0.2866
     56  N          5.7700   84.8640   25.0890 N.3   103  GLY103     -0.1210
     57  CA         5.6250   85.6500   26.2950 C.3   103  GLY103      0.1956
     58  C          5.3610   87.1100   26.0000 C.2   103  GLY103      0.2612
     59  O          5.4100   87.5240   24.8380 O.2   103  GLY103     -0.2717
     60  N          5.1170   87.8970   27.0500 N.am  104  ASP104     -0.1959
     61  CA         4.8730   89.3280   26.8500 C.3   104  ASP104      0.1840
     62  C          6.1610   90.1640   26.6670 C.2   104  ASP104      0.2623
     63  O          6.0960   91.3330   26.2770 O.2   104  ASP104     -0.2715
     64  CB         3.9570   89.8960   27.9490 C.3   104  ASP104      0.1450
     65  CG         4.5870   89.9310   29.3310 C.2   104  ASP104      0.3671
     66  OD1        5.8140   89.7260   29.5030 O.co2 104  ASP104     -0.2456
     67  OD2        3.7990   90.1790   30.2760 O.co2 104  ASP104     -0.2456
     68  N          7.3190   89.5550   26.9380 N.am  105  GLY105     -0.1940
     69  CA         8.6090   90.1970   26.7980 C.3   105  GLY105      0.2014
     70  C          8.9620   91.1970   27.8810 C.2   105  GLY105      0.2639
     71  O          9.9930   91.8500   27.7620 O.2   105  GLY105     -0.2714
     72  N          8.1800   91.2750   28.9600 N.am  106  LYS106     -0.1963
     73  CA         8.3460   92.3330   29.9610 C.3   106  LYS106      0.1728
     74  C          9.3390   91.9080   31.0370 C.2   106  LYS106      0.2616
     75  O          8.9580   91.4010   32.1050 O.2   106  LYS106     -0.2715
     76  CB         6.9980   92.7290   30.5980 C.3   106  LYS106      0.0311
     77  CG         6.1430   93.5960   29.7070 C.3   106  LYS106      0.0038
     78  CD         4.7950   93.8840   30.3570 C.3   106  LYS106      0.0206
     79  CE         3.8920   94.6760   29.4210 C.3   106  LYS106      0.1093
     80  NZ         3.4490   93.8490   28.2700 N.3   106  LYS106     -0.1314
     81  N         10.6160   92.1410   30.7430 N.am  107  VAL107     -0.1977
     82  CA        11.6840   91.9330   31.7270 C.3   107  VAL107      0.1596
     83  C         11.8130   93.1420   32.6630 C.2   107  VAL107      0.2287
     84  O         11.3340   94.2340   32.3400 O.2   107  VAL107     -0.2864
     85  CB        13.0490   91.6180   31.0860 C.3   107  VAL107      0.0276
     86  CG1       12.9180   90.4580   30.0970 C.3   107  VAL107      0.0022
     87  CG2       13.6690   92.8430   30.4460 C.3   107  VAL107      0.0022
     88  N         16.2810   88.1400   34.1870 N.3   170  THR170     -0.1218
     89  CA        15.0490   88.8080   33.7690 C.3   170  THR170      0.1862
     90  C         14.3280   89.5150   34.9210 C.2   170  THR170      0.2287
     91  O         13.5250   90.4020   34.6480 O.2   170  THR170     -0.2866
     92  CB        14.0480   87.8120   33.1530 C.3   170  THR170      0.1770
     93  OG1       13.8150   86.7470   34.0790 O.3   170  THR170     -0.2211
     94  CG2       14.5760   87.2440   31.8280 C.3   170  THR170      0.0375
     95  N          9.7300   80.2840   44.4720 N.3   339  ARG339     -0.1245
     96  CA         8.5170   80.7250   43.7790 C.3   339  ARG339      0.1563
     97  C          7.4050   79.6840   43.8760 C.2   339  ARG339      0.2260
     98  O          6.2540   80.0160   44.1640 O.2   339  ARG339     -0.2867
     99  CB         8.7700   81.0490   42.3070 C.3   339  ARG339      0.0307
    100  CG         7.4910   81.5400   41.6030 C.3   339  ARG339      0.0489
    101  CD         7.5990   81.5400   40.0940 C.3   339  ARG339      0.2205
    102  NE         8.3750   82.6800   39.6300 N.pl3 339  ARG339     -0.0865
    103  CZ         7.8810   83.8730   39.3000 C.cat 339  ARG339      0.5346
    104  NH1        6.5780   84.1420   39.3970 N.pl3 339  ARG339      0.1354
    105  NH2        8.7100   84.8190   38.8690 N.pl3 339  ARG339      0.1354
@<TRIPOS>BOND
     1    16    14    1
     2    14    13    2
     3    14    15    1
     4    13    12    1
     5    12    11    1
     6    11    10    1
     7    59    58    2
     8     6     7    1
     9    56    57    1
    10     7    10    1
    11     7     8    1
    12     3     4    2
    13     3     2    1
    14    58    57    1
    15    58    60   am
    16    63    62    2
    17     8    17   am
    18     8     9    2
    19    62    61    1
    20    62    68   am
    21     1     2    1
    22    69    68    1
    23    69    70    1
    24    61    60    1
    25    61    64    1
    26    17    18    1
    27     2     5    1
    28    71    70    2
    29    70    72   am
    30    64    65    1
    31    21    18    1
    32    21    22    1
    33    18    19    1
    34    80    79    1
    35    23    22    1
    36    23    24    1
    37    72    73    1
    38    34    33    1
    39    19    20    2
    40    19    28   am
    41    65    66   ar
    42    65    67   ar
    43    33    35    1
    44    33    32    1
    45    79    78    1
    46    77    78    1
    47    77    76    1
    48    24    25    2
    49    73    76    1
    50    73    74    1
    51    28    29    1
    52    86    85    1
    53    87    85    1
    54    32    29    1
    55    81    74   am
    56    81    82    1
    57    25    26    1
    58    25    27    1
    59    74    75    2
    60    29    30    1
    61    85    82    1
    62    82    83    1
    63    94    92    1
    64    31    30    2
    65    30    36   am
    66    84    83    2
    67    92    89    1
    68    92    93    1
    69    47    46    2
    70    36    37    1
    71    46    45    1
    72    89    88    1
    73    89    90    1
    74    44    45    1
    75    44    38   am
    76    91    90    2
    77    45    48    1
    78    37    38    1
    79    37    40    1
    80    38    39    2
    81    42    41   ar
    82    40    41    1
    83    41    43   ar
    84    48    49    1
    85    50    49   ar
    86    50    52   ar
    87    49    51   ar
    88    52    54   ar
    89    51    53   ar
    90    54    53   ar
    91    54    55    1
    92   105   103    1
    93   103   104    1
    94   103   102    2
    95   102   101    1
    96   101   100    1
    97   100    99    1
    98    99    96    1
    99    96    97    1
   100    96    95    1
   101    97    98    2
