@<TRIPOS>MOLECULE
tmp/5njbC00.pdb
 142 138 0 0 0
SMALL
GASTEIGER

@<TRIPOS>ATOM
      1  N        -13.6840    9.8060    8.5560 N.3   182  ARG182     -0.1245
      2  CA       -13.5980   11.0150    9.3730 C.3   182  ARG182      0.1563
      3  C        -14.9530   11.6480    9.5110 C.2   182  ARG182      0.2260
      4  O        -15.6790   11.7670    8.5200 O.2   182  ARG182     -0.2867
      5  CB       -12.6160   12.0140    8.7640 C.3   182  ARG182      0.0307
      6  CG       -12.2870   13.1880    9.6570 C.3   182  ARG182      0.0489
      7  CD       -11.0970   13.9750    9.1450 C.3   182  ARG182      0.2205
      8  NE       -11.0490   15.2430    9.8370 N.pl3 182  ARG182     -0.0865
      9  CZ       -10.1560   16.1980    9.6060 C.cat 182  ARG182      0.5346
     10  NH1       -9.1740   16.0240    8.7220 N.pl3 182  ARG182      0.1354
     11  NH2      -10.2360   17.3200   10.2950 N.pl3 182  ARG182      0.1354
     12  N         -4.2890   15.8840   21.2520 N.3   254  TRP254     -0.1241
     13  CA        -3.9500   16.7720   20.1170 C.3   254  TRP254      0.1605
     14  C         -2.9320   17.8730   20.4230 C.2   254  TRP254      0.2264
     15  O         -2.1890   18.2500   19.5320 O.2   254  TRP254     -0.2867
     16  CB        -5.2170   17.3630   19.4720 C.3   254  TRP254      0.0550
     17  CG        -4.9560   18.2520   18.2770 C.ar  254  TRP254      0.0003
     18  CD1       -5.0680   19.6110   18.2460 C.ar  254  TRP254      0.0946
     19  CD2       -4.5290   17.8580   16.9590 C.ar  254  TRP254      0.0152
     20  NE1       -4.7420   20.0860   17.0050 N.ar  254  TRP254     -0.2442
     21  CE2       -4.4070   19.0310   16.1970 C.ar  254  TRP254      0.0810
     22  CE3       -4.2280   16.6320   16.3600 C.ar  254  TRP254      0.0012
     23  CZ2       -4.0100   19.0100   14.8660 C.ar  254  TRP254      0.0191
     24  CZ3       -3.8340   16.6130   15.0440 C.ar  254  TRP254      0.0001
     25  CH2       -3.7200   17.7930   14.3070 C.ar  254  TRP254      0.0015
     26  N          0.6320   18.1460   18.9450 N.3   257  VAL257     -0.1245
     27  CA         1.1860   19.0370   17.9050 C.3   257  VAL257      0.1561
     28  C          2.5420   19.6360   18.3220 C.2   257  VAL257      0.2260
     29  O          3.4160   19.8210   17.4820 O.2   257  VAL257     -0.2867
     30  CB         0.1830   20.1480   17.5250 C.3   257  VAL257      0.0252
     31  CG1        0.8200   21.2140   16.6270 C.3   257  VAL257      0.0019
     32  CG2       -1.0040   19.5320   16.8280 C.3   257  VAL257      0.0019
     33  N          5.0910   17.1140   17.2130 N.3   260  HIS260     -0.1226
     34  CA         5.0810   17.0810   15.7690 C.3   260  HIS260      0.1752
     35  C          5.9540   18.2090   15.2070 C.2   260  HIS260      0.2595
     36  O          6.7950   17.9640   14.3380 O.2   260  HIS260     -0.2718
     37  CB         3.6560   17.2100   15.2740 C.3   260  HIS260      0.0759
     38  CG         3.5140   17.1090   13.7870 C.ar  260  HIS260      0.0818
     39  ND1        3.2470   15.9210   13.1350 N.ar  260  HIS260     -0.2268
     40  CD2        3.5590   18.0630   12.8260 C.ar  260  HIS260      0.1154
     41  CE1        3.1540   16.1490   11.8370 C.ar  260  HIS260      0.1986
     42  NE2        3.3500   17.4310   11.6220 N.ar  260  HIS260     -0.2212
     43  N          5.7930   19.4180   15.7570 N.am  261  GLU261     -0.1979
     44  CA         6.5760   20.5770   15.3190 C.3   261  GLU261      0.1602
     45  C          7.9700   20.6820   15.9360 C.2   261  GLU261      0.2287
     46  O          8.9250   20.9990   15.2430 O.2   261  GLU261     -0.2864
     47  CB         5.8500   21.9010   15.5910 C.3   261  GLU261      0.0415
     48  CG         4.4030   21.9850   15.1590 C.3   261  GLU261      0.1163
     49  CD         4.1200   21.6560   13.7190 C.2   261  GLU261      0.3649
     50  OE1        5.0590   21.5320   12.8840 O.co2 261  GLU261     -0.2457
     51  OE2        2.9290   21.5300   13.4170 O.co2 261  GLU261     -0.2457
     52  N          9.2560   16.8580   12.6570 N.3   265  HIS265     -0.1241
     53  CA         9.8030   17.1490   11.3300 C.3   265  HIS265      0.1621
     54  C         11.3320   17.2320   11.3570 C.2   265  HIS265      0.2264
     55  O         12.0130   16.7910   10.4420 O.2   265  HIS265     -0.2867
     56  CB         9.2190   18.4310   10.7430 C.3   265  HIS265      0.0745
     57  CG         7.8760   18.2360   10.1330 C.ar  265  HIS265      0.0817
     58  ND1        7.6720   17.4200    9.0400 N.ar  265  HIS265     -0.2268
     59  CD2        6.6580   18.7260   10.4700 C.ar  265  HIS265      0.1154
     60  CE1        6.3880   17.4320    8.7160 C.ar  265  HIS265      0.1986
     61  NE2        5.7510   18.2190    9.5650 N.ar  265  HIS265     -0.2212
     62  N         -5.7040   22.6800   20.5690 N.3   389  PHE389     -0.1227
     63  CA        -4.9870   23.4790   19.5790 C.3   389  PHE389      0.1736
     64  C         -5.6330   23.3820   18.2050 C.2   389  PHE389      0.2596
     65  O         -6.3500   22.4330   17.8950 O.2   389  PHE389     -0.2718
     66  CB        -3.5180   23.0190   19.4970 C.3   389  PHE389      0.0547
     67  CG        -2.6920   23.5210   20.6260 C.ar  389  PHE389     -0.0202
     68  CD1       -2.7640   22.9480   21.8770 C.ar  389  PHE389     -0.0042
     69  CD2       -1.9100   24.6440   20.4690 C.ar  389  PHE389     -0.0042
     70  CE1       -2.0380   23.4570   22.9470 C.ar  389  PHE389     -0.0003
     71  CE2       -1.1810   25.1560   21.5310 C.ar  389  PHE389     -0.0003
     72  CZ        -1.2350   24.5630   22.7670 C.ar  389  PHE389     -0.0000
     73  N         -5.3710   24.3860   17.3930 N.am  390  GLY390     -0.1942
     74  CA        -5.5130   24.2810   15.9590 C.3   390  GLY390      0.2014
     75  C         -4.2570   23.6260   15.4030 C.2   390  GLY390      0.2639
     76  O         -3.8870   22.5090   15.7850 O.2   390  GLY390     -0.2714
     77  N         -3.5780   24.3300   14.5050 N.am  391  GLY391     -0.1939
     78  CA        -2.4360   23.7840   13.8110 C.3   391  GLY391      0.2014
     79  C         -1.1040   24.2950   14.2940 C.2   391  GLY391      0.2639
     80  O         -0.9950   24.9800   15.3200 O.2   391  GLY391     -0.2714
     81  N         -0.0710   23.9160   13.5580 N.am  392  GLY392     -0.1939
     82  CA         1.2960   24.3300   13.8770 C.3   392  GLY392      0.2014
     83  C          2.1840   24.3620   12.6440 C.2   392  GLY392      0.2639
     84  O          1.7970   23.9180   11.5580 O.2   392  GLY392     -0.2714
     85  N          3.3920   24.8470   12.8460 N.am  393  GLN393     -0.1963
     86  CA         4.3790   24.9740   11.7710 C.3   393  GLN393      0.1733
     87  C          5.7730   24.9960   12.3890 C.2   393  GLN393      0.2616
     88  O          5.9470   25.4510   13.5240 O.2   393  GLN393     -0.2715
     89  CB         4.1240   26.2800   11.0120 C.3   393  GLN393      0.0408
     90  CG         4.9750   26.4770    9.7820 C.3   393  GLN393      0.0908
     91  CD         4.6780   27.7550    9.0250 C.2   393  GLN393      0.2608
     92  OE1        3.6600   28.4310    9.2290 O.2   393  GLN393     -0.2717
     93  NE2        5.5950   28.0990    8.1310 N.am  393  GLN393     -0.0878
     94  N          6.7720   24.4990   11.6550 N.am  394  VAL394     -0.1977
     95  CA         8.1680   24.5680   12.1430 C.3   394  VAL394      0.1596
     96  C          9.0980   24.9660   11.0040 C.2   394  VAL394      0.2287
     97  O          8.8820   24.5860    9.8550 O.2   394  VAL394     -0.2864
     98  CB         8.6380   23.2370   12.7990 C.3   394  VAL394      0.0276
     99  CG1        8.4490   22.0620   11.8530 C.3   394  VAL394      0.0022
    100  CG2       10.0820   23.2960   13.2860 C.3   394  VAL394      0.0022
    101  N         -7.7680   13.2750   13.4960 N.3   449  VAL449     -0.1231
    102  CA        -8.0470   14.5210   12.7760 C.3   449  VAL449      0.1692
    103  C         -6.8680   15.0780   11.9650 C.2   449  VAL449      0.2593
    104  O         -7.0740   15.9830   11.1610 O.2   449  VAL449     -0.2718
    105  CB        -8.5870   15.6200   13.7370 C.3   449  VAL449      0.0266
    106  CG1       -9.8600   15.1220   14.4100 C.3   449  VAL449      0.0020
    107  CG2       -7.5480   16.0490   14.7630 C.3   449  VAL449      0.0020
    108  N         -5.6520   14.5890   12.1830 N.am  450  GLY450     -0.1942
    109  CA        -4.4670   15.2970   11.7220 C.3   450  GLY450      0.2014
    110  C         -4.1640   15.1630   10.2490 C.2   450  GLY450      0.2639
    111  O         -4.2830   14.0780    9.6910 O.2   450  GLY450     -0.2714
    112  N         -3.7910   16.2810    9.6250 N.am  451  VAL451     -0.1963
    113  CA        -3.2320   16.2940    8.2790 C.3   451  VAL451      0.1727
    114  C         -1.9070   17.0390    8.3770 C.2   451  VAL451      0.2616
    115  O         -1.8730   18.2070    8.8250 O.2   451  VAL451     -0.2715
    116  CB        -4.1820   16.9760    7.2650 C.3   451  VAL451      0.0290
    117  CG1       -3.6110   16.9050    5.8520 C.3   451  VAL451      0.0023
    118  CG2       -5.5850   16.3880    7.3110 C.3   451  VAL451      0.0023
    119  N         -0.8310   16.3500    7.9970 N.am  452  CYS452     -0.1954
    120  CA         0.5230   16.8920    7.9980 C.3   452  CYS452      0.1843
    121  C          0.8840   17.2480    6.5700 C.2   452  CYS452      0.2626
    122  O          0.6160   16.4800    5.6370 O.2   452  CYS452     -0.2714
    123  CB         1.5220   15.8690    8.5440 C.3   452  CYS452      0.0997
    124  SG         3.2660   16.3620    8.4130 S.3   452  CYS452     -0.0797
    125  N          1.5170   18.4120    6.4070 N.am  453  GLY453     -0.1954
    126  CA         1.9650   18.8890    5.1090 C.3   453  GLY453      0.1869
    127  C          3.4850   18.9810    5.0780 C.2   453  GLY453      0.2309
    128  O          4.0880   19.5330    5.9880 O.2   453  GLY453     -0.2863
    129  N         -1.7940   11.7880    9.7190 N.3   461  VAL461     -0.1245
    130  CA        -0.7500   11.6170   10.7390 C.3   461  VAL461      0.1561
    131  C         -1.4150   11.8170   12.1050 C.2   461  VAL461      0.2260
    132  O         -2.3620   12.6200   12.2350 O.2   461  VAL461     -0.2867
    133  CB         0.4050   12.6190   10.4900 C.3   461  VAL461      0.0252
    134  CG1        1.3340   12.7410   11.6810 C.3   461  VAL461      0.0019
    135  CG2        1.1740   12.2190    9.2380 C.3   461  VAL461      0.0019
    136  N         -0.9160   12.4470   16.4650 N.3   463  VAL463     -0.1245
    137  CA        -0.0670   12.9690   17.5440 C.3   463  VAL463      0.1561
    138  C         -0.6400   12.5230   18.8630 C.2   463  VAL463      0.2260
    139  O         -1.8320   12.2020   18.9540 O.2   463  VAL463     -0.2867
    140  CB         0.0390   14.5120   17.5610 C.3   463  VAL463      0.0252
    141  CG1        0.6100   15.0230   16.2520 C.3   463  VAL463      0.0019
    142  CG2       -1.3150   15.1650   17.8250 C.3   463  VAL463      0.0019
@<TRIPOS>BOND
     1   127   126    1
     2   127   128    2
     3   126   125    1
     4   122   121    2
     5   117   116    1
     6   125   121   am
     7   121   120    1
     8   116   118    1
     9   116   113    1
    10   119   120    1
    11   119   114   am
    12   120   123    1
    13    93    91   am
    14   113   114    1
    15   113   112    1
    16   114   115    2
    17   124   123    1
    18     4     3    2
    19     1     2    1
    20    60    58   ar
    21    60    61   ar
    22    10     9    1
    23     5     2    1
    24     5     6    1
    25    91    92    2
    26    91    90    1
    27    58    57   ar
    28     7     6    1
    29     7     8    1
    30   135   133    1
    31     2     3    1
    32    61    59   ar
    33     9     8    2
    34     9    11    1
    35   112   110   am
    36   111   110    2
    37   129   130    1
    38    90    89    1
    39    97    96    2
    40    57    59   ar
    41    57    56    1
    42   110   109    1
    43    55    54    2
    44   133   130    1
    45   133   134    1
    46   130   131    1
    47    56    53    1
    48    96    95    1
    49    89    86    1
    50   104   103    2
    51    53    54    1
    52    53    52    1
    53    84    83    2
    54    42    41   ar
    55    42    40   ar
    56    94    95    1
    57    94    87   am
    58   109   108    1
    59    86    87    1
    60    86    85    1
    61    41    39   ar
    62    99    98    1
    63   103   108   am
    64   103   102    1
    65   131   132    2
    66    95    98    1
    67    87    88    2
    68    83    85   am
    69    83    82    1
    70   102   101    1
    71   102   105    1
    72    98   100    1
    73    40    38   ar
    74    50    49   ar
    75    39    38   ar
    76    51    49   ar
    77    81    82    1
    78    81    79   am
    79    49    48    1
    80   105   106    1
    81   105   107    1
    82    38    37    1
    83    78    79    1
    84    78    77    1
    85    79    80    2
    86    25    23   ar
    87    25    24   ar
    88    36    35    2
    89    77    75   am
    90    23    21   ar
    91    24    22   ar
    92    48    47    1
    93    35    43   am
    94    35    34    1
    95    46    45    2
    96    37    34    1
    97    44    47    1
    98    44    43    1
    99    44    45    1
   100    75    76    2
   101    75    74    1
   102    34    33    1
   103    74    73    1
   104    21    19   ar
   105    21    20   ar
   106   141   140    1
   107    22    19   ar
   108   136   137    1
   109    31    30    1
   110    32    30    1
   111    19    17   ar
   112    20    18   ar
   113    73    64   am
   114    29    28    2
   115    30    27    1
   116   137   140    1
   117   137   138    1
   118   140   142    1
   119    65    64    2
   120    27    28    1
   121    27    26    1
   122    64    63    1
   123    18    17   ar
   124    17    16    1
   125   138   139    2
   126    16    13    1
   127    66    63    1
   128    66    67    1
   129    15    14    2
   130    63    62    1
   131    13    14    1
   132    13    12    1
   133    69    67   ar
   134    69    71   ar
   135    67    68   ar
   136    71    72   ar
   137    68    70   ar
   138    72    70   ar
