@<TRIPOS>MOLECULE
tmp/5njdK00.pdb
 114 110 0 0 0
SMALL
GASTEIGER

@<TRIPOS>ATOM
      1  N         33.9030   -7.6630   76.4860 N.3     2  TRP2       -0.1241
      2  CA        33.9890   -8.0620   77.8840 C.3     2  TRP2        0.1605
      3  C         34.8200   -9.3290   77.9870 C.2     2  TRP2        0.2264
      4  O         34.8710  -10.1330   77.0530 O.2     2  TRP2       -0.2867
      5  CB        32.6020   -8.2930   78.5030 C.3     2  TRP2        0.0550
      6  CG        31.7210   -9.2430   77.7230 C.ar    2  TRP2        0.0003
      7  CD1       31.0410   -8.9690   76.5700 C.ar    2  TRP2        0.0946
      8  CD2       31.4150  -10.6050   78.0520 C.ar    2  TRP2        0.0152
      9  NE1       30.3400  -10.0760   76.1580 N.ar    2  TRP2       -0.2442
     10  CE2       30.5520  -11.0930   77.0500 C.ar    2  TRP2        0.0810
     11  CE3       31.7890  -11.4580   79.0920 C.ar    2  TRP2        0.0012
     12  CZ2       30.0590  -12.3940   77.0590 C.ar    2  TRP2        0.0191
     13  CZ3       31.2980  -12.7500   79.0990 C.ar    2  TRP2        0.0001
     14  CH2       30.4420  -13.2050   78.0890 C.ar    2  TRP2        0.0015
     15  N         35.6740  -12.9450   78.9970 N.3     4  LEU4       -0.1245
     16  CA        35.0410  -14.1990   79.3840 C.3     4  LEU4        0.1561
     17  C         35.8340  -14.8840   80.4920 C.2     4  LEU4        0.2260
     18  O         35.2650  -15.2940   81.5090 O.2     4  LEU4       -0.2867
     19  CB        34.9020  -15.1150   78.1660 C.3     4  LEU4        0.0270
     20  CG        34.1720  -16.4450   78.3870 C.3     4  LEU4        0.0019
     21  CD1       32.7850  -16.2440   78.9900 C.3     4  LEU4        0.0001
     22  CD2       34.0710  -17.2110   77.0750 C.3     4  LEU4        0.0001
     23  N         30.6310   -8.4970   71.0080 N.3    12  GLU12      -0.1245
     24  CA        29.2460   -8.5690   70.5620 C.3    12  GLU12       0.1567
     25  C         29.0960   -7.7480   69.2850 C.2    12  GLU12       0.2260
     26  O         29.4090   -6.5520   69.2730 O.2    12  GLU12      -0.2867
     27  CB        28.3050   -8.0600   71.6530 C.3    12  GLU12       0.0388
     28  CG        28.4260   -8.8080   72.9720 C.3    12  GLU12       0.1160
     29  CD        27.5000   -8.2600   74.0480 C.2    12  GLU12       0.3649
     30  OE1       26.6550   -7.3960   73.7300 O.co2  12  GLU12      -0.2457
     31  OE2       27.6160   -8.6940   75.2130 O.co2  12  GLU12      -0.2457
     32  N         30.2480  -13.1070   69.1510 N.3    83  HIS83      -0.1241
     33  CA        28.9050  -13.5250   69.5560 C.3    83  HIS83       0.1621
     34  C         27.9110  -12.8450   68.6200 C.2    83  HIS83       0.2264
     35  O         27.5690  -11.6740   68.8070 O.2    83  HIS83      -0.2867
     36  CB        28.6340  -13.1640   71.0140 C.3    83  HIS83       0.0745
     37  CG        27.3790  -13.7700   71.5630 C.ar   83  HIS83       0.0817
     38  ND1       26.8950  -13.4710   72.8190 N.ar   83  HIS83      -0.2268
     39  CD2       26.5130  -14.6650   71.0310 C.ar   83  HIS83       0.1154
     40  CE1       25.7840  -14.1520   73.0350 C.ar   83  HIS83       0.1986
     41  NE2       25.5300  -14.8850   71.9660 N.ar   83  HIS83      -0.2212
     42  N         20.5200  -13.5870   69.3250 N.3    90  TRP90      -0.1241
     43  CA        21.8260  -14.2170   69.4030 C.3    90  TRP90       0.1605
     44  C         21.7730  -15.6000   68.7750 C.2    90  TRP90       0.2264
     45  O         20.7930  -16.3330   68.9320 O.2    90  TRP90      -0.2867
     46  CB        22.2810  -14.3040   70.8560 C.3    90  TRP90       0.0550
     47  CG        22.2590  -12.9640   71.5410 C.ar   90  TRP90       0.0003
     48  CD1       21.2800  -12.4770   72.3570 C.ar   90  TRP90       0.0946
     49  CD2       23.2510  -11.9330   71.4480 C.ar   90  TRP90       0.0152
     50  NE1       21.6050  -11.2100   72.7860 N.ar   90  TRP90      -0.2442
     51  CE2       22.8110  -10.8550   72.2420 C.ar   90  TRP90       0.0810
     52  CE3       24.4710  -11.8200   70.7760 C.ar   90  TRP90       0.0012
     53  CZ2       23.5470   -9.6830   72.3830 C.ar   90  TRP90       0.0191
     54  CZ3       25.2010  -10.6530   70.9180 C.ar   90  TRP90       0.0001
     55  CH2       24.7360   -9.6000   71.7140 C.ar   90  TRP90       0.0015
     56  N         28.5530  -23.8210   84.4570 N.3   135  LYS135     -0.1245
     57  CA        28.4550  -23.3020   85.8110 C.3   135  LYS135      0.1561
     58  C         26.9890  -23.3330   86.2070 C.2   135  LYS135      0.2260
     59  O         26.1030  -23.2660   85.3510 O.2   135  LYS135     -0.2867
     60  CB        29.0190  -21.8810   85.9190 C.3   135  LYS135      0.0271
     61  CG        30.5380  -21.8260   85.7600 C.3   135  LYS135      0.0035
     62  CD        31.0160  -20.4180   85.5500 C.3   135  LYS135      0.0206
     63  CE        30.5240  -19.8670   84.2280 C.3   135  LYS135      0.1093
     64  NZ        31.0600  -20.6190   83.0700 N.3   135  LYS135     -0.1314
     65  N         24.0710  -22.3810   83.4510 N.3   189  MET189     -0.1230
     66  CA        24.5620  -21.4880   82.4090 C.3   189  MET189      0.1702
     67  C         25.7230  -22.1640   81.6950 C.2   189  MET189      0.2592
     68  O         26.6670  -22.6320   82.3410 O.2   189  MET189     -0.2718
     69  CB        25.0020  -20.1350   82.9920 C.3   189  MET189      0.0401
     70  CG        23.9000  -19.3930   83.7400 C.3   189  MET189      0.0596
     71  SD        23.5520  -20.0800   85.3730 S.3   189  MET189     -0.1393
     72  CE        24.9750  -19.5170   86.2990 C.3   189  MET189      0.0692
     73  N         25.6560  -22.2060   80.3670 N.am  190  VAL190     -0.1966
     74  CA        26.6110  -22.9370   79.5440 C.3   190  VAL190      0.1727
     75  C         27.2310  -21.9730   78.5480 C.2   190  VAL190      0.2616
     76  O         26.5130  -21.2600   77.8390 O.2   190  VAL190     -0.2715
     77  CB        25.9360  -24.1100   78.8100 C.3   190  VAL190      0.0290
     78  CG1       26.9290  -24.8200   77.9070 C.3   190  VAL190      0.0023
     79  CG2       25.3240  -25.0790   79.8140 C.3   190  VAL190      0.0023
     80  N         28.5580  -21.9590   78.4900 N.am  191  ASP191     -0.1971
     81  CA        29.2900  -21.2120   77.4750 C.3   191  ASP191      0.1709
     82  C         29.7700  -22.1850   76.4050 C.2   191  ASP191      0.2293
     83  O         30.4220  -23.1860   76.7190 O.2   191  ASP191     -0.2864
     84  CB        30.4810  -20.4600   78.0810 C.3   191  ASP191      0.1436
     85  CG        30.0630  -19.3010   78.9850 C.2   191  ASP191      0.3671
     86  OD1       29.0140  -18.6680   78.7280 O.co2 191  ASP191     -0.2456
     87  OD2       30.8010  -19.0120   79.9520 O.co2 191  ASP191     -0.2456
     88  N         30.9640  -17.6920   69.6090 N.3   198  TYR198     -0.1241
     89  CA        30.5130  -17.7900   70.9900 C.3   198  TYR198      0.1605
     90  C         28.9940  -17.7600   71.0350 C.2   198  TYR198      0.2264
     91  O         28.3640  -16.9190   70.3850 O.2   198  TYR198     -0.2867
     92  CB        31.0810  -16.6530   71.8430 C.3   198  TYR198      0.0534
     93  CG        30.5330  -16.6220   73.2500 C.ar  198  TYR198     -0.0201
     94  CD1       31.1040  -17.3880   74.2560 C.ar  198  TYR198     -0.0009
     95  CD2       29.4470  -15.8260   73.5730 C.ar  198  TYR198     -0.0009
     96  CE1       30.6050  -17.3610   75.5450 C.ar  198  TYR198      0.0417
     97  CE2       28.9400  -15.7920   74.8580 C.ar  198  TYR198      0.0417
     98  CZ        29.5220  -16.5610   75.8410 C.ar  198  TYR198      0.1957
     99  OH        29.0180  -16.5270   77.1220 O.3   198  TYR198     -0.2866
    100  N         25.9280  -18.7710   74.2920 N.3   200  ASN200     -0.1240
    101  CA        25.7000  -19.3180   75.6210 C.3   200  ASN200      0.1653
    102  C         24.2160  -19.5740   75.8330 C.2   200  ASN200      0.2266
    103  O         23.3640  -18.8120   75.3650 O.2   200  ASN200     -0.2867
    104  CB        26.2620  -18.4010   76.7280 C.3   200  ASN200      0.1155
    105  CG        25.6230  -17.0280   76.7550 C.2   200  ASN200      0.2627
    106  OD1       24.5900  -16.7840   76.1340 O.2   200  ASN200     -0.2716
    107  ND2       26.2550  -16.1170   77.4980 N.am  200  ASN200     -0.0877
    108  N         21.0490  -21.5170   78.6050 N.3   202  THR202     -0.1218
    109  CA        20.6430  -21.5660   80.0020 C.3   202  THR202      0.1862
    110  C         19.5160  -22.5740   80.1700 C.2   202  THR202      0.2287
    111  O         18.8970  -23.0200   79.2010 O.2   202  THR202     -0.2866
    112  CB        20.1820  -20.1930   80.5110 C.3   202  THR202      0.1770
    113  OG1       19.0520  -19.7510   79.7480 O.3   202  THR202     -0.2211
    114  CG2       21.3050  -19.1590   80.4140 C.3   202  THR202      0.0375
@<TRIPOS>BOND
     1    34    35    2
     2    34    33    1
     3    44    45    2
     4    44    43    1
     5    32    33    1
     6    26    25    2
     7    25    24    1
     8    42    43    1
     9    43    46    1
    10    33    36    1
    11    88    89    1
    12    91    90    2
    13    24    23    1
    14    24    27    1
    15    52    54   ar
    16    52    49   ar
    17    46    47    1
    18    54    55   ar
    19    89    90    1
    20    89    92    1
    21    36    37    1
    22    39    37   ar
    23    39    41   ar
    24    49    47   ar
    25    49    51   ar
    26    47    48   ar
    27    37    38   ar
    28    27    28    1
    29    55    53   ar
    30    92    93    1
    31    41    40   ar
    32    51    53   ar
    33    51    50   ar
    34    48    50   ar
    35    38    40   ar
    36    28    29    1
    37    93    95   ar
    38    93    94   ar
    39    95    97   ar
    40    30    29   ar
    41    29    31   ar
    42    94    96   ar
    43   100   101    1
    44    97    98   ar
    45   103   102    2
    46    96    98   ar
    47   101   102    1
    48   101   104    1
    49    98    99    1
    50   106   105    2
    51     9     7   ar
    52     9    10   ar
    53    82    83    2
    54    82    81    1
    55     1     2    1
    56     7     6   ar
    57   104   105    1
    58   105   107   am
    59    10    12   ar
    60    10     8   ar
    61     4     3    2
    62    12    14   ar
    63    22    20    1
    64    81    84    1
    65    81    80    1
    66     6     8   ar
    67     6     5    1
    68    76    75    2
    69     2     3    1
    70     2     5    1
    71    78    77    1
    72     8    11   ar
    73    84    85    1
    74    14    13   ar
    75    19    20    1
    76    19    16    1
    77    20    21    1
    78    80    75   am
    79    75    74    1
    80   108   109    1
    81    86    85   ar
    82    77    74    1
    83    77    79    1
    84    85    87   ar
    85    15    16    1
    86    11    13   ar
    87   111   110    2
    88    16    17    1
    89    74    73    1
    90   113   112    1
    91   109   110    1
    92   109   112    1
    93    73    67   am
    94   114   112    1
    95    17    18    2
    96    67    68    2
    97    67    66    1
    98    66    69    1
    99    66    65    1
   100    69    70    1
   101    64    63    1
   102    70    71    1
   103    63    62    1
   104    56    57    1
   105    59    58    2
   106    71    72    1
   107    62    61    1
   108    61    60    1
   109    57    60    1
   110    57    58    1
