@<TRIPOS>MOLECULE
tmp/5njhB01.pdb
 84 82 0 0 0
SMALL
GASTEIGER

@<TRIPOS>ATOM
      1  N          7.6750   39.6980   23.2080 N.3   173  VAL173     -0.1231
      2  CA         7.6790   40.1060   21.8230 C.3   173  VAL173      0.1692
      3  C          9.0500   40.3790   21.2430 C.2   173  VAL173      0.2593
      4  O          9.6820   41.3530   21.5990 O.2   173  VAL173     -0.2718
      5  CB         6.8160   41.3660   21.6440 C.3   173  VAL173      0.0266
      6  CG1        6.8200   41.8270   20.2010 C.3   173  VAL173      0.0020
      7  CG2        5.4010   41.1050   22.1140 C.3   173  VAL173      0.0020
      8  N          9.4970   39.5170   20.3400 N.am  174  SER174     -0.1938
      9  CA        10.7740   39.7180   19.6670 C.3   174  SER174      0.2055
     10  C         10.6870   39.4070   18.1790 C.2   174  SER174      0.2643
     11  O          9.9660   38.5000   17.7670 O.2   174  SER174     -0.2714
     12  CB        11.8520   38.8430   20.3050 C.3   174  SER174      0.2130
     13  OG        11.5390   37.4710   20.1410 O.3   174  SER174     -0.2179
     14  N         11.4300   40.1650   17.3790 N.am  175  ASP175     -0.1971
     15  CA        11.4980   39.9390   15.9390 C.3   175  ASP175      0.1709
     16  C         12.9310   39.6410   15.4840 C.2   175  ASP175      0.2293
     17  O         13.2140   39.5970   14.2880 O.2   175  ASP175     -0.2864
     18  CB        10.9270   41.1390   15.1770 C.3   175  ASP175      0.1436
     19  CG        11.6060   42.4400   15.5440 C.2   175  ASP175      0.3671
     20  OD1       12.0410   42.5740   16.7080 O.co2 175  ASP175     -0.2456
     21  OD2       11.6930   43.3320   14.6730 O.co2 175  ASP175     -0.2456
     22  N          9.5200   47.9820   24.0830 N.3   202  ASN202     -0.1225
     23  CA         8.5060   48.1000   23.0340 C.3   202  ASN202      0.1785
     24  C          7.1730   47.4170   23.3590 C.2   202  ASN202      0.2597
     25  O          6.1080   47.9050   22.9770 O.2   202  ASN202     -0.2718
     26  CB         9.0400   47.5250   21.7170 C.3   202  ASN202      0.1169
     27  CG         9.8260   48.5360   20.9080 C.2   202  ASN202      0.2627
     28  OD1        9.8220   49.7290   21.2080 O.2   202  ASN202     -0.2716
     29  ND2       10.5000   48.0620   19.8670 N.am  202  ASN202     -0.0877
     30  N          7.2280   46.3200   24.0940 N.am  203  GLU203     -0.1979
     31  CA         6.0190   45.6190   24.4810 C.3   203  GLU203      0.1602
     32  C          5.2190   46.5030   25.4250 C.2   203  GLU203      0.2287
     33  O          4.0130   46.6340   25.2980 O.2   203  GLU203     -0.2864
     34  CB         6.3710   44.2950   25.1520 C.3   203  GLU203      0.0415
     35  CG         5.1860   43.4160   25.4880 C.3   203  GLU203      0.1163
     36  CD         5.5950   42.0200   25.8980 C.2   203  GLU203      0.3649
     37  OE1        6.7090   41.6020   25.5520 O.co2 203  GLU203     -0.2457
     38  OE2        4.8020   41.3360   26.5600 O.co2 203  GLU203     -0.2457
     39  N          3.6400   49.3250   23.5910 N.3   206  TYR206     -0.1241
     40  CA         2.5040   48.8620   22.8190 C.3   206  TYR206      0.1605
     41  C          1.2670   48.6540   23.6820 C.2   206  TYR206      0.2264
     42  O          0.1800   49.0590   23.3130 O.2   206  TYR206     -0.2867
     43  CB         2.8570   47.5770   22.0800 C.3   206  TYR206      0.0534
     44  CG         1.7070   47.0080   21.3100 C.ar  206  TYR206     -0.0201
     45  CD1        1.4550   47.4110   20.0140 C.ar  206  TYR206     -0.0009
     46  CD2        0.8600   46.0840   21.8840 C.ar  206  TYR206     -0.0009
     47  CE1        0.3940   46.8990   19.3070 C.ar  206  TYR206      0.0417
     48  CE2       -0.2020   45.5680   21.1870 C.ar  206  TYR206      0.0417
     49  CZ        -0.4280   45.9790   19.9000 C.ar  206  TYR206      0.1957
     50  OH        -1.4870   45.4650   19.2070 O.3   206  TYR206     -0.2866
     51  N         -1.9540   50.0180   17.0270 N.3   217  PRO217     -0.2102
     52  CA        -0.8050   50.9210   17.1530 C.3   217  PRO217      0.1504
     53  C          0.3220   50.5800   16.1800 C.2   217  PRO217      0.2576
     54  O          0.5410   49.4100   15.8710 O.2   217  PRO217     -0.2718
     55  CB        -0.3470   50.7080   18.6020 C.3   217  PRO217      0.0282
     56  CG        -1.5020   50.0360   19.2890 C.3   217  PRO217      0.0208
     57  CD        -2.1460   49.2030   18.2370 C.3   217  PRO217      0.0893
     58  N          1.0310   51.6030   15.7180 N.am  218  THR218     -0.1939
     59  CA         2.2000   51.4300   14.8610 C.3   218  THR218      0.2028
     60  C          3.4610   51.8880   15.5880 C.2   218  THR218      0.2642
     61  O          3.3950   52.3330   16.7330 O.2   218  THR218     -0.2714
     62  CB         2.0550   52.1970   13.5370 C.3   218  THR218      0.1808
     63  OG1        2.0430   53.6050   13.7970 O.3   218  THR218     -0.2208
     64  CG2        0.7660   51.7990   12.8340 C.3   218  THR218      0.0379
     65  N          4.6070   51.7790   14.9250 N.am  219  TYR219     -0.1973
     66  CA         5.8610   52.2510   15.5030 C.3   219  TYR219      0.1639
     67  C          5.8340   53.7570   15.7400 C.2   219  TYR219      0.2290
     68  O          6.4310   54.2510   16.6960 O.2   219  TYR219     -0.2864
     69  CB         7.0440   51.8930   14.6050 C.3   219  TYR219      0.0560
     70  CG         7.6060   50.5120   14.8480 C.ar  219  TYR219     -0.0198
     71  CD1        7.7440   50.0180   16.1380 C.ar  219  TYR219     -0.0009
     72  CD2        8.0210   49.7130   13.7930 C.ar  219  TYR219     -0.0009
     73  CE1        8.2630   48.7610   16.3700 C.ar  219  TYR219      0.0417
     74  CE2        8.5430   48.4530   14.0150 C.ar  219  TYR219      0.0417
     75  CZ         8.6610   47.9840   15.3050 C.ar  219  TYR219      0.1957
     76  OH         9.1780   46.7330   15.5360 O.3   219  TYR219     -0.2866
     77  N          4.2930   54.2200   19.1820 N.3   222  LEU222     -0.1245
     78  CA         5.2690   53.8970   20.2220 C.3   222  LEU222      0.1561
     79  C          6.3630   54.9600   20.3080 C.2   222  LEU222      0.2260
     80  O          6.7790   55.3380   21.4030 O.2   222  LEU222     -0.2867
     81  CB         5.8960   52.5130   19.9950 C.3   222  LEU222      0.0270
     82  CG         5.1160   51.2110   20.2370 C.3   222  LEU222      0.0019
     83  CD1        3.6980   51.2120   19.6830 C.3   222  LEU222      0.0001
     84  CD2        5.9020   50.0290   19.6860 C.3   222  LEU222      0.0001
@<TRIPOS>BOND
     1    64    62    1
     2    62    63    1
     3    62    59    1
     4    72    74   ar
     5    72    70   ar
     6    74    75   ar
     7    17    16    2
     8    69    70    1
     9    69    66    1
    10    21    19   ar
    11    70    71   ar
    12    59    60    1
    13    59    58    1
    14    65    66    1
    15    65    60   am
    16    18    19    1
    17    18    15    1
    18    75    76    1
    19    75    73   ar
    20    16    15    1
    21    66    67    1
    22    19    20   ar
    23    60    61    2
    24    58    53   am
    25    67    68    2
    26    54    53    2
    27    15    14    1
    28    71    73   ar
    29    53    52    1
    30    51    52    1
    31    51    57    1
    32    52    55    1
    33    14    10   am
    34    11    10    2
    35    10     9    1
    36    57    56    1
    37    55    56    1
    38    77    78    1
    39    50    49    1
    40    47    49   ar
    41    47    45   ar
    42     9    12    1
    43     9     8    1
    44    83    82    1
    45    84    82    1
    46    29    27   am
    47    49    48   ar
    48    81    78    1
    49    81    82    1
    50    45    44   ar
    51    13    12    1
    52     6     5    1
    53    78    79    1
    54    79    80    2
    55     8     3   am
    56    27    28    2
    57    27    26    1
    58    48    46   ar
    59     3     4    2
    60     3     2    1
    61    44    46   ar
    62    44    43    1
    63     5     2    1
    64     5     7    1
    65    26    23    1
    66     2     1    1
    67    43    40    1
    68    40    39    1
    69    40    41    1
    70    25    24    2
    71    23    24    1
    72    23    22    1
    73    42    41    2
    74    24    30   am
    75    30    31    1
    76    31    34    1
    77    31    32    1
    78    34    35    1
    79    33    32    2
    80    35    36    1
    81    37    36   ar
    82    36    38   ar
