@<TRIPOS>MOLECULE
tmp/5njhC00.pdb
 99 93 0 0 0
SMALL
GASTEIGER

@<TRIPOS>ATOM
      1  N          8.1500   48.5980    6.0960 N.3   246  ALA246     -0.1231
      2  CA         8.2650   48.6430    7.5530 C.3   246  ALA246      0.1694
      3  C          9.4640   47.8400    8.0560 C.2   246  ALA246      0.2591
      4  O         10.4450   48.4090    8.5340 O.2   246  ALA246     -0.2718
      5  CB         6.9820   48.1380    8.1990 C.3   246  ALA246      0.0304
      6  N          9.3810   46.5190    7.9470 N.am  247  LEU247     -0.1980
      7  CA        10.4750   45.6440    8.3450 C.3   247  LEU247      0.1596
      8  C         11.1090   44.9600    7.1420 C.2   247  LEU247      0.2287
      9  O         10.4380   44.2430    6.4020 O.2   247  LEU247     -0.2864
     10  CB         9.9850   44.5980    9.3460 C.3   247  LEU247      0.0297
     11  CG         9.3680   45.1350   10.6360 C.3   247  LEU247      0.0022
     12  CD1        8.7850   43.9910   11.4320 C.3   247  LEU247      0.0001
     13  CD2       10.3980   45.8910   11.4610 C.3   247  LEU247      0.0001
     14  N          0.6350   45.3160   11.7670 N.3   324  PRO324     -0.2102
     15  CA         1.6070   44.8560   12.7660 C.3   324  PRO324      0.1504
     16  C          0.9440   44.2070   13.9710 C.2   324  PRO324      0.2575
     17  O          1.4300   43.1940   14.4760 O.2   324  PRO324     -0.2718
     18  CB         2.3300   46.1420   13.1620 C.3   324  PRO324      0.0282
     19  CG         2.2840   46.9650   11.9330 C.3   324  PRO324      0.0208
     20  CD         0.9480   46.6780   11.2980 C.3   324  PRO324      0.0893
     21  N         -0.1620   44.7920   14.4190 N.am  325  LYS325     -0.1980
     22  CA        -0.9160   44.2570   15.5430 C.3   325  LYS325      0.1596
     23  C         -1.4310   42.8520   15.2370 C.2   325  LYS325      0.2287
     24  O         -1.4510   41.9850   16.1130 O.2   325  LYS325     -0.2864
     25  CB        -2.0800   45.1910   15.8840 C.3   325  LYS325      0.0298
     26  CG        -3.1880   44.5550   16.7060 C.3   325  LYS325      0.0038
     27  CD        -4.4720   44.4370   15.9080 C.3   325  LYS325      0.0206
     28  CE        -5.5890   43.8450   16.7520 C.3   325  LYS325      0.1093
     29  NZ        -6.8410   43.6900   15.9640 N.3   325  LYS325     -0.1314
     30  N          0.0160   40.7590   13.0620 N.3   327  VAL327     -0.1231
     31  CA         1.1840   39.8930   12.9730 C.3   327  VAL327      0.1692
     32  C          1.6670   39.4980   14.3580 C.2   327  VAL327      0.2592
     33  O          1.9680   38.3300   14.6130 O.2   327  VAL327     -0.2718
     34  CB         2.3310   40.5690   12.2090 C.3   327  VAL327      0.0266
     35  CG1        3.6130   39.7610   12.3340 C.3   327  VAL327      0.0020
     36  CG2        1.9530   40.7400   10.7610 C.3   327  VAL327      0.0020
     37  N          1.7010   40.4700   15.2540 N.am  328  ASN328     -0.1974
     38  CA         2.1150   40.2070   16.6100 C.3   328  ASN328      0.1688
     39  C          1.1500   39.2460   17.2750 C.2   328  ASN328      0.2292
     40  O          1.5560   38.3870   18.0350 O.2   328  ASN328     -0.2864
     41  CB         2.1990   41.4930   17.4100 C.3   328  ASN328      0.1181
     42  CG         2.7210   41.2640   18.8010 C.2   328  ASN328      0.2629
     43  OD1        3.8650   40.8830   18.9810 O.2   328  ASN328     -0.2716
     44  ND2        1.8790   41.4850   19.7910 N.am  328  ASN328     -0.0877
     45  N          1.6690   35.6760   15.6810 N.3   331  ILE331     -0.1245
     46  CA         2.9110   35.0870   16.1800 C.3   331  ILE331      0.1561
     47  C          2.7740   34.6690   17.6400 C.2   331  ILE331      0.2260
     48  O          3.2160   33.5850   18.0300 O.2   331  ILE331     -0.2867
     49  CB         4.0990   36.0580   16.0220 C.3   331  ILE331      0.0252
     50  CG1        4.5250   36.1240   14.5560 C.3   331  ILE331      0.0019
     51  CG2        5.2800   35.6100   16.8590 C.3   331  ILE331      0.0019
     52  CD1        5.4200   37.2880   14.2360 C.3   331  ILE331      0.0001
     53  N          3.5010   30.9070   19.4640 N.3   335  LYS335     -0.1245
     54  CA         4.3970   30.7050   20.6090 C.3   335  LYS335      0.1561
     55  C          3.7800   29.8870   21.7510 C.2   335  LYS335      0.2260
     56  O          4.4940   29.1970   22.4820 O.2   335  LYS335     -0.2867
     57  CB         4.9190   32.0380   21.1590 C.3   335  LYS335      0.0271
     58  CG         6.0030   32.6750   20.3030 C.3   335  LYS335      0.0035
     59  CD         6.6060   33.8900   20.9950 C.3   335  LYS335      0.0206
     60  CE         7.5460   34.6470   20.0710 C.3   335  LYS335      0.1093
     61  NZ         7.8060   36.0400   20.5370 N.3   335  LYS335     -0.1314
     62  N         12.0590   33.9630   16.2950 N.3   350  PHE350     -0.1241
     63  CA        11.3960   34.5940   15.1600 C.3   350  PHE350      0.1605
     64  C         12.0110   35.8280   14.5210 C.2   350  PHE350      0.2264
     65  O         12.3170   36.7910   15.1980 O.2   350  PHE350     -0.2867
     66  CB         9.9570   34.9590   15.5400 C.3   350  PHE350      0.0534
     67  CG         9.0310   33.7890   15.6370 C.ar  350  PHE350     -0.0203
     68  CD1        8.9330   33.0640   16.8040 C.ar  350  PHE350     -0.0042
     69  CD2        8.2480   33.4280   14.5700 C.ar  350  PHE350     -0.0042
     70  CE1        8.0840   31.9900   16.8970 C.ar  350  PHE350     -0.0003
     71  CE2        7.3940   32.3560   14.6560 C.ar  350  PHE350     -0.0003
     72  CZ         7.3100   31.6360   15.8210 C.ar  350  PHE350     -0.0000
     73  N         11.0470   38.6920   11.5840 N.3   352  VAL352     -0.1245
     74  CA         9.8450   39.1550   10.8930 C.3   352  VAL352      0.1561
     75  C         10.1320   40.2140    9.8270 C.2   352  VAL352      0.2260
     76  O         10.9110   41.1380   10.0530 O.2   352  VAL352     -0.2867
     77  CB         8.8220   39.7290   11.8980 C.3   352  VAL352      0.0252
     78  CG1        7.5490   40.1590   11.1870 C.3   352  VAL352      0.0019
     79  CG2        8.5020   38.6990   12.9740 C.3   352  VAL352      0.0019
     80  N          7.9770   42.7690    6.9480 N.3   354  ILE354     -0.1245
     81  CA         6.6770   43.2660    6.5040 C.3   354  ILE354      0.1561
     82  C          6.7730   44.2500    5.3410 C.2   354  ILE354      0.2260
     83  O          7.4510   45.2740    5.4300 O.2   354  ILE354     -0.2867
     84  CB         5.9110   43.9430    7.6620 C.3   354  ILE354      0.0252
     85  CG1        5.5600   42.9170    8.7390 C.3   354  ILE354      0.0019
     86  CG2        4.6340   44.5840    7.1510 C.3   354  ILE354      0.0019
     87  CD1        4.9820   43.5200    9.9990 C.3   354  ILE354      0.0001
     88  N          4.2860   46.3450    2.3460 N.3   356  TYR356     -0.1241
     89  CA         2.9120   46.7370    2.0330 C.3   356  TYR356      0.1605
     90  C          2.5080   46.5800    0.5640 C.2   356  TYR356      0.2264
     91  O          1.3200   46.5910    0.2480 O.2   356  TYR356     -0.2867
     92  CB         2.6690   48.1660    2.5190 C.3   356  TYR356      0.0534
     93  CG         2.7280   48.2440    4.0290 C.ar  356  TYR356     -0.0201
     94  CD1        2.1270   47.2600    4.8070 C.ar  356  TYR356     -0.0009
     95  CD2        3.3930   49.2760    4.6780 C.ar  356  TYR356     -0.0009
     96  CE1        2.1730   47.3050    6.1840 C.ar  356  TYR356      0.0417
     97  CE2        3.4440   49.3300    6.0650 C.ar  356  TYR356      0.0417
     98  CZ         2.8310   48.3390    6.8110 C.ar  356  TYR356      0.1957
     99  OH         2.8710   48.3750    8.1870 O.3   356  TYR356     -0.2866
@<TRIPOS>BOND
     1    91    90    2
     2    90    89    1
     3    89    88    1
     4    89    92    1
     5    92    93    1
     6    93    95   ar
     7    93    94   ar
     8    95    97   ar
     9    94    96   ar
    10    82    83    2
    11    82    81    1
    12    97    98   ar
    13     1     2    1
    14    96    98   ar
    15     9     8    2
    16    81    80    1
    17    81    84    1
    18    98    99    1
    19     8     7    1
    20    86    84    1
    21     2     3    1
    22     2     5    1
    23    84    85    1
    24     6     3   am
    25     6     7    1
    26     3     4    2
    27     7    10    1
    28    85    87    1
    29    10    11    1
    30    75    76    2
    31    75    74    1
    32    11    12    1
    33    11    13    1
    34    36    34    1
    35    74    73    1
    36    74    77    1
    37    78    77    1
    38    20    14    1
    39    20    19    1
    40    14    15    1
    41    77    79    1
    42    19    18    1
    43    34    35    1
    44    34    31    1
    45    15    18    1
    46    15    16    1
    47    31    30    1
    48    31    32    1
    49    16    21   am
    50    16    17    2
    51    52    50    1
    52    32    33    2
    53    32    37   am
    54    21    22    1
    55    64    63    1
    56    64    65    2
    57    50    49    1
    58    69    71   ar
    59    69    67   ar
    60    71    72   ar
    61    63    66    1
    62    63    62    1
    63    23    22    1
    64    23    24    2
    65    37    38    1
    66    66    67    1
    67    22    25    1
    68    67    68   ar
    69    45    46    1
    70    72    70   ar
    71    25    26    1
    72    27    26    1
    73    27    28    1
    74    29    28    1
    75    49    46    1
    76    49    51    1
    77    46    47    1
    78    38    39    1
    79    38    41    1
    80    68    70   ar
    81    39    40    2
    82    41    42    1
    83    47    48    2
    84    42    43    2
    85    42    44   am
    86    53    54    1
    87    60    61    1
    88    60    59    1
    89    58    59    1
    90    58    57    1
    91    54    57    1
    92    54    55    1
    93    55    56    2
