@<TRIPOS>MOLECULE
tmp/5nk0A00.pdb
 181 169 0 0 0
SMALL
GASTEIGER

@<TRIPOS>ATOM
      1  N        120.0470   24.1570   40.8830 N.3    16  LYS16      -0.1245
      2  CA       118.8730   23.5110   41.4410 C.3    16  LYS16       0.1561
      3  C        119.1720   23.1370   42.8840 C.2    16  LYS16       0.2260
      4  O        120.2860   22.7120   43.1960 O.2    16  LYS16      -0.2867
      5  CB       118.4990   22.2690   40.6180 C.3    16  LYS16       0.0271
      6  CG       117.4960   21.3420   41.2800 C.3    16  LYS16       0.0035
      7  CD       117.2530   20.0990   40.4310 C.3    16  LYS16       0.0206
      8  CE       118.5050   19.2310   40.3400 C.3    16  LYS16       0.1093
      9  NZ       118.2180   17.7720   40.5120 N.3    16  LYS16      -0.1314
     10  N        118.9130   20.6390   45.8890 N.3    18  ILE18      -0.1245
     11  CA       118.7050   19.2120   46.0910 C.3    18  ILE18       0.1561
     12  C        118.5920   18.8460   47.5580 C.2    18  ILE18       0.2260
     13  O        118.4020   17.6690   47.8750 O.2    18  ILE18      -0.2867
     14  CB       119.7990   18.3650   45.4050 C.3    18  ILE18       0.0252
     15  CG1      121.1860   18.7150   45.9330 C.3    18  ILE18       0.0019
     16  CG2      119.7430   18.5470   43.8950 C.3    18  ILE18       0.0019
     17  CD1      122.3250   18.0250   45.1650 C.3    18  ILE18       0.0001
     18  N        122.1290   22.2560   49.9570 N.3    26  VAL26      -0.1245
     19  CA       122.9090   21.5290   48.9630 C.3    26  VAL26       0.1561
     20  C        122.2710   21.7800   47.6030 C.2    26  VAL26       0.2260
     21  O        121.0570   21.6030   47.4370 O.2    26  VAL26      -0.2867
     22  CB       122.9800   20.0220   49.2730 C.3    26  VAL26       0.0252
     23  CG1      123.8880   19.3030   48.2600 C.3    26  VAL26       0.0019
     24  CG2      123.4850   19.7990   50.6850 C.3    26  VAL26       0.0019
     25  N        128.0890   19.0860   43.1110 N.3    43  ALA43      -0.1231
     26  CA       127.2120   19.3700   44.2300 C.3    43  ALA43       0.1694
     27  C        127.8810   20.4430   45.0660 C.2    43  ALA43       0.2592
     28  O        129.1050   20.4740   45.1800 O.2    43  ALA43      -0.2718
     29  CB       126.9400   18.1250   45.0720 C.3    43  ALA43       0.0304
     30  N        127.0700   21.3400   45.6180 N.am   44  ILE44      -0.1966
     31  CA       127.5500   22.5120   46.3400 C.3    44  ILE44       0.1727
     32  C        126.8080   22.5790   47.6650 C.2    44  ILE44       0.2616
     33  O        125.5770   22.6960   47.6840 O.2    44  ILE44      -0.2715
     34  CB       127.3180   23.8000   45.5330 C.3    44  ILE44       0.0290
     35  CG1      128.0050   23.7190   44.1670 C.3    44  ILE44       0.0022
     36  CG2      127.7690   25.0290   46.3270 C.3    44  ILE44       0.0023
     37  CD1      127.2660   24.4760   43.0550 C.3    44  ILE44       0.0001
     38  N        127.5480   22.5240   48.7660 N.am   45  LYS45      -0.1977
     39  CA       126.9830   22.6390   50.1020 C.3    45  LYS45       0.1596
     40  C        127.4140   23.9760   50.6890 C.2    45  LYS45       0.2287
     41  O        128.5800   24.3500   50.5800 O.2    45  LYS45      -0.2864
     42  CB       127.4530   21.4780   50.9800 C.3    45  LYS45       0.0298
     43  CG       126.8010   21.3990   52.3610 C.3    45  LYS45       0.0038
     44  CD       127.4830   20.2880   53.1640 C.3    45  LYS45       0.0206
     45  CE       126.9750   20.2220   54.5860 C.3    45  LYS45       0.1093
     46  NZ       127.8380   19.4010   55.4740 N.3    45  LYS45      -0.1314
     47  N        135.3620   18.7180   57.4130 N.3    62  GLU62      -0.1245
     48  CA       134.9270   17.6640   56.5050 C.3    62  GLU62       0.1567
     49  C        135.5870   17.8130   55.1390 C.2    62  GLU62       0.2260
     50  O        136.0620   16.8270   54.5620 O.2    62  GLU62      -0.2867
     51  CB       133.4040   17.6640   56.3670 C.3    62  GLU62       0.0388
     52  CG       132.9290   16.6670   55.3100 C.3    62  GLU62       0.1160
     53  CD       131.4260   16.4430   55.2870 C.2    62  GLU62       0.3649
     54  OE1      130.6710   17.2470   55.8850 O.co2  62  GLU62      -0.2457
     55  OE2      131.0060   15.4450   54.6550 O.co2  62  GLU62      -0.2457
     56  N        137.9680   15.0740   53.3400 N.3    66  MET66      -0.1245
     57  CA       137.6700   14.5970   51.9880 C.3    66  MET66       0.1570
     58  C        138.8190   14.8520   51.0200 C.2    66  MET66       0.2261
     59  O        139.1070   14.0170   50.1500 O.2    66  MET66      -0.2867
     60  CB       136.4060   15.2830   51.4630 C.3    66  MET66       0.0387
     61  CG       135.1240   14.8970   52.1740 C.3    66  MET66       0.0595
     62  SD       133.7040   15.6620   51.3560 S.3    66  MET66      -0.1393
     63  CE       134.3130   15.6420   49.6640 C.3    66  MET66       0.0692
     64  N        133.8870    9.9860   47.5980 N.3    75  ILE75      -0.1245
     65  CA       133.4570   11.1700   46.8560 C.3    75  ILE75       0.1561
     66  C        134.6270   12.1360   46.6600 C.2    75  ILE75       0.2260
     67  O        135.4150   12.3970   47.5790 O.2    75  ILE75      -0.2867
     68  CB       132.2860   11.8630   47.5750 C.3    75  ILE75       0.0252
     69  CG1      131.7640   13.0300   46.7240 C.3    75  ILE75       0.0019
     70  CG2      132.7290   12.3280   48.9570 C.3    75  ILE75       0.0019
     71  CD1      130.3100   13.3920   46.9940 C.3    75  ILE75       0.0001
     72  N        131.3740   24.0170   50.0110 N.3    89  ILE89      -0.1245
     73  CA       132.1600   22.8420   49.6630 C.3    89  ILE89       0.1561
     74  C        131.6070   22.3190   48.3460 C.2    89  ILE89       0.2260
     75  O        130.3900   22.2250   48.1800 O.2    89  ILE89      -0.2867
     76  CB       132.0860   21.7630   50.7540 C.3    89  ILE89       0.0252
     77  CG1      132.5940   22.3100   52.0830 C.3    89  ILE89       0.0019
     78  CG2      132.8820   20.5270   50.3340 C.3    89  ILE89       0.0019
     79  CD1      132.2370   21.4000   53.2470 C.3    89  ILE89       0.0001
     80  N        131.7960   19.2740   45.4840 N.3    91  THR91      -0.1203
     81  CA       132.1900   17.9010   45.1930 C.3    91  THR91       0.1994
     82  C        131.6920   17.4960   43.8150 C.2    91  THR91       0.2618
     83  O        130.9080   18.2020   43.1870 O.2    91  THR91      -0.2717
     84  CB       131.6280   16.9110   46.2240 C.3    91  THR91       0.1784
     85  OG1      130.2110   16.8010   46.0560 O.3    91  THR91      -0.2211
     86  CG2      131.9320   17.3770   47.6280 C.3    91  THR91       0.0376
     87  N        132.1170   16.3150   43.3640 N.am   92  GLU92      -0.1965
     88  CA       131.4670   15.7310   42.2020 C.3    92  GLU92       0.1733
     89  C        129.9840   15.5440   42.4950 C.2    92  GLU92       0.2616
     90  O        129.5660   15.4320   43.6560 O.2    92  GLU92      -0.2715
     91  CB       132.1000   14.3900   41.8300 C.3    92  GLU92       0.0429
     92  CG       131.9080   13.3010   42.8500 C.3    92  GLU92       0.1163
     93  CD       132.5990   11.9990   42.4620 C.2    92  GLU92       0.3649
     94  OE1      132.4570   11.5530   41.3040 O.co2  92  GLU92      -0.2457
     95  OE2      133.3000   11.4320   43.3200 O.co2  92  GLU92      -0.2457
     96  N        129.1820   15.5630   41.4340 N.am   93  TYR93      -0.1960
     97  CA       127.7450   15.3620   41.5420 C.3    93  TYR93       0.1771
     98  C        127.4220   13.8860   41.3370 C.2    93  TYR93       0.2619
     99  O        127.8820   13.2730   40.3700 O.2    93  TYR93      -0.2715
    100  CB       127.0040   16.2190   40.5130 C.3    93  TYR93       0.0574
    101  CG       125.5160   16.0320   40.5680 C.ar   93  TYR93      -0.0198
    102  CD1      124.7970   16.4000   41.6940 C.ar   93  TYR93      -0.0009
    103  CD2      124.8290   15.4880   39.4960 C.ar   93  TYR93      -0.0009
    104  CE1      123.4340   16.2220   41.7580 C.ar   93  TYR93       0.0417
    105  CE2      123.4600   15.3080   39.5450 C.ar   93  TYR93       0.0417
    106  CZ       122.7680   15.6800   40.6740 C.ar   93  TYR93       0.1957
    107  OH       121.4040   15.5070   40.7200 O.3    93  TYR93      -0.2866
    108  N        126.6490   13.3130   42.2520 N.am   94  MET94      -0.1963
    109  CA       126.2460   11.9110   42.1710 C.3    94  MET94       0.1736
    110  C        124.7680   11.8770   41.7880 C.2    94  MET94       0.2616
    111  O        123.9110   12.2370   42.5960 O.2    94  MET94      -0.2715
    112  CB       126.5080   11.2010   43.4990 C.3    94  MET94       0.0427
    113  CG       127.9710   11.3190   43.9380 C.3    94  MET94       0.0599
    114  SD       129.0760   10.2780   42.9550 S.3    94  MET94      -0.1393
    115  CE       128.6830    8.6720   43.6530 C.3    94  MET94       0.0692
    116  N        124.4810   11.4180   40.5620 N.am   95  GLU95      -0.1963
    117  CA       123.1590   11.6140   39.9680 C.3    95  GLU95       0.1733
    118  C        122.0440   10.9060   40.7400 C.2    95  GLU95       0.2616
    119  O        120.9090   11.4020   40.7850 O.2    95  GLU95      -0.2715
    120  CB       123.1780   11.1340   38.5150 C.3    95  GLU95       0.0429
    121  CG       124.0660   11.9670   37.5710 C.3    95  GLU95       0.1163
    122  CD       125.5620   11.5990   37.5840 C.2    95  GLU95       0.3649
    123  OE1      126.0220   10.7800   38.4130 O.co2  95  GLU95      -0.2457
    124  OE2      126.2980   12.1510   36.7410 O.co2  95  GLU95      -0.2457
    125  N        122.3180    9.7380   41.3210 N.am   96  ASN96      -0.1958
    126  CA       121.2720    8.9520   41.9690 C.3    96  ASN96       0.1819
    127  C        121.1940    9.1480   43.4770 C.2    96  ASN96       0.2622
    128  O        120.3920    8.4730   44.1350 O.2    96  ASN96      -0.2715
    129  CB       121.4490    7.4760   41.6280 C.3    96  ASN96       0.1195
    130  CG       121.0470    7.1840   40.2060 C.2    96  ASN96       0.2630
    131  OD1      119.9610    7.5640   39.7950 O.2    96  ASN96      -0.2716
    132  ND2      121.9270    6.5450   39.4430 N.am   96  ASN96      -0.0877
    133  N        121.9750   10.0700   44.0360 N.am   97  GLY97      -0.1940
    134  CA       121.7510   10.4830   45.4100 C.3    97  GLY97       0.2014
    135  C        122.1380    9.4180   46.4220 C.2    97  GLY97       0.2638
    136  O        122.9960    8.5710   46.1790 O.2    97  GLY97      -0.2714
    137  N        121.4690    9.4600   47.5780 N.am   98  ALA98      -0.1977
    138  CA       121.8360    8.5880   48.6840 C.3    98  ALA98       0.1597
    139  C        121.3950    7.1560   48.4060 C.2    98  ALA98       0.2287
    140  O        120.2960    6.9120   47.9010 O.2    98  ALA98      -0.2864
    141  CB       121.2070    9.0830   49.9950 C.3    98  ALA98       0.0319
    142  N        117.9770    5.7640   49.9730 N.3   101  LYS101     -0.1245
    143  CA       116.8020    6.2940   49.3020 C.3   101  LYS101      0.1561
    144  C        116.7150    5.7310   47.9020 C.2   101  LYS101      0.2260
    145  O        115.6650    5.4260   47.4460 O.2   101  LYS101     -0.2867
    146  CB       116.8450    7.8130   49.2080 C.3   101  LYS101      0.0271
    147  CG       116.1620    8.5790   50.2960 C.3   101  LYS101      0.0035
    148  CD       115.9380   10.0560   49.8950 C.3   101  LYS101      0.0206
    149  CE       114.5220   10.4210   49.3970 C.3   101  LYS101      0.1093
    150  NZ       114.2570   10.4520   47.9340 N.3   101  LYS101     -0.1314
    151  N        113.6270    3.2650   46.1940 N.3   105  GLU105     -0.1245
    152  CA       112.8720    3.6510   45.0130 C.3   105  GLU105      0.1567
    153  C        113.1180    2.7230   43.8350 C.2   105  GLU105      0.2260
    154  O        112.5410    2.9280   42.7610 O.2   105  GLU105     -0.2867
    155  CB       113.1980    5.1100   44.6720 C.3   105  GLU105      0.0388
    156  CG       112.8220    5.9900   45.8610 C.3   105  GLU105      0.1160
    157  CD       113.2700    7.4350   45.7770 C.2   105  GLU105      0.3649
    158  OE1      113.7130    7.8780   44.6960 O.co2 105  GLU105     -0.2457
    159  OE2      113.1590    8.1300   46.8150 O.co2 105  GLU105     -0.2457
    160  N        126.7510    7.6340   48.4470 N.3   145  LEU145     -0.1245
    161  CA       126.1040    8.2190   47.2740 C.3   145  LEU145      0.1561
    162  C        126.3220    7.3290   46.0560 C.2   145  LEU145      0.2260
    163  O        127.3020    6.5780   45.9830 O.2   145  LEU145     -0.2867
    164  CB       126.6220    9.6390   46.9880 C.3   145  LEU145      0.0270
    165  CG       126.2470   10.6980   48.0430 C.3   145  LEU145      0.0019
    166  CD1      126.9940   12.0060   47.8010 C.3   145  LEU145      0.0001
    167  CD2      124.7500   10.9480   48.0680 C.3   145  LEU145      0.0001
    168  N        130.6090    9.0040   51.3320 N.3   155  SER155     -0.1202
    169  CA       130.4640   10.3900   50.8780 C.3   155  SER155      0.2020
    170  C        130.3810   11.4190   51.9970 C.2   155  SER155      0.2618
    171  O        130.9110   12.5250   51.8390 O.2   155  SER155     -0.2717
    172  CB       129.2310   10.5120   49.9640 C.3   155  SER155      0.2103
    173  OG       129.4740    9.9690   48.6710 O.3   155  SER155     -0.2182
    174  N        129.7450   11.0920   53.1170 N.am  156  ASP156     -0.1973
    175  CA       129.5310   12.0410   54.2110 C.3   156  ASP156      0.1709
    176  C        130.5180   11.7450   55.3320 C.2   156  ASP156      0.2293
    177  O        130.4330   10.6930   55.9730 O.2   156  ASP156     -0.2864
    178  CB       128.0930   11.9550   54.7250 C.3   156  ASP156      0.1436
    179  CG       127.7980   12.9640   55.8290 C.2   156  ASP156      0.3671
    180  OD1      127.0430   13.9200   55.5620 O.co2 156  ASP156     -0.2456
    181  OD2      128.3090   12.7990   56.9640 O.co2 156  ASP156     -0.2456
@<TRIPOS>BOND
     1   124   122   ar
     2   121   122    1
     3   121   120    1
     4   122   123   ar
     5   120   117    1
     6   132   130   am
     7   103   105   ar
     8   103   101   ar
     9   105   106   ar
    10   131   130    2
    11   117   116    1
    12   117   118    1
    13   130   129    1
    14     8     7    1
    15     8     9    1
    16    99    98    2
    17     7     6    1
    18   100   101    1
    19   100    97    1
    20   116   110   am
    21   101   102   ar
    22     5     6    1
    23     5     2    1
    24   106   107    1
    25   106   104   ar
    26   118   119    2
    27   118   125   am
    28     1     2    1
    29    94    93   ar
    30   125   126    1
    31    98    97    1
    32    98   108   am
    33    96    97    1
    34    96    89   am
    35     2     3    1
    36   129   126    1
    37   102   104   ar
    38   110   109    1
    39   110   111    2
    40    91    88    1
    41    91    92    1
    42   126   127    1
    43   109   108    1
    44   109   112    1
    45    88    89    1
    46    88    87    1
    47    93    92    1
    48    93    95   ar
    49    89    90    2
    50   154   153    2
    51     3     4    2
    52   114   115    1
    53   114   113    1
    54    37    35    1
    55    25    26    1
    56    83    82    2
    57    87    82   am
    58   127   133   am
    59   127   128    2
    60   112   113    1
    61    82    81    1
    62   153   152    1
    63    16    14    1
    64   133   134    1
    65    35    34    1
    66    26    27    1
    67    26    29    1
    68   155   152    1
    69   155   156    1
    70   158   157   ar
    71   152   151    1
    72    27    28    2
    73    27    30   am
    74    17    15    1
    75    81    80    1
    76    81    84    1
    77    14    15    1
    78    14    11    1
    79   134   135    1
    80    34    36    1
    81    34    31    1
    82    30    31    1
    83   157   156    1
    84   157   159   ar
    85    10    11    1
    86   163   162    2
    87    85    84    1
    88   162   161    1
    89    11    12    1
    90   136   135    2
    91    84    86    1
    92    31    32    1
    93   135   137   am
    94    66    65    1
    95    66    67    2
    96    69    71    1
    97    69    68    1
    98    65    68    1
    99    65    64    1
   100   164   161    1
   101   164   165    1
   102   161   160    1
   103    21    20    2
   104   145   144    2
   105    12    13    2
   106    68    70    1
   107   137   138    1
   108    20    19    1
   109    32    33    2
   110    32    38   am
   111   166   165    1
   112   140   139    2
   113   144   143    1
   114   150   149    1
   115   165   167    1
   116    75    74    2
   117    23    22    1
   118    74    73    1
   119   139   138    1
   120   173   172    1
   121   138   141    1
   122    38    39    1
   123    19    22    1
   124    19    18    1
   125   146   143    1
   126   146   147    1
   127    22    24    1
   128   143   142    1
   129   149   148    1
   130    73    72    1
   131    73    76    1
   132    63    62    1
   133   148   147    1
   134   172   169    1
   135    39    40    1
   136    39    42    1
   137    59    58    2
   138    78    76    1
   139    41    40    2
   140    76    77    1
   141   169   168    1
   142   169   170    1
   143    42    43    1
   144    58    57    1
   145    62    61    1
   146    60    57    1
   147    60    61    1
   148   171   170    2
   149    57    56    1
   150   170   174   am
   151    77    79    1
   152    43    44    1
   153   174   175    1
   154    44    45    1
   155   175   178    1
   156   175   176    1
   157    50    49    2
   158    45    46    1
   159    55    53   ar
   160   178   179    1
   161    49    48    1
   162    53    52    1
   163    53    54   ar
   164    52    51    1
   165   176   177    2
   166   180   179   ar
   167   179   181   ar
   168    51    48    1
   169    48    47    1
