@<TRIPOS>MOLECULE
tmp/5nk1A00.pdb
 172 161 0 0 0
SMALL
GASTEIGER

@<TRIPOS>ATOM
      1  N        -95.1320  -24.4300   40.0490 N.3    14  LYS14      -0.1245
      2  CA       -94.0190  -23.8360   40.7770 C.3    14  LYS14       0.1561
      3  C        -94.4860  -23.3800   42.1510 C.2    14  LYS14       0.2260
      4  O        -95.5630  -22.7980   42.2810 O.2    14  LYS14      -0.2867
      5  CB       -93.4300  -22.6500   40.0050 C.3    14  LYS14       0.0271
      6  CG       -92.2420  -21.9880   40.6810 C.3    14  LYS14       0.0035
      7  CD       -91.9950  -20.5980   40.1130 C.3    14  LYS14       0.0206
      8  CE       -91.8280  -20.6330   38.6000 C.3    14  LYS14       0.1093
      9  NZ       -90.8970  -21.7090   38.1560 N.3    14  LYS14      -0.1314
     10  N        -94.7420  -20.9470   45.0820 N.3    16  ILE16      -0.1245
     11  CA       -94.6350  -19.5150   45.3310 C.3    16  ILE16       0.1561
     12  C        -94.8780  -19.1650   46.7890 C.2    16  ILE16       0.2260
     13  O        -94.8740  -17.9800   47.1410 O.2    16  ILE16      -0.2867
     14  CB       -95.5850  -18.7090   44.4210 C.3    16  ILE16       0.0252
     15  CG1      -97.0460  -19.0540   44.7150 C.3    16  ILE16       0.0019
     16  CG2      -95.2660  -18.9630   42.9560 C.3    16  ILE16       0.0019
     17  CD1      -98.0230  -18.4480   43.7240 C.3    16  ILE16       0.0001
     18  N        -98.2700  -23.0800   48.5600 N.3    24  VAL24      -0.1245
     19  CA       -98.9670  -22.3040   47.5420 C.3    24  VAL24       0.1561
     20  C        -98.1960  -22.4600   46.2410 C.2    24  VAL24       0.2260
     21  O        -96.9690  -22.2910   46.2150 O.2    24  VAL24      -0.2867
     22  CB       -99.0980  -20.8230   47.9380 C.3    24  VAL24       0.0252
     23  CG1      -99.8580  -20.0520   46.8650 C.3    24  VAL24       0.0019
     24  CG2      -99.7930  -20.6950   49.2860 C.3    24  VAL24       0.0019
     25  N       -103.4940  -19.6240   41.2170 N.3    36  ALA36      -0.1231
     26  CA      -102.7370  -19.9570   42.4120 C.3    36  ALA36       0.1694
     27  C       -103.4430  -21.1040   43.1160 C.2    36  ALA36       0.2592
     28  O       -104.6750  -21.1710   43.1180 O.2    36  ALA36      -0.2718
     29  CB      -102.6090  -18.7540   43.3420 C.3    36  ALA36       0.0304
     30  N       -102.6610  -22.0170   43.6880 N.am   37  ILE37      -0.1966
     31  CA      -103.1720  -23.2570   44.2630 C.3    37  ILE37       0.1727
     32  C       -102.5660  -23.4260   45.6490 C.2    37  ILE37       0.2616
     33  O       -101.3410  -23.5150   45.7830 O.2    37  ILE37      -0.2715
     34  CB      -102.8300  -24.4700   43.3800 C.3    37  ILE37       0.0290
     35  CG1     -103.3960  -24.2880   41.9690 C.3    37  ILE37       0.0022
     36  CG2     -103.3300  -25.7530   44.0170 C.3    37  ILE37       0.0023
     37  CD1     -102.4620  -24.7780   40.8750 C.3    37  ILE37       0.0001
     38  N       -103.4130  -23.4850   46.6730 N.am   38  LYS38      -0.1977
     39  CA      -102.9660  -23.7350   48.0400 C.3    38  LYS38       0.1596
     40  C       -103.4420  -25.1140   48.4730 C.2    38  LYS38       0.2287
     41  O       -104.6110  -25.4520   48.2740 O.2    38  LYS38      -0.2864
     42  CB      -103.4890  -22.6640   49.0000 C.3    38  LYS38       0.0298
     43  CG      -103.0020  -22.8240   50.4380 C.3    38  LYS38       0.0038
     44  CD      -103.5660  -21.7130   51.3100 C.3    38  LYS38       0.0206
     45  CE      -103.0280  -21.7790   52.7280 C.3    38  LYS38       0.1093
     46  NZ      -103.7210  -20.8030   53.6170 N.3    38  LYS38      -0.1314
     47  N       -111.4580  -20.2400   54.8540 N.3    55  GLU55      -0.1245
     48  CA      -110.9800  -19.1390   54.0260 C.3    55  GLU55       0.1567
     49  C       -111.6490  -19.1640   52.6610 C.2    55  GLU55       0.2260
     50  O       -112.0650  -18.1190   52.1450 O.2    55  GLU55      -0.2867
     51  CB      -109.4560  -19.1840   53.8700 C.3    55  GLU55       0.0388
     52  CG      -108.9300  -18.0450   52.9930 C.3    55  GLU55       0.1160
     53  CD      -107.4140  -17.9280   52.9610 C.2    55  GLU55       0.3649
     54  OE1     -106.7270  -18.9530   53.1410 O.co2  55  GLU55      -0.2457
     55  OE2     -106.9090  -16.7980   52.7570 O.co2  55  GLU55      -0.2457
     56  N       -114.0590  -16.3090   50.9970 N.3    59  MET59      -0.1245
     57  CA      -113.7480  -15.7120   49.7030 C.3    59  MET59       0.1570
     58  C       -114.8720  -15.9340   48.6970 C.2    59  MET59       0.2261
     59  O       -115.1420  -15.0660   47.8580 O.2    59  MET59      -0.2867
     60  CB      -112.4310  -16.2790   49.1700 C.3    59  MET59       0.0387
     61  CG      -111.2090  -15.8570   49.9620 C.3    59  MET59       0.0595
     62  SD      -109.7100  -16.5890   49.2770 S.3    59  MET59      -0.1393
     63  CE      -110.0550  -16.4230   47.5340 C.3    59  MET59       0.0692
     64  N       -109.4510  -10.8240   46.2050 N.3    68  ILE68      -0.1245
     65  CA      -108.9880  -11.9970   45.4690 C.3    68  ILE68       0.1561
     66  C       -110.1590  -12.9080   45.1370 C.2    68  ILE68       0.2260
     67  O       -110.9820  -13.2330   46.0010 O.2    68  ILE68      -0.2867
     68  CB      -107.9160  -12.7460   46.2780 C.3    68  ILE68       0.0252
     69  CG1     -106.6330  -11.9280   46.3250 C.3    68  ILE68       0.0019
     70  CG2     -107.6500  -14.1190   45.6660 C.3    68  ILE68       0.0019
     71  CD1     -105.9700  -11.8100   44.9760 C.3    68  ILE68       0.0001
     72  N       -107.3000  -25.0500   47.5000 N.3    82  ILE82      -0.1245
     73  CA      -108.0240  -23.8250   47.1790 C.3    82  ILE82       0.1561
     74  C       -107.3670  -23.2080   45.9550 C.2    82  ILE82       0.2260
     75  O       -106.1430  -23.0500   45.9190 O.2    82  ILE82      -0.2867
     76  CB      -108.0160  -22.8280   48.3520 C.3    82  ILE82       0.0252
     77  CG1     -108.6780  -23.4450   49.5860 C.3    82  ILE82       0.0019
     78  CG2     -108.7030  -21.5230   47.9340 C.3    82  ILE82       0.0019
     79  CD1     -108.4880  -22.6210   50.8390 C.3    82  ILE82       0.0001
     80  N       -107.3850  -19.9570   43.2950 N.3    84  THR84      -0.1203
     81  CA      -107.7700  -18.5670   43.0950 C.3    84  THR84       0.1994
     82  C       -107.1570  -18.0480   41.8040 C.2    84  THR84       0.2618
     83  O       -106.3170  -18.7010   41.1770 O.2    84  THR84      -0.2717
     84  CB      -107.3200  -17.6680   44.2580 C.3    84  THR84       0.1784
     85  OG1     -105.9000  -17.4960   44.2010 O.3    84  THR84      -0.2211
     86  CG2     -107.6990  -18.2790   45.5900 C.3    84  THR84       0.0376
     87  N       -107.5670  -16.8410   41.4230 N.am   85  GLU85      -0.1965
     88  CA      -106.8620  -16.1550   40.3520 C.3    85  GLU85       0.1733
     89  C       -105.3950  -16.0080   40.7290 C.2    85  GLU85       0.2616
     90  O       -105.0280  -16.0270   41.9070 O.2    85  GLU85      -0.2715
     91  CB      -107.4840  -14.7840   40.0810 C.3    85  GLU85       0.0429
     92  CG      -107.4170  -13.8290   41.2580 C.3    85  GLU85       0.1163
     93  CD      -108.0420  -12.4830   40.9460 C.2    85  GLU85       0.3649
     94  OE1     -107.8640  -11.9890   39.8090 O.co2  85  GLU85      -0.2457
     95  OE2     -108.7190  -11.9260   41.8330 O.co2  85  GLU85      -0.2457
     96  N       -104.5440  -15.8930   39.7180 N.am   86  TYR86      -0.1960
     97  CA      -103.1110  -15.7610   39.9260 C.3    86  TYR86       0.1771
     98  C       -102.7190  -14.2950   39.7890 C.2    86  TYR86       0.2619
     99  O       -102.9590  -13.6780   38.7460 O.2    86  TYR86      -0.2715
    100  CB      -102.3330  -16.6210   38.9320 C.3    86  TYR86       0.0574
    101  CG      -100.8460  -16.4580   39.0810 C.ar   86  TYR86      -0.0198
    102  CD1     -100.2010  -16.8630   40.2430 C.ar   86  TYR86      -0.0009
    103  CD2     -100.0850  -15.8840   38.0710 C.ar   86  TYR86      -0.0009
    104  CE1      -98.8470  -16.7070   40.3930 C.ar   86  TYR86       0.0417
    105  CE2      -98.7230  -15.7290   38.2120 C.ar   86  TYR86       0.0417
    106  CZ       -98.1100  -16.1410   39.3760 C.ar   86  TYR86       0.1957
    107  OH       -96.7530  -15.9910   39.5300 O.3    86  TYR86      -0.2866
    108  N       -102.1170  -13.7400   40.8380 N.am   87  MET87      -0.1963
    109  CA      -101.6820  -12.3490   40.8330 C.3    87  MET87       0.1736
    110  C       -100.2060  -12.3290   40.4510 C.2    87  MET87       0.2616
    111  O        -99.3490  -12.7790   41.2180 O.2    87  MET87      -0.2715
    112  CB      -101.9390  -11.6960   42.1880 C.3    87  MET87       0.0427
    113  CG      -103.4040  -11.8030   42.6120 C.3    87  MET87       0.0599
    114  SD      -104.5440  -10.8130   41.6200 S.3    87  MET87      -0.1393
    115  CE      -104.1750   -9.1840   42.2490 C.3    87  MET87       0.0692
    116  N        -99.9210  -11.8040   39.2570 N.am   88  GLU88      -0.1963
    117  CA       -98.6260  -12.0350   38.6280 C.3    88  GLU88       0.1733
    118  C        -97.4800  -11.3510   39.3640 C.2    88  GLU88       0.2616
    119  O        -96.3320  -11.8030   39.2670 O.2    88  GLU88      -0.2715
    120  CB       -98.6710  -11.5680   37.1710 C.3    88  GLU88       0.0429
    121  CG       -99.6750  -12.3230   36.3020 C.3    88  GLU88       0.1163
    122  CD      -101.0580  -11.6780   36.2450 C.2    88  GLU88       0.3649
    123  OE1     -101.4190  -10.8920   37.1490 O.co2  88  GLU88      -0.2457
    124  OE2     -101.8020  -11.9650   35.2810 O.co2  88  GLU88      -0.2457
    125  N        -97.7530  -10.2720   40.0930 N.am   89  ASN89      -0.1958
    126  CA       -96.6880   -9.4890   40.7010 C.3    89  ASN89       0.1819
    127  C        -96.5180   -9.7490   42.1910 C.2    89  ASN89       0.2622
    128  O        -95.6840   -9.0970   42.8270 O.2    89  ASN89      -0.2715
    129  CB       -96.9280   -7.9980   40.4390 C.3    89  ASN89       0.1195
    130  CG       -96.6650   -7.6240   38.9900 C.2    89  ASN89       0.2630
    131  OD1      -97.5320   -7.0720   38.3060 O.2    89  ASN89      -0.2716
    132  ND2      -95.4720   -7.9540   38.5070 N.am   89  ASN89      -0.0877
    133  N        -97.2760  -10.6880   42.7590 N.am   90  GLY90      -0.1940
    134  CA       -97.0150  -11.1300   44.1140 C.3    90  GLY90       0.2014
    135  C        -97.4880  -10.1530   45.1760 C.2    90  GLY90       0.2638
    136  O        -98.3910   -9.3380   44.9770 O.2    90  GLY90      -0.2714
    137  N        -96.8410  -10.2500   46.3340 N.am   91  ALA91      -0.1977
    138  CA       -97.2170   -9.4360   47.4810 C.3    91  ALA91       0.1597
    139  C        -96.7610   -7.9920   47.3040 C.2    91  ALA91       0.2287
    140  O        -95.6520   -7.7260   46.8280 O.2    91  ALA91      -0.2864
    141  CB       -96.6190  -10.0200   48.7600 C.3    91  ALA91       0.0319
    142  N        -88.8860   -4.0770   45.5410 N.3    98  GLU98      -0.1245
    143  CA       -88.1110   -4.4880   44.3780 C.3    98  GLU98       0.1567
    144  C        -88.2860   -3.5510   43.1880 C.2    98  GLU98       0.2260
    145  O        -87.5710   -3.7040   42.1920 O.2    98  GLU98      -0.2867
    146  CB       -88.4740   -5.9340   44.0020 C.3    98  GLU98       0.0388
    147  CG       -88.1160   -6.8810   45.1480 C.3    98  GLU98       0.1160
    148  CD       -88.4960   -8.3320   44.9430 C.2    98  GLU98       0.3649
    149  OE1      -89.1620   -8.6640   43.9410 O.co2  98  GLU98      -0.2457
    150  OE2      -88.1040   -9.1490   45.8030 O.co2  98  GLU98      -0.2457
    151  N       -102.1840   -8.3650   47.2030 N.3   138  LEU138     -0.1245
    152  CA      -101.5890   -8.9530   46.0110 C.3   138  LEU138      0.1561
    153  C       -101.8030   -8.0260   44.8200 C.2   138  LEU138      0.2260
    154  O       -102.7880   -7.2880   44.7610 O.2   138  LEU138     -0.2867
    155  CB      -102.1740  -10.3410   45.7170 C.3   138  LEU138      0.0270
    156  CG      -101.7890  -11.4140   46.7400 C.3   138  LEU138      0.0019
    157  CD1     -102.6740  -12.6440   46.6040 C.3   138  LEU138      0.0001
    158  CD2     -100.3120  -11.7840   46.5950 C.3   138  LEU138      0.0001
    159  N       -106.1350   -9.8390   50.3570 N.3   148  SER148     -0.1202
    160  CA      -106.1260  -11.2900   50.5130 C.3   148  SER148      0.2020
    161  C       -105.9440  -11.6060   51.9900 C.2   148  SER148      0.2618
    162  O       -105.9210  -10.7020   52.8300 O.2   148  SER148     -0.2717
    163  CB      -105.0350  -11.9380   49.6550 C.3   148  SER148      0.2103
    164  OG      -103.7660  -11.6660   50.1920 O.3   148  SER148     -0.2182
    165  N       -105.8280  -12.9080   52.2880 N.am  149  ASP149     -0.1973
    166  CA      -105.5860  -13.4540   53.6250 C.3   149  ASP149      0.1709
    167  C       -106.8270  -13.3750   54.5090 C.2   149  ASP149      0.2293
    168  O       -106.9260  -12.5150   55.3900 O.2   149  ASP149     -0.2864
    169  CB      -104.4050  -12.7550   54.2950 C.3   149  ASP149      0.1436
    170  CG      -103.9350  -13.4820   55.5360 C.2   149  ASP149      0.3671
    171  OD1     -104.3120  -14.6610   55.7040 O.co2 149  ASP149     -0.2456
    172  OD2     -103.1910  -12.8810   56.3350 O.co2 149  ASP149     -0.2456
@<TRIPOS>BOND
     1   124   122   ar
     2   122   121    1
     3   122   123   ar
     4   121   120    1
     5   120   117    1
     6   103   105   ar
     7   103   101   ar
     8     9     8    1
     9   105   106   ar
    10   131   130    2
    11   132   130   am
    12     8     7    1
    13   117   116    1
    14   117   118    1
    15    99    98    2
    16   100   101    1
    17   100    97    1
    18   130   129    1
    19   101   102   ar
    20   116   110   am
    21   119   118    2
    22   118   125   am
    23   106   107    1
    24   106   104   ar
    25    96    97    1
    26    96    89   am
    27    98    97    1
    28    98   108   am
    29    94    93   ar
    30     5     6    1
    31     5     2    1
    32     1     2    1
    33    91    88    1
    34    91    92    1
    35   125   126    1
    36     7     6    1
    37   102   104   ar
    38    88    89    1
    39    88    87    1
    40   129   126    1
    41   110   109    1
    42   110   111    2
    43   126   127    1
    44    89    90    2
    45     2     3    1
    46   109   108    1
    47   109   112    1
    48    37    35    1
    49    93    92    1
    50    93    95   ar
    51    83    82    2
    52    25    26    1
    53    87    82   am
    54   114   115    1
    55   114   113    1
    56    82    81    1
    57    35    34    1
    58     3     4    2
    59   112   113    1
    60   127   133   am
    61   127   128    2
    62   145   144    2
    63    26    27    1
    64    26    29    1
    65   133   134    1
    66    16    14    1
    67    81    80    1
    68    81    84    1
    69    27    28    2
    70    27    30   am
    71   144   143    1
    72    34    36    1
    73    34    31    1
    74    30    31    1
    75    17    15    1
    76   149   148   ar
    77   146   143    1
    78   146   147    1
    79   134   135    1
    80    85    84    1
    81    84    86    1
    82    31    32    1
    83   143   142    1
    84    14    15    1
    85    14    11    1
    86   154   153    2
    87   153   152    1
    88   148   147    1
    89   148   150   ar
    90    71    69    1
    91   136   135    2
    92    10    11    1
    93    66    65    1
    94    66    67    2
    95   135   137   am
    96    11    12    1
    97    65    64    1
    98    65    68    1
    99    32    33    2
   100    32    38   am
   101    70    68    1
   102   155   152    1
   103   155   156    1
   104    75    74    2
   105    74    73    1
   106   152   151    1
   107    21    20    2
   108    20    19    1
   109    68    69    1
   110   137   138    1
   111   158   156    1
   112   157   156    1
   113    38    39    1
   114    12    13    2
   115   140   139    2
   116    23    22    1
   117    73    72    1
   118    73    76    1
   119   139   138    1
   120   138   141    1
   121    63    62    1
   122    19    22    1
   123    19    18    1
   124    59    58    2
   125    78    76    1
   126    22    24    1
   127    39    40    1
   128    39    42    1
   129    41    40    2
   130    76    77    1
   131    58    57    1
   132    42    43    1
   133    60    57    1
   134    60    61    1
   135    62    61    1
   136    77    79    1
   137   163   164    1
   138   163   160    1
   139    57    56    1
   140   159   160    1
   141    43    44    1
   142   160   161    1
   143    44    45    1
   144   161   165   am
   145   161   162    2
   146    50    49    2
   147   165   166    1
   148    49    48    1
   149    45    46    1
   150    55    53   ar
   151    53    52    1
   152    53    54   ar
   153    52    51    1
   154   166   169    1
   155   166   167    1
   156    51    48    1
   157    48    47    1
   158   169   170    1
   159   167   168    2
   160   170   171   ar
   161   170   172   ar
