@<TRIPOS>MOLECULE
tmp/5nk8A00.pdb
 183 173 0 0 0
SMALL
GASTEIGER

@<TRIPOS>ATOM
      1  N        118.9010   21.5400   45.9360 N.3    15  ILE15      -0.1245
      2  CA       118.7920   20.1050   46.1640 C.3    15  ILE15       0.1561
      3  C        118.1760   19.8790   47.5340 C.2    15  ILE15       0.2260
      4  O        117.1240   19.2440   47.6570 O.2    15  ILE15      -0.2867
      5  CB       120.1540   19.3900   46.0720 C.3    15  ILE15       0.0252
      6  CG1      120.8070   19.5670   44.7070 C.3    15  ILE15       0.0019
      7  CG2      119.9750   17.9370   46.3270 C.3    15  ILE15       0.0019
      8  CD1      122.0440   18.6540   44.5150 C.3    15  ILE15       0.0001
      9  N        122.0030   23.0960   49.9690 N.3    19  VAL19      -0.1245
     10  CA       122.8010   22.3490   48.9930 C.3    19  VAL19       0.1561
     11  C        122.2030   22.6000   47.6190 C.2    19  VAL19       0.2260
     12  O        121.0080   22.3640   47.4030 O.2    19  VAL19      -0.2867
     13  CB       122.8450   20.8460   49.3000 C.3    19  VAL19       0.0252
     14  CG1      123.7150   20.1050   48.2510 C.3    19  VAL19       0.0019
     15  CG2      123.3690   20.6030   50.7280 C.3    19  VAL19       0.0019
     16  N        127.9070   19.9100   43.1020 N.3    36  ALA36      -0.1231
     17  CA       127.0380   20.1930   44.2380 C.3    36  ALA36       0.1694
     18  C        127.6740   21.2890   45.0770 C.2    36  ALA36       0.2592
     19  O        128.9000   21.3410   45.2170 O.2    36  ALA36      -0.2718
     20  CB       126.8120   18.9530   45.0980 C.3    36  ALA36       0.0304
     21  N        126.8410   22.1820   45.6130 N.am   37  ILE37      -0.1966
     22  CA       127.3130   23.3640   46.3290 C.3    37  ILE37       0.1727
     23  C        126.5980   23.4230   47.6720 C.2    37  ILE37       0.2616
     24  O        125.3710   23.5480   47.7180 O.2    37  ILE37      -0.2715
     25  CB       127.0610   24.6550   45.5320 C.3    37  ILE37       0.0290
     26  CG1      127.8020   24.6210   44.1950 C.3    37  ILE37       0.0022
     27  CG2      127.4720   25.8680   46.3620 C.3    37  ILE37       0.0023
     28  CD1      127.1420   25.4520   43.1080 C.3    37  ILE37       0.0001
     29  N        127.3570   23.3470   48.7580 N.am   38  LYS38      -0.1977
     30  CA       126.8070   23.4190   50.1080 C.3    38  LYS38       0.1596
     31  C        127.2250   24.7400   50.7340 C.2    38  LYS38       0.2287
     32  O        128.4070   25.0870   50.7090 O.2    38  LYS38      -0.2864
     33  CB       127.3070   22.2460   50.9540 C.3    38  LYS38       0.0298
     34  CG       126.7350   22.1790   52.3870 C.3    38  LYS38       0.0038
     35  CD       127.4220   21.0480   53.1790 C.3    38  LYS38       0.0206
     36  CE       127.0900   21.1070   54.6660 C.3    38  LYS38       0.1093
     37  NZ       127.8740   20.1070   55.4560 N.3    38  LYS38      -0.1314
     38  N        135.2250   19.6100   57.4260 N.3    55  GLU55      -0.1245
     39  CA       134.7860   18.5480   56.5210 C.3    55  GLU55       0.1567
     40  C        135.4230   18.6950   55.1440 C.2    55  GLU55       0.2260
     41  O        135.8300   17.6990   54.5280 O.2    55  GLU55      -0.2867
     42  CB       133.2650   18.5300   56.4020 C.3    55  GLU55       0.0388
     43  CG       132.8080   17.6130   55.2750 C.3    55  GLU55       0.1160
     44  CD       131.3200   17.3460   55.2690 C.2    55  GLU55       0.3649
     45  OE1      130.5550   18.1700   55.8220 O.co2  55  GLU55      -0.2457
     46  OE2      130.9280   16.2990   54.7040 O.co2  55  GLU55      -0.2457
     47  N        137.7890   15.9390   53.3950 N.3    59  MET59      -0.1245
     48  CA       137.5120   15.5100   52.0220 C.3    59  MET59       0.1570
     49  C        138.6900   15.7830   51.0920 C.2    59  MET59       0.2261
     50  O        138.9710   15.0000   50.1710 O.2    59  MET59      -0.2867
     51  CB       136.2660   16.2280   51.4960 C.3    59  MET59       0.0387
     52  CG       134.9450   15.8110   52.1470 C.3    59  MET59       0.0595
     53  SD       133.5410   16.6050   51.3110 S.3    59  MET59      -0.1393
     54  CE       134.1970   16.5400   49.6400 C.3    59  MET59       0.0692
     55  N        133.9310   10.8430   47.6610 N.3    68  ILE68      -0.1245
     56  CA       133.4490   11.9910   46.9030 C.3    68  ILE68       0.1561
     57  C        134.5900   12.9740   46.6520 C.2    68  ILE68       0.2260
     58  O        135.3750   13.2990   47.5530 O.2    68  ILE68      -0.2867
     59  CB       132.2870   12.6750   47.6490 C.3    68  ILE68       0.0252
     60  CG1      131.7050   13.8160   46.8200 C.3    68  ILE68       0.0019
     61  CG2      132.7400   13.2250   48.9730 C.3    68  ILE68       0.0019
     62  CD1      130.5770   13.3760   45.9540 C.3    68  ILE68       0.0001
     63  N        131.2200   24.8490   50.0450 N.3    82  ILE82      -0.1245
     64  CA       131.9920   23.6660   49.6950 C.3    82  ILE82       0.1561
     65  C        131.4220   23.1340   48.3950 C.2    82  ILE82       0.2260
     66  O        130.2010   23.0680   48.2240 O.2    82  ILE82      -0.2867
     67  CB       131.9180   22.5900   50.7930 C.3    82  ILE82       0.0252
     68  CG1      132.4740   23.1450   52.0950 C.3    82  ILE82       0.0019
     69  CG2      132.6790   21.3270   50.3580 C.3    82  ILE82       0.0019
     70  CD1      132.1510   22.2710   53.2900 C.3    82  ILE82       0.0001
     71  N        131.6430   20.0730   45.4770 N.3    84  THR84      -0.1203
     72  CA       132.0550   18.7210   45.1660 C.3    84  THR84       0.1994
     73  C        131.5250   18.3520   43.8020 C.2    84  THR84       0.2618
     74  O        130.6810   19.0510   43.2330 O.2    84  THR84      -0.2717
     75  CB       131.5080   17.7080   46.1650 C.3    84  THR84       0.1784
     76  OG1      130.0940   17.6400   45.9930 O.3    84  THR84      -0.2211
     77  CG2      131.8200   18.1350   47.5770 C.3    84  THR84       0.0376
     78  N        131.9680   17.1930   43.3310 N.am   85  GLU85      -0.1965
     79  CA       131.3100   16.5800   42.1890 C.3    85  GLU85       0.1733
     80  C        129.8260   16.3780   42.4940 C.2    85  GLU85       0.2616
     81  O        129.4160   16.2190   43.6500 O.2    85  GLU85      -0.2715
     82  CB       131.9580   15.2430   41.8360 C.3    85  GLU85       0.0429
     83  CG       131.8620   14.2010   42.9090 C.3    85  GLU85       0.1163
     84  CD       132.4800   12.8790   42.4990 C.2    85  GLU85       0.3649
     85  OE1      132.2990   12.4740   41.3310 O.co2  85  GLU85      -0.2457
     86  OE2      133.1510   12.2600   43.3460 O.co2  85  GLU85      -0.2457
     87  N        129.0180   16.4350   41.4440 N.am   86  TYR86      -0.1960
     88  CA       127.5790   16.2300   41.5460 C.3    86  TYR86       0.1771
     89  C        127.2800   14.7460   41.3420 C.2    86  TYR86       0.2619
     90  O        127.7110   14.1490   40.3470 O.2    86  TYR86      -0.2715
     91  CB       126.8500   17.0870   40.5100 C.3    86  TYR86       0.0574
     92  CG       125.3650   16.8600   40.5090 C.ar   86  TYR86      -0.0198
     93  CD1      124.5960   17.1870   41.6190 C.ar   86  TYR86      -0.0009
     94  CD2      124.7300   16.3050   39.4140 C.ar   86  TYR86      -0.0009
     95  CE1      123.2290   16.9750   41.6310 C.ar   86  TYR86       0.0417
     96  CE2      123.3580   16.0850   39.4210 C.ar   86  TYR86       0.0417
     97  CZ       122.6230   16.4300   40.5290 C.ar   86  TYR86       0.1957
     98  OH       121.2710   16.2210   40.5390 O.3    86  TYR86      -0.2866
     99  N        126.5850   14.1480   42.2970 N.am   87  MET87      -0.1963
    100  CA       126.2070   12.7400   42.2460 C.3    87  MET87       0.1736
    101  C        124.7230   12.6810   41.8850 C.2    87  MET87       0.2616
    102  O        123.8710   13.0390   42.7020 O.2    87  MET87      -0.2715
    103  CB       126.4910   12.0700   43.5920 C.3    87  MET87       0.0427
    104  CG       127.9420   12.2210   44.0340 C.3    87  MET87       0.0599
    105  SD       129.0590   11.1760   43.0520 S.3    87  MET87      -0.1393
    106  CE       128.7380    9.5820   43.7960 C.3    87  MET87       0.0692
    107  N        124.4250   12.2250   40.6540 N.am   88  GLU88      -0.1963
    108  CA       123.1090   12.4400   40.0460 C.3    88  GLU88       0.1733
    109  C        121.9950   11.7110   40.7860 C.2    88  GLU88       0.2616
    110  O        120.8470   12.1820   40.8000 O.2    88  GLU88      -0.2715
    111  CB       123.1260   11.9810   38.5930 C.3    88  GLU88       0.0429
    112  CG       124.0740   12.7990   37.6730 C.3    88  GLU88       0.1163
    113  CD       125.5550   12.3580   37.6890 C.2    88  GLU88       0.3649
    114  OE1      125.9810   11.5490   38.5350 O.co2  88  GLU88      -0.2457
    115  OE2      126.3170   12.8290   36.8170 O.co2  88  GLU88      -0.2457
    116  N        122.2940   10.5700   41.3980 N.am   89  ASN89      -0.1958
    117  CA       121.2450    9.7630   42.0140 C.3    89  ASN89       0.1819
    118  C        121.1410    9.9360   43.5200 C.2    89  ASN89       0.2622
    119  O        120.3880    9.1930   44.1600 O.2    89  ASN89      -0.2715
    120  CB       121.4410    8.2940   41.6490 C.3    89  ASN89       0.1195
    121  CG       121.0300    8.0220   40.2210 C.2    89  ASN89       0.2630
    122  OD1      119.9470    8.4200   39.8200 O.2    89  ASN89      -0.2716
    123  ND2      121.9120    7.4080   39.4330 N.am   89  ASN89      -0.0877
    124  N        121.8410   10.9140   44.0920 N.am   90  GLY90      -0.1940
    125  CA       121.6190   11.2740   45.4840 C.3    90  GLY90       0.2014
    126  C        122.0610   10.1970   46.4570 C.2    90  GLY90       0.2638
    127  O        122.8920    9.3460   46.1540 O.2    90  GLY90      -0.2714
    128  N        121.4780   10.2500   47.6600 N.am   91  ALA91      -0.1977
    129  CA       121.9090    9.3590   48.7300 C.3    91  ALA91       0.1597
    130  C        121.5030    7.9180   48.4440 C.2    91  ALA91       0.2287
    131  O        120.4090    7.6560   47.9440 O.2    91  ALA91      -0.2864
    132  CB       121.3050    9.8050   50.0680 C.3    91  ALA91       0.0319
    133  N        117.8940    6.3740   47.2410 N.3    95  PHE95      -0.1241
    134  CA       117.9210    5.8540   45.8770 C.3    95  PHE95       0.1605
    135  C        117.3840    4.4280   45.8220 C.2    95  PHE95       0.2264
    136  O        116.5280    4.0980   44.9860 O.2    95  PHE95      -0.2867
    137  CB       119.3540    5.9210   45.3410 C.3    95  PHE95       0.0534
    138  CG       119.4970    5.4230   43.9400 C.ar   95  PHE95      -0.0203
    139  CD1      118.8590    6.0690   42.8980 C.ar   95  PHE95      -0.0042
    140  CD2      120.2780    4.3140   43.6670 C.ar   95  PHE95      -0.0042
    141  CE1      118.9890    5.6020   41.5970 C.ar   95  PHE95      -0.0003
    142  CE2      120.4120    3.8380   42.3850 C.ar   95  PHE95      -0.0003
    143  CZ       119.7750    4.4790   41.3430 C.ar   95  PHE95      -0.0000
    144  N        113.6450    4.1070   46.1650 N.3    98  GLU98      -0.1231
    145  CA       113.0230    4.4580   44.8970 C.3    98  GLU98       0.1699
    146  C        113.1580    3.3830   43.8360 C.2    98  GLU98       0.2592
    147  O        112.4460    3.4240   42.8290 O.2    98  GLU98      -0.2718
    148  CB       113.6860    5.7060   44.3460 C.3    98  GLU98       0.0402
    149  CG       113.0600    6.9690   44.7700 C.3    98  GLU98       0.1161
    150  CD       113.5670    8.0800   43.9160 C.2    98  GLU98       0.3649
    151  OE1      113.2580    8.0740   42.7010 O.co2  98  GLU98      -0.2457
    152  OE2      114.3120    8.9460   44.4260 O.co2  98  GLU98      -0.2457
    153  N        114.0980    2.4770   43.9870 N.am   99  LYS99      -0.1980
    154  CA       114.3870    1.4730   42.9730 C.3    99  LYS99       0.1596
    155  C        114.1470    0.0640   43.5020 C.2    99  LYS99       0.2287
    156  O        114.7720   -0.8940   43.0450 O.2    99  LYS99      -0.2864
    157  CB       115.8220    1.6180   42.4750 C.3    99  LYS99       0.0298
    158  CG       116.1130    2.9700   41.8470 C.3    99  LYS99       0.0038
    159  CD       115.2500    3.1760   40.6130 C.3    99  LYS99       0.0206
    160  CE       115.7070    4.3800   39.8060 C.3    99  LYS99       0.1093
    161  NZ       114.6970    5.4750   39.8420 N.3    99  LYS99      -0.1314
    162  N        126.7190    8.4790   48.4940 N.3   138  LEU138     -0.1245
    163  CA       126.0580    9.0560   47.3250 C.3   138  LEU138      0.1561
    164  C        126.2940    8.1850   46.0970 C.2   138  LEU138      0.2260
    165  O        127.2850    7.4580   46.0140 O.2   138  LEU138     -0.2867
    166  CB       126.5570   10.4820   47.0510 C.3   138  LEU138      0.0270
    167  CG       126.2190   11.5610   48.0920 C.3   138  LEU138      0.0019
    168  CD1      126.9830   12.8780   47.7950 C.3   138  LEU138      0.0001
    169  CD2      124.7160   11.8150   48.1730 C.3   138  LEU138      0.0001
    170  N        130.6400    9.9110   51.2640 N.3   148  SER148     -0.1202
    171  CA       130.4530   11.2980   50.8570 C.3   148  SER148      0.2020
    172  C        130.3260   12.2860   52.0070 C.2   148  SER148      0.2618
    173  O        130.9570   13.3480   51.9880 O.2   148  SER148     -0.2717
    174  CB       129.2210   11.4130   49.9630 C.3   148  SER148      0.2103
    175  OG       129.4680   10.8460   48.6880 O.3   148  SER148     -0.2182
    176  N        129.4960   11.9750   52.9900 N.am  149  ASP149     -0.1973
    177  CA       129.2790   12.8730   54.1200 C.3   149  ASP149      0.1709
    178  C        130.2870   12.5380   55.2120 C.2   149  ASP149      0.2293
    179  O        130.2980   11.4150   55.7210 O.2   149  ASP149     -0.2864
    180  CB       127.8450   12.7520   54.6380 C.3   149  ASP149      0.1436
    181  CG       127.4930   13.8370   55.6490 C.2   149  ASP149      0.3671
    182  OD1      128.0920   13.8360   56.7520 O.co2 149  ASP149     -0.2456
    183  OD2      126.6090   14.6670   55.3450 O.co2 149  ASP149     -0.2456
@<TRIPOS>BOND
     1   115   113   ar
     2   112   113    1
     3   112   111    1
     4   113   114   ar
     5   111   108    1
     6    94    96   ar
     7    94    92   ar
     8    96    97   ar
     9   123   121   am
    10   160   161    1
    11   160   159    1
    12   122   121    2
    13   108   107    1
    14   108   109    1
    15   121   120    1
    16    90    89    2
    17    92    91    1
    18    92    93   ar
    19    91    88    1
    20    97    98    1
    21    97    95   ar
    22   159   158    1
    23   107   101   am
    24   109   110    2
    25   109   116   am
    26    85    84   ar
    27    89    88    1
    28    89    99   am
    29   143   141   ar
    30   143   142   ar
    31   116   117    1
    32    87    88    1
    33    87    80   am
    34   141   139   ar
    35    93    95   ar
    36   120   117    1
    37    82    79    1
    38    82    83    1
    39   158   157    1
    40   101   100    1
    41   101   102    2
    42   117   118    1
    43    79    80    1
    44    79    78    1
    45   100    99    1
    46   100   103    1
    47   142   140   ar
    48   157   154    1
    49    80    81    2
    50    84    83    1
    51    84    86   ar
    52   151   150   ar
    53   147   146    2
    54   139   138   ar
    55   154   155    1
    56   154   153    1
    57   156   155    2
    58   105   106    1
    59   105   104    1
    60    16    17    1
    61    28    26    1
    62    74    73    2
    63    78    73   am
    64   118   124   am
    65   118   119    2
    66   103   104    1
    67   140   138   ar
    68    73    72    1
    69   146   153   am
    70   146   145    1
    71   150   152   ar
    72   150   149    1
    73   138   137    1
    74   124   125    1
    75    26    25    1
    76    17    18    1
    77    17    20    1
    78   148   149    1
    79   148   145    1
    80     8     6    1
    81     6     5    1
    82   145   144    1
    83   136   135    2
    84    18    19    2
    85    18    21   am
    86    72    71    1
    87    72    75    1
    88   137   134    1
    89   125   126    1
    90    25    22    1
    91    25    27    1
    92    21    22    1
    93   135   134    1
    94   134   133    1
    95     1     2    1
    96    62    60    1
    97    76    75    1
    98   165   164    2
    99     5     2    1
   100     5     7    1
   101   164   163    1
   102   127   126    2
   103     2     3    1
   104    75    77    1
   105    22    23    1
   106   126   128   am
   107    57    56    1
   108    57    58    2
   109    60    59    1
   110    56    59    1
   111    56    55    1
   112   166   163    1
   113   166   167    1
   114   163   162    1
   115    12    11    2
   116     3     4    2
   117    11    10    1
   118    59    61    1
   119   128   129    1
   120    23    24    2
   121    23    29   am
   122   168   167    1
   123   131   130    2
   124   167   169    1
   125    66    65    2
   126    14    13    1
   127    65    64    1
   128   130   129    1
   129   175   174    1
   130   129   132    1
   131    29    30    1
   132    10    13    1
   133    10     9    1
   134    13    15    1
   135    54    53    1
   136    64    63    1
   137    64    67    1
   138   174   171    1
   139    30    31    1
   140    30    33    1
   141    50    49    2
   142    69    67    1
   143    32    31    2
   144    67    68    1
   145   171   170    1
   146   171   172    1
   147    33    34    1
   148    49    48    1
   149    53    52    1
   150    51    48    1
   151    51    52    1
   152   173   172    2
   153   172   176   am
   154    48    47    1
   155    68    70    1
   156    34    35    1
   157   176   177    1
   158    35    36    1
   159   177   180    1
   160   177   178    1
   161    41    40    2
   162   180   181    1
   163    36    37    1
   164    46    44   ar
   165    40    39    1
   166   178   179    2
   167    44    43    1
   168    44    45   ar
   169    43    42    1
   170   183   181   ar
   171   181   182   ar
   172    42    39    1
   173    39    38    1
