@<TRIPOS>MOLECULE
tmp/5nk9A00.pdb
 167 157 0 0 0
SMALL
GASTEIGER

@<TRIPOS>ATOM
      1  N        -82.1940  -17.8460    6.6910 N.3    15  ILE15      -0.1231
      2  CA       -82.1500  -16.4210    6.9910 C.3    15  ILE15       0.1692
      3  C        -81.8560  -16.1750    8.4650 C.2    15  ILE15       0.2592
      4  O        -81.3160  -15.1250    8.8250 O.2    15  ILE15      -0.2718
      5  CB       -83.4730  -15.7340    6.6190 C.3    15  ILE15       0.0266
      6  CG1      -84.0170  -16.1850    5.2770 C.3    15  ILE15       0.0019
      7  CG2      -83.2720  -14.2860    6.5600 C.3    15  ILE15       0.0020
      8  CD1      -85.2360  -15.3670    4.8650 C.3    15  ILE15       0.0001
      9  N        -82.2560  -17.0990    9.3270 N.am   16  GLY16      -0.1957
     10  CA       -82.1190  -16.9570   10.7600 C.3    16  GLY16       0.1869
     11  C        -82.2550  -18.3140   11.4100 C.2    16  GLY16       0.2309
     12  O        -82.9780  -19.1760   10.9050 O.2    16  GLY16      -0.2863
     13  N        -85.4900  -19.7450   10.2720 N.3    23  VAL23      -0.1245
     14  CA       -86.2010  -18.9710    9.2660 C.3    23  VAL23       0.1561
     15  C        -85.4640  -19.1620    7.9520 C.2    23  VAL23       0.2260
     16  O        -84.2320  -19.0500    7.9020 O.2    23  VAL23      -0.2867
     17  CB       -86.2980  -17.4830    9.6420 C.3    23  VAL23       0.0252
     18  CG1      -87.0400  -16.7090    8.5570 C.3    23  VAL23       0.0019
     19  CG2      -86.9920  -17.3200   10.9950 C.3    23  VAL23       0.0019
     20  N        -90.8410  -16.2070    2.9550 N.3    35  ALA35      -0.1231
     21  CA       -90.0900  -16.5700    4.1430 C.3    35  ALA35       0.1694
     22  C        -90.8200  -17.6960    4.8610 C.2    35  ALA35       0.2592
     23  O        -92.0530  -17.7430    4.8660 O.2    35  ALA35      -0.2718
     24  CB       -89.9160  -15.3770    5.0760 C.3    35  ALA35       0.0304
     25  N        -90.0470  -18.6150    5.4390 N.am   36  ILE36      -0.1966
     26  CA       -90.5560  -19.8500    6.0280 C.3    36  ILE36       0.1727
     27  C        -89.9450  -20.0060    7.4150 C.2    36  ILE36       0.2616
     28  O        -88.7190  -20.0930    7.5410 O.2    36  ILE36      -0.2715
     29  CB       -90.1940  -21.0680    5.1610 C.3    36  ILE36       0.0290
     30  CG1      -90.7430  -20.9140    3.7450 C.3    36  ILE36       0.0022
     31  CG2      -90.6640  -22.3590    5.8320 C.3    36  ILE36       0.0023
     32  CD1      -89.7940  -21.4280    2.6580 C.3    36  ILE36       0.0001
     33  N        -90.7840  -20.0670    8.4480 N.am   37  LYS37      -0.1977
     34  CA       -90.3150  -20.2930    9.8140 C.3    37  LYS37       0.1596
     35  C        -90.7790  -21.6670   10.2750 C.2    37  LYS37       0.2287
     36  O        -91.9590  -21.9980   10.1320 O.2    37  LYS37      -0.2864
     37  CB       -90.8310  -19.2150   10.7740 C.3    37  LYS37       0.0298
     38  CG       -90.3020  -19.3630   12.2040 C.3    37  LYS37       0.0038
     39  CD       -90.8110  -18.2320   13.0980 C.3    37  LYS37       0.0206
     40  CE       -90.0570  -18.1750   14.4200 C.3    37  LYS37       0.1093
     41  NZ       -88.6380  -17.7480   14.2420 N.3    37  LYS37      -0.1314
     42  N        -98.7740  -16.9380   16.6960 N.3    54  GLU54      -0.1245
     43  CA       -98.2680  -15.8430   15.8740 C.3    54  GLU54       0.1567
     44  C        -98.9370  -15.8460   14.5120 C.2    54  GLU54       0.2260
     45  O        -99.3210  -14.7870   14.0020 O.2    54  GLU54      -0.2867
     46  CB       -96.7450  -15.9090   15.7020 C.3    54  GLU54       0.0388
     47  CG       -96.2500  -14.8220   14.7300 C.3    54  GLU54       0.1160
     48  CD       -94.7340  -14.6490   14.6950 C.2    54  GLU54       0.3649
     49  OE1      -94.0190  -15.6500   14.8610 O.co2  54  GLU54      -0.2457
     50  OE2      -94.2600  -13.5000   14.5030 O.co2  54  GLU54      -0.2457
     51  N       -101.3720  -12.9070   12.9010 N.3    58  MET58      -0.1245
     52  CA      -101.0610  -12.3400   11.5920 C.3    58  MET58       0.1570
     53  C       -102.1920  -12.5680   10.5960 C.2    58  MET58       0.2261
     54  O       -102.4500  -11.7190    9.7350 O.2    58  MET58      -0.2867
     55  CB       -99.7560  -12.9390   11.0580 C.3    58  MET58       0.0387
     56  CG       -98.5230  -12.5190   11.8140 C.3    58  MET58       0.0595
     57  SD       -97.0440  -13.3090   11.1390 S.3    58  MET58      -0.1393
     58  CE       -97.2320  -12.9580    9.3970 C.3    58  MET58       0.0692
     59  N        -96.7960   -7.3710    7.9870 N.3    67  ILE67      -0.1245
     60  CA       -96.3500   -8.5240    7.2550 C.3    67  ILE67       0.1561
     61  C        -97.5140   -9.4660    6.9280 C.2    67  ILE67       0.2260
     62  O        -98.2610   -9.7920    7.7520 O.2    67  ILE67      -0.2867
     63  CB       -95.2570   -9.2530    8.0290 C.3    67  ILE67       0.0252
     64  CG1      -94.7300  -10.4260    7.2200 C.3    67  ILE67       0.0019
     65  CG2      -95.7750   -9.8070    9.3070 C.3    67  ILE67       0.0019
     66  CD1      -93.6450   -9.9310    6.3070 C.3    67  ILE67       0.0001
     67  N        -94.6480  -21.6580    9.2820 N.3    81  ILE81      -0.1245
     68  CA       -95.3820  -20.4310    8.9960 C.3    81  ILE81       0.1561
     69  C        -94.7450  -19.8170    7.7640 C.2    81  ILE81       0.2260
     70  O        -93.5160  -19.7210    7.6870 O.2    81  ILE81      -0.2867
     71  CB       -95.3450  -19.4450   10.1730 C.3    81  ILE81       0.0252
     72  CG1      -96.0450  -20.0450   11.3920 C.3    81  ILE81       0.0019
     73  CG2      -95.9890  -18.1090    9.7520 C.3    81  ILE81       0.0019
     74  CD1      -95.8510  -19.2560   12.6560 C.3    81  ILE81       0.0001
     75  N        -94.7160  -16.5500    5.0900 N.3    83  THR83      -0.1203
     76  CA       -95.0860  -15.1580    4.8730 C.3    83  THR83       0.1994
     77  C        -94.4850  -14.6510    3.5730 C.2    83  THR83       0.2618
     78  O        -93.6220  -15.2910    2.9670 O.2    83  THR83      -0.2717
     79  CB       -94.6070  -14.2340    6.0040 C.3    83  THR83       0.1784
     80  OG1      -93.1810  -14.0880    5.9420 O.3    83  THR83      -0.2211
     81  CG2      -95.0020  -14.7950    7.3600 C.3    83  THR83       0.0376
     82  N        -94.9300  -13.4620    3.1690 N.am   84  GLU84      -0.1965
     83  CA       -94.2240  -12.7460    2.1180 C.3    84  GLU84       0.1733
     84  C        -92.7600  -12.6010    2.5020 C.2    84  GLU84       0.2616
     85  O        -92.4010  -12.6130    3.6820 O.2    84  GLU84      -0.2715
     86  CB       -94.8540  -11.3710    1.8790 C.3    84  GLU84       0.0429
     87  CG       -94.7440  -10.4100    3.0570 C.3    84  GLU84       0.1163
     88  CD       -95.4000   -9.0660    2.7760 C.2    84  GLU84       0.3649
     89  OE1      -95.3120   -8.5820    1.6260 O.co2  84  GLU84      -0.2457
     90  OE2      -96.0190   -8.5060    3.6900 O.co2  84  GLU84      -0.2457
     91  N        -91.9070  -12.4870    1.4910 N.am   85  TYR85      -0.1960
     92  CA       -90.4730  -12.3570    1.6980 C.3    85  TYR85       0.1771
     93  C        -90.0670  -10.8950    1.5540 C.2    85  TYR85       0.2619
     94  O        -90.2940  -10.2810    0.5050 O.2    85  TYR85      -0.2715
     95  CB       -89.7040  -13.2250    0.7050 C.3    85  TYR85       0.0574
     96  CG       -88.2190  -13.0540    0.8370 C.ar   85  TYR85      -0.0198
     97  CD1      -87.5480  -13.4800    1.9810 C.ar   85  TYR85      -0.0009
     98  CD2      -87.4830  -12.4360   -0.1600 C.ar   85  TYR85      -0.0009
     99  CE1      -86.1860  -13.3070    2.1130 C.ar   85  TYR85       0.0417
    100  CE2      -86.1140  -12.2690   -0.0350 C.ar   85  TYR85       0.0417
    101  CZ       -85.4800  -12.7020    1.1050 C.ar   85  TYR85       0.1957
    102  OH       -84.1240  -12.5280    1.2290 O.3    85  TYR85      -0.2866
    103  N        -89.4690  -10.3410    2.6060 N.am   86  MET86      -0.1963
    104  CA       -89.0380   -8.9520    2.6180 C.3    86  MET86       0.1736
    105  C        -87.5690   -8.9190    2.2270 C.2    86  MET86       0.2616
    106  O        -86.7000   -9.3270    3.0080 O.2    86  MET86      -0.2715
    107  CB       -89.2820   -8.3450    3.9940 C.3    86  MET86       0.0427
    108  CG       -90.7680   -8.4500    4.3650 C.3    86  MET86       0.0599
    109  SD       -91.8690   -7.3920    3.3830 S.3    86  MET86      -0.1393
    110  CE       -91.4780   -5.7860    4.1180 C.3    86  MET86       0.0692
    111  N        -87.3010   -8.4100    1.0200 N.am   87  GLU87      -0.1963
    112  CA       -86.0060   -8.6290    0.3820 C.3    87  GLU87       0.1733
    113  C        -84.8510   -7.9390    1.1090 C.2    87  GLU87       0.2616
    114  O        -83.7120   -8.4170    1.0290 O.2    87  GLU87      -0.2715
    115  CB       -86.0580   -8.1450   -1.0750 C.3    87  GLU87       0.0429
    116  CG       -87.0590   -8.8940   -1.9840 C.3    87  GLU87       0.1163
    117  CD       -88.4650   -8.2680   -2.0350 C.2    87  GLU87       0.3649
    118  OE1      -88.8040   -7.4220   -1.1800 O.co2  87  GLU87      -0.2457
    119  OE2      -89.2440   -8.6220   -2.9510 O.co2  87  GLU87      -0.2457
    120  N        -85.1040   -6.8330    1.8160 N.am   88  ASN88      -0.1958
    121  CA       -84.0370   -6.0650    2.4450 C.3    88  ASN88       0.1819
    122  C        -83.8840   -6.3270    3.9420 C.2    88  ASN88       0.2622
    123  O        -83.0500   -5.6750    4.5870 O.2    88  ASN88      -0.2715
    124  CB       -84.2570   -4.5690    2.1910 C.3    88  ASN88       0.1195
    125  CG       -83.9320   -4.1830    0.7600 C.2    88  ASN88       0.2630
    126  OD1      -82.8200   -4.4320    0.2820 O.2    88  ASN88      -0.2716
    127  ND2      -84.9080   -3.6220    0.0530 N.am   88  ASN88      -0.0877
    128  N        -84.6530   -7.2490    4.5030 N.am   89  GLY89      -0.1940
    129  CA       -84.4310   -7.6900    5.8700 C.3    89  GLY89       0.2014
    130  C        -84.8610   -6.6790    6.9200 C.2    89  GLY89       0.2638
    131  O        -85.7470   -5.8320    6.7190 O.2    89  GLY89      -0.2714
    132  N        -84.2150   -6.7950    8.0790 N.am   90  ALA90      -0.1977
    133  CA       -84.5940   -5.9870    9.2310 C.3    90  ALA90       0.1597
    134  C        -84.1160   -4.5470    9.0790 C.2    90  ALA90       0.2287
    135  O        -83.0060   -4.2790    8.6110 O.2    90  ALA90      -0.2864
    136  CB       -84.0370   -6.6050   10.5120 C.3    90  ALA90       0.0319
    137  N        -80.5930   -3.2810   10.8170 N.3    93  LYS93      -0.1245
    138  CA       -79.3930   -3.6910   10.0900 C.3    93  LYS93       0.1561
    139  C        -79.3250   -3.0400    8.7110 C.2    93  LYS93       0.2260
    140  O        -78.2450   -2.6480    8.2450 O.2    93  LYS93      -0.2867
    141  CB       -79.3770   -5.2080    9.9640 C.3    93  LYS93       0.0271
    142  CG       -78.0450   -5.7860    9.5340 C.3    93  LYS93       0.0035
    143  CD       -78.0520   -7.2810    9.8100 C.3    93  LYS93       0.0206
    144  CE       -76.7010   -7.9320    9.5700 C.3    93  LYS93       0.1093
    145  NZ       -76.3790   -8.0640    8.1260 N.3    93  LYS93      -0.1314
    146  N        -89.5340   -4.9190    8.9490 N.3   137  LEU137     -0.1245
    147  CA       -88.9390   -5.5260    7.7630 C.3   137  LEU137      0.1561
    148  C        -89.1330   -4.5990    6.5690 C.2   137  LEU137      0.2260
    149  O        -90.1140   -3.8510    6.5020 O.2   137  LEU137     -0.2867
    150  CB       -89.5550   -6.8970    7.4670 C.3   137  LEU137      0.0270
    151  CG       -89.1830   -7.9610    8.5050 C.3   137  LEU137      0.0019
    152  CD1      -90.0640   -9.2120    8.3520 C.3   137  LEU137      0.0001
    153  CD2      -87.7090   -8.3270    8.3510 C.3   137  LEU137      0.0001
    154  N        -93.4980   -6.3660   12.1270 N.3   147  SER147     -0.1202
    155  CA       -93.4940   -7.8230   12.2780 C.3   147  SER147      0.2020
    156  C        -93.2910   -8.1490   13.7460 C.2   147  SER147      0.2618
    157  O        -93.2530   -7.2490   14.5840 O.2   147  SER147     -0.2717
    158  CB       -92.4180   -8.4810   11.4090 C.3   147  SER147      0.2103
    159  OG       -91.1340   -8.1250   11.8330 O.3   147  SER147     -0.2182
    160  N        -93.1400   -9.4540   14.0260 N.am  148  ASP148     -0.1973
    161  CA       -92.9390  -10.0140   15.3630 C.3   148  ASP148      0.1709
    162  C        -94.1950   -9.9520   16.2340 C.2   148  ASP148      0.2293
    163  O        -94.3170   -9.0910   17.1100 O.2   148  ASP148     -0.2864
    164  CB       -91.7730   -9.3170   16.0460 C.3   148  ASP148      0.1436
    165  CG       -91.3060  -10.0600   17.2810 C.2   148  ASP148      0.3671
    166  OD1      -91.6330  -11.2630   17.4140 O.co2 148  ASP148     -0.2456
    167  OD2      -90.6110   -9.4470   18.1090 O.co2 148  ASP148     -0.2456
@<TRIPOS>BOND
     1   119   117   ar
     2   117   116    1
     3   117   118   ar
     4   116   115    1
     5   115   112    1
     6    98   100   ar
     7    98    96   ar
     8   100   101   ar
     9   127   125   am
    10   126   125    2
    11   112   111    1
    12   112   113    1
    13    94    93    2
    14    95    96    1
    15    95    92    1
    16   125   124    1
    17    96    97   ar
    18   111   105   am
    19   114   113    2
    20   101   102    1
    21   101    99   ar
    22   113   120   am
    23    91    92    1
    24    91    84   am
    25    93    92    1
    26    93   103   am
    27    89    88   ar
    28   120   121    1
    29    86    83    1
    30    86    87    1
    31    97    99   ar
    32    83    84    1
    33    83    82    1
    34   124   121    1
    35   105   104    1
    36   105   106    2
    37   121   122    1
    38    84    85    2
    39   103   104    1
    40   104   107    1
    41    32    30    1
    42    88    87    1
    43    88    90   ar
    44    20    21    1
    45    78    77    2
    46    82    77   am
    47   109   110    1
    48   109   108    1
    49    77    76    1
    50    30    29    1
    51   122   128   am
    52   122   123    2
    53   107   108    1
    54    21    22    1
    55    21    24    1
    56   128   129    1
    57    22    23    2
    58    22    25   am
    59     8     6    1
    60    76    75    1
    61    76    79    1
    62    29    31    1
    63    29    26    1
    64     6     5    1
    65    25    26    1
    66   129   130    1
    67    80    79    1
    68    79    81    1
    69    26    27    1
    70    66    64    1
    71   149   148    2
    72     7     5    1
    73   148   147    1
    74     5     2    1
    75     1     2    1
    76   131   130    2
    77   130   132   am
    78    61    60    1
    79    61    62    2
    80     2     3    1
    81    64    63    1
    82    60    59    1
    83    60    63    1
    84    27    28    2
    85    27    33   am
    86   150   147    1
    87   150   151    1
    88    70    69    2
    89   147   146    1
    90    69    68    1
    91    16    15    2
    92    15    14    1
    93    63    65    1
    94   132   133    1
    95   145   144    1
    96   140   139    2
    97   153   151    1
    98   152   151    1
    99    33    34    1
   100     3     4    2
   101     3     9   am
   102    18    17    1
   103   135   134    2
   104   139   138    1
   105    68    67    1
   106    68    71    1
   107   134   133    1
   108   133   136    1
   109    14    17    1
   110    14    13    1
   111     9    10    1
   112    58    57    1
   113   142   143    1
   114   142   141    1
   115   144   143    1
   116    17    19    1
   117    54    53    2
   118    73    71    1
   119    34    35    1
   120    34    37    1
   121   141   138    1
   122   138   137    1
   123    36    35    2
   124    71    72    1
   125    53    52    1
   126    10    11    1
   127    37    38    1
   128    12    11    2
   129    55    52    1
   130    55    56    1
   131    57    56    1
   132    72    74    1
   133   158   159    1
   134   158   155    1
   135    52    51    1
   136   154   155    1
   137    38    39    1
   138   155   156    1
   139    39    40    1
   140   156   160   am
   141   156   157    2
   142    45    44    2
   143   160   161    1
   144    41    40    1
   145    50    48   ar
   146    44    43    1
   147    48    47    1
   148    48    49   ar
   149    47    46    1
   150   161   164    1
   151   161   162    1
   152    46    43    1
   153    43    42    1
   154   164   165    1
   155   162   163    2
   156   165   166   ar
   157   165   167   ar
