@<TRIPOS>MOLECULE
tmp/5nkbA00.pdb
 187 175 0 0 0
SMALL
GASTEIGER

@<TRIPOS>ATOM
      1  N        -82.8170  -25.8370    1.5440 N.3    13  LYS13      -0.1245
      2  CA       -81.6780  -25.2910    2.2700 C.3    13  LYS13       0.1561
      3  C        -82.1280  -24.9910    3.6860 C.2    13  LYS13       0.2260
      4  O        -83.1790  -24.3870    3.8690 O.2    13  LYS13      -0.2867
      5  CB       -81.2190  -23.9780    1.6110 C.3    13  LYS13       0.0271
      6  CG       -79.8800  -23.4400    2.1330 C.3    13  LYS13       0.0035
      7  CD       -79.6630  -21.9820    1.7080 C.3    13  LYS13       0.0206
      8  CE       -80.0820  -21.7410    0.2600 C.3    13  LYS13       0.1093
      9  NZ       -78.9220  -21.7770   -0.6780 N.3    13  LYS13      -0.1314
     10  N        -82.1450  -22.6970    6.6960 N.3    15  ILE15      -0.1231
     11  CA       -81.8870  -21.2730    6.8760 C.3    15  ILE15       0.1692
     12  C        -81.8710  -20.8640    8.3290 C.2    15  ILE15       0.2592
     13  O        -81.3630  -19.7800    8.6500 O.2    15  ILE15      -0.2718
     14  CB       -82.8200  -20.3680    6.0250 C.3    15  ILE15       0.0266
     15  CG1      -84.3030  -20.5380    6.3770 C.3    15  ILE15       0.0019
     16  CG2      -82.6220  -20.5740    4.5300 C.3    15  ILE15       0.0020
     17  CD1      -85.2200  -19.7080    5.4620 C.3    15  ILE15       0.0001
     18  N        -82.3780  -21.7060    9.2210 N.am   16  GLY16      -0.1957
     19  CA       -82.4530  -21.4560   10.6390 C.3    16  GLY16       0.1869
     20  C        -82.4760  -22.8200   11.2900 C.2    16  GLY16       0.2309
     21  O        -83.0630  -23.7490   10.7550 O.2    16  GLY16      -0.2863
     22  N        -85.7310  -24.4370   10.1940 N.3    23  VAL23      -0.1245
     23  CA       -86.4300  -23.6370    9.2020 C.3    23  VAL23       0.1561
     24  C        -85.6750  -23.8100    7.9100 C.2    23  VAL23       0.2260
     25  O        -84.4430  -23.6690    7.8850 O.2    23  VAL23      -0.2867
     26  CB       -86.4430  -22.1540    9.6020 C.3    23  VAL23       0.0252
     27  CG1      -87.1780  -21.3240    8.5280 C.3    23  VAL23       0.0019
     28  CG2      -87.0970  -21.9980   10.9620 C.3    23  VAL23       0.0019
     29  N        -91.1520  -20.8390    2.9330 N.3    35  ALA35      -0.1231
     30  CA       -90.3550  -21.2170    4.0940 C.3    35  ALA35       0.1694
     31  C        -91.0840  -22.3540    4.7930 C.2    35  ALA35       0.2592
     32  O        -92.3230  -22.4050    4.7690 O.2    35  ALA35      -0.2718
     33  CB       -90.2380  -20.0200    5.0380 C.3    35  ALA35       0.0304
     34  N        -90.3210  -23.2790    5.3840 N.am   36  ILE36      -0.1966
     35  CA       -90.8560  -24.5110    5.9860 C.3    36  ILE36       0.1727
     36  C        -90.2390  -24.6560    7.3820 C.2    36  ILE36       0.2616
     37  O        -89.0120  -24.7040    7.5130 O.2    36  ILE36      -0.2715
     38  CB       -90.4790  -25.7350    5.1270 C.3    36  ILE36       0.0290
     39  CG1      -91.0140  -25.5400    3.7150 C.3    36  ILE36       0.0022
     40  CG2      -90.9840  -27.0480    5.7220 C.3    36  ILE36       0.0023
     41  CD1      -90.1460  -26.2280    2.6170 C.3    36  ILE36       0.0001
     42  N        -91.0660  -24.7460    8.4140 N.am   37  LYS37      -0.1977
     43  CA       -90.5360  -24.9760    9.7590 C.3    37  LYS37       0.1596
     44  C        -90.9850  -26.3680   10.1750 C.2    37  LYS37       0.2287
     45  O        -92.1560  -26.7000   10.0070 O.2    37  LYS37      -0.2864
     46  CB       -91.0500  -23.9450   10.7540 C.3    37  LYS37       0.0298
     47  CG       -90.4230  -24.1500   12.1740 C.3    37  LYS37       0.0038
     48  CD       -90.3220  -22.8040   12.9270 C.3    37  LYS37       0.0206
     49  CE       -91.6750  -22.2480   13.3370 C.3    37  LYS37       0.1093
     50  NZ       -91.4900  -20.8710   13.9970 N.3    37  LYS37      -0.1314
     51  N        -98.9120  -21.6490   16.7400 N.3    54  GLU54      -0.1245
     52  CA       -98.3810  -20.5880   15.8970 C.3    54  GLU54       0.1567
     53  C        -99.0940  -20.5730   14.5660 C.2    54  GLU54       0.2260
     54  O        -99.5170  -19.5060   14.0900 O.2    54  GLU54      -0.2867
     55  CB       -96.8450  -20.6770   15.7000 C.3    54  GLU54       0.0388
     56  CG       -96.3350  -19.5470   14.7510 C.3    54  GLU54       0.1160
     57  CD       -94.8200  -19.3170   14.7230 C.2    54  GLU54       0.3649
     58  OE1      -94.1010  -20.3110   14.9000 O.co2  54  GLU54      -0.2457
     59  OE2      -94.3710  -18.1420   14.4960 O.co2  54  GLU54      -0.2457
     60  N       -101.5190  -17.5800   13.0150 N.3    58  MET58      -0.1245
     61  CA      -101.2570  -16.9540   11.7070 C.3    58  MET58       0.1570
     62  C       -102.3830  -17.1830   10.6890 C.2    58  MET58       0.2261
     63  O       -102.6420  -16.3130    9.8390 O.2    58  MET58      -0.2867
     64  CB       -99.9420  -17.4900   11.1390 C.3    58  MET58       0.0387
     65  CG       -98.8220  -17.1450   12.0450 C.3    58  MET58       0.0595
     66  SD       -97.3200  -17.9980   11.5060 S.3    58  MET58      -0.1393
     67  CE       -96.9700  -17.2200   10.0110 C.3    58  MET58       0.0692
     68  N        -96.8580  -12.1530    8.0650 N.3    67  ILE67      -0.1245
     69  CA       -96.4750  -13.3240    7.2990 C.3    67  ILE67       0.1561
     70  C        -97.6800  -14.2170    7.0240 C.2    67  ILE67       0.2260
     71  O        -98.4300  -14.5790    7.9420 O.2    67  ILE67      -0.2867
     72  CB       -95.4050  -14.1020    8.0780 C.3    67  ILE67       0.0252
     73  CG1      -94.0980  -13.3000    8.1990 C.3    67  ILE67       0.0019
     74  CG2      -95.1050  -15.4590    7.3970 C.3    67  ILE67       0.0019
     75  CD1      -93.4080  -13.1770    6.8360 C.3    67  ILE67       0.0001
     76  N        -94.8970  -26.3690    9.1860 N.3    81  ILE81      -0.1245
     77  CA       -95.6700  -25.1590    8.9010 C.3    81  ILE81       0.1561
     78  C        -95.0170  -24.5020    7.6950 C.2    81  ILE81       0.2260
     79  O        -93.7890  -24.3600    7.6670 O.2    81  ILE81      -0.2867
     80  CB       -95.6700  -24.1740   10.0850 C.3    81  ILE81       0.0252
     81  CG1      -96.2910  -24.7690   11.3620 C.3    81  ILE81       0.0019
     82  CG2      -96.3440  -22.8840    9.6680 C.3    81  ILE81       0.0019
     83  CD1      -95.9870  -23.9580   12.6020 C.3    81  ILE81       0.0001
     84  N        -94.9580  -21.2520    4.9650 N.3    83  THR83      -0.1203
     85  CA       -95.3960  -19.8680    4.7980 C.3    83  THR83       0.1994
     86  C        -94.7690  -19.2680    3.5590 C.2    83  THR83       0.2618
     87  O        -93.9060  -19.8680    2.9110 O.2    83  THR83      -0.2717
     88  CB       -94.9500  -18.9630    5.9780 C.3    83  THR83       0.1784
     89  OG1      -93.5220  -18.7950    5.9210 O.3    83  THR83      -0.2211
     90  CG2      -95.3550  -19.5720    7.3030 C.3    83  THR83       0.0376
     91  N        -95.2240  -18.0610    3.2270 N.am   84  GLU84      -0.1965
     92  CA       -94.4970  -17.3320    2.1900 C.3    84  GLU84       0.1733
     93  C        -93.0210  -17.2220    2.5620 C.2    84  GLU84       0.2616
     94  O        -92.6380  -17.2380    3.7570 O.2    84  GLU84      -0.2715
     95  CB       -95.1030  -15.9350    2.0100 C.3    84  GLU84       0.0429
     96  CG       -94.9100  -14.9940    3.1710 C.3    84  GLU84       0.1163
     97  CD       -95.5520  -13.6230    2.9370 C.2    84  GLU84       0.3649
     98  OE1      -95.3830  -13.0130    1.8430 O.co2  84  GLU84      -0.2457
     99  OE2      -96.2630  -13.1440    3.7930 O.co2  84  GLU84      -0.2457
    100  N        -92.1580  -17.1270    1.5460 N.am   85  TYR85      -0.1960
    101  CA       -90.7200  -16.9910    1.7700 C.3    85  TYR85       0.1771
    102  C        -90.3120  -15.5330    1.6360 C.2    85  TYR85       0.2619
    103  O        -90.5220  -14.8820    0.6000 O.2    85  TYR85      -0.2715
    104  CB       -89.9720  -17.8130    0.7300 C.3    85  TYR85       0.0574
    105  CG       -88.4850  -17.6810    0.8160 C.ar   85  TYR85      -0.0198
    106  CD1      -87.8280  -18.0650    1.9650 C.ar   85  TYR85      -0.0009
    107  CD2      -87.7390  -17.1680   -0.2400 C.ar   85  TYR85      -0.0009
    108  CE1      -86.4670  -17.9650    2.0580 C.ar   85  TYR85       0.0417
    109  CE2      -86.3810  -17.0300   -0.1460 C.ar   85  TYR85       0.0417
    110  CZ       -85.7600  -17.4430    0.9910 C.ar   85  TYR85       0.1957
    111  OH       -84.3810  -17.3270    1.0930 O.3    85  TYR85      -0.2866
    112  N        -89.6140  -15.0380    2.6560 N.am   86  MET86      -0.1963
    113  CA       -89.1720  -13.6530    2.6390 C.3    86  MET86       0.1736
    114  C        -87.6990  -13.6560    2.2520 C.2    86  MET86       0.2616
    115  O        -86.8520  -14.1640    2.9880 O.2    86  MET86      -0.2715
    116  CB       -89.3550  -13.0530    4.0290 C.3    86  MET86       0.0427
    117  CG       -90.8280  -13.0940    4.4510 C.3    86  MET86       0.0599
    118  SD       -91.9260  -12.0340    3.5090 S.3    86  MET86      -0.1393
    119  CE       -91.4610  -10.4350    4.2770 C.3    86  MET86       0.0692
    120  N        -87.3830  -13.1080    1.0610 N.am   87  GLU87      -0.1963
    121  CA       -86.0850  -13.4000    0.4870 C.3    87  GLU87       0.1733
    122  C        -84.9260  -12.7000    1.1690 C.2    87  GLU87       0.2616
    123  O        -83.7750  -13.0950    0.9230 O.2    87  GLU87      -0.2715
    124  CB       -86.1010  -12.9570   -0.9870 C.3    87  GLU87       0.0429
    125  CG       -87.1710  -13.6470   -1.8590 C.3    87  GLU87       0.1163
    126  CD       -88.5680  -12.9900   -1.8920 C.2    87  GLU87       0.3649
    127  OE1      -88.9250  -12.1260   -1.0620 O.co2  87  GLU87      -0.2457
    128  OE2      -89.4140  -13.3830   -2.7730 O.co2  87  GLU87      -0.2457
    129  N        -85.1780  -11.6400    1.9610 N.am   88  ASN88      -0.1958
    130  CA       -84.0920  -10.8860    2.5650 C.3    88  ASN88       0.1819
    131  C        -83.9300  -11.1550    4.0600 C.2    88  ASN88       0.2622
    132  O        -83.0780  -10.5170    4.6870 O.2    88  ASN88      -0.2715
    133  CB       -84.2300   -9.3780    2.2980 C.3    88  ASN88       0.1195
    134  CG       -83.9360   -9.0390    0.8490 C.2    88  ASN88       0.2630
    135  OD1      -82.8680   -9.4060    0.3500 O.2    88  ASN88      -0.2716
    136  ND2      -84.8650   -8.4340    0.1830 N.am   88  ASN88      -0.0877
    137  N        -84.6810  -12.1270    4.6200 N.am   89  GLY89      -0.1940
    138  CA       -84.4150  -12.5340    6.0330 C.3    89  GLY89       0.2014
    139  C        -84.8860  -11.5180    7.0640 C.2    89  GLY89       0.2638
    140  O        -85.7400  -10.6840    6.8150 O.2    89  GLY89      -0.2714
    141  N        -84.2280  -11.5840    8.2220 N.am   90  ALA90      -0.1977
    142  CA       -84.6610  -10.7930    9.3620 C.3    90  ALA90       0.1597
    143  C        -84.1560   -9.3520    9.2290 C.2    90  ALA90       0.2287
    144  O        -83.0340   -9.0780    8.7230 O.2    90  ALA90      -0.2864
    145  CB       -84.0540  -11.4020   10.6370 C.3    90  ALA90       0.0319
    146  N        -80.6310   -8.0690   10.9480 N.3    93  LYS93      -0.1245
    147  CA       -79.4480   -8.4840   10.2120 C.3    93  LYS93       0.1561
    148  C        -79.3670   -7.7910    8.8640 C.2    93  LYS93       0.2260
    149  O        -78.2810   -7.4160    8.4110 O.2    93  LYS93      -0.2867
    150  CB       -79.4890   -9.9740    9.9800 C.3    93  LYS93       0.0271
    151  CG       -78.1120  -10.5470    9.4800 C.3    93  LYS93       0.0035
    152  CD       -78.1550  -12.0980    9.6700 C.3    93  LYS93       0.0206
    153  CE       -76.7910  -12.8090    9.4440 C.3    93  LYS93       0.1093
    154  NZ       -76.2960  -12.7830    8.0360 N.3    93  LYS93      -0.1314
    155  N        -85.4380   -8.1050   14.9280 N.3   134  ARG134     -0.1245
    156  CA       -85.1320   -9.5170   14.7270 C.3   134  ARG134      0.1563
    157  C        -86.3490  -10.3800   14.3950 C.2   134  ARG134      0.2260
    158  O        -86.1650  -11.4900   13.9000 O.2   134  ARG134     -0.2867
    159  CB       -84.3880  -10.0660   15.9550 C.3   134  ARG134      0.0307
    160  CG       -85.2490  -10.1060   17.1860 C.3   134  ARG134      0.0489
    161  CD       -84.3820  -10.6810   18.3810 C.3   134  ARG134      0.2205
    162  NE       -85.1800  -10.4410   19.6070 N.pl3 134  ARG134     -0.0865
    163  CZ       -85.3060   -9.2620   20.1660 C.cat 134  ARG134      0.5346
    164  NH1      -84.5320   -8.2100   19.7710 N.pl3 134  ARG134      0.1354
    165  NH2      -86.0700   -9.1650   21.2840 N.pl3 134  ARG134      0.1354
    166  N        -89.5460   -9.6840    9.1080 N.3   137  LEU137     -0.1245
    167  CA       -88.9130  -10.2720    7.9310 C.3   137  LEU137      0.1561
    168  C        -89.0860   -9.3080    6.7590 C.2   137  LEU137      0.2260
    169  O        -90.0350   -8.5260    6.6860 O.2   137  LEU137     -0.2867
    170  CB       -89.5700  -11.6250    7.5770 C.3   137  LEU137      0.0270
    171  CG       -89.2250  -12.7940    8.5440 C.3   137  LEU137      0.0019
    172  CD1      -90.1120  -13.9930    8.3460 C.3   137  LEU137      0.0001
    173  CD2      -87.6930  -13.1970    8.3930 C.3   137  LEU137      0.0001
    174  N        -93.4650  -11.1410   12.2030 N.3   147  SER147     -0.1202
    175  CA       -93.2990  -12.5840   12.2890 C.3   147  SER147      0.2020
    176  C        -93.2930  -12.9570   13.7630 C.2   147  SER147      0.2618
    177  O        -93.5330  -12.1040   14.6030 O.2   147  SER147     -0.2717
    178  CB       -91.9790  -12.9780   11.6020 C.3   147  SER147      0.2103
    179  OG       -91.8490  -14.3630   11.5880 O.3   147  SER147     -0.2182
    180  N        -93.1300  -14.2580   14.0760 N.am  148  ASP148     -0.1973
    181  CA       -92.8970  -14.7330   15.4480 C.3   148  ASP148      0.1709
    182  C        -94.1500  -14.7340   16.3350 C.2   148  ASP148      0.2293
    183  O        -94.2810  -13.9300   17.2660 O.2   148  ASP148     -0.2864
    184  CB       -91.7190  -14.0030   16.1230 C.3   148  ASP148      0.1436
    185  CG       -91.2670  -14.7230   17.3700 C.2   148  ASP148      0.3671
    186  OD1      -91.6780  -15.8960   17.5490 O.co2 148  ASP148     -0.2456
    187  OD2      -90.4910  -14.1150   18.1330 O.co2 148  ASP148     -0.2456
@<TRIPOS>BOND
     1   128   126   ar
     2   126   125    1
     3   126   127   ar
     4   125   124    1
     5   124   121    1
     6     9     8    1
     7   107   109   ar
     8   107   105   ar
     9   109   110   ar
    10   136   134   am
    11     8     7    1
    12   135   134    2
    13   121   120    1
    14   121   122    1
    15   103   102    2
    16   104   105    1
    17   104   101    1
    18   105   106   ar
    19   134   133    1
    20   123   122    2
    21   110   111    1
    22   110   108   ar
    23   120   114   am
    24   122   129   am
    25     1     2    1
    26   100   101    1
    27   100    93   am
    28     5     6    1
    29     5     2    1
    30   102   101    1
    31   102   112   am
    32     7     6    1
    33    98    97   ar
    34   129   130    1
    35   106   108   ar
    36    95    92    1
    37    95    96    1
    38    92    93    1
    39    92    91    1
    40   114   113    1
    41   114   115    2
    42     2     3    1
    43   133   130    1
    44    93    94    2
    45   130   131    1
    46    41    39    1
    47   113   112    1
    48   113   116    1
    49    87    86    2
    50    29    30    1
    51    97    96    1
    52    97    99   ar
    53    91    86   am
    54   118   119    1
    55   118   117    1
    56    86    85    1
    57     3     4    2
    58    39    38    1
    59   116   117    1
    60   131   137   am
    61   131   132    2
    62    30    31    1
    63    30    33    1
    64    16    14    1
    65   137   138    1
    66    32    31    2
    67    31    34   am
    68    85    84    1
    69    85    88    1
    70    38    40    1
    71    38    35    1
    72    34    35    1
    73    17    15    1
    74    89    88    1
    75    88    90    1
    76    35    36    1
    77    14    15    1
    78    14    11    1
    79   138   139    1
    80   169   168    2
    81    10    11    1
    82   168   167    1
    83   140   139    2
    84    75    73    1
    85    11    12    1
    86    70    69    1
    87    70    71    2
    88   139   141   am
    89    69    68    1
    90    69    72    1
    91    36    37    2
    92    36    42   am
    93    74    72    1
    94   170   167    1
    95   170   171    1
    96    79    78    2
    97    78    77    1
    98    25    24    2
    99    24    23    1
   100   167   166    1
   101   154   153    1
   102    72    73    1
   103   141   142    1
   104    12    13    2
   105    12    18   am
   106   172   171    1
   107   173   171    1
   108   149   148    2
   109    42    43    1
   110    27    26    1
   111   144   143    2
   112   148   147    1
   113    77    76    1
   114    77    80    1
   115    23    26    1
   116    23    22    1
   117    18    19    1
   118   143   142    1
   119   142   145    1
   120   153   152    1
   121   151   152    1
   122   151   150    1
   123    26    28    1
   124    82    80    1
   125    43    44    1
   126    43    46    1
   127    63    62    2
   128   150   147    1
   129    45    44    2
   130    67    66    1
   131    80    81    1
   132   147   146    1
   133    19    20    1
   134    62    61    1
   135    46    47    1
   136    21    20    2
   137    64    61    1
   138    64    65    1
   139    81    83    1
   140    66    65    1
   141   179   178    1
   142   178   175    1
   143    61    60    1
   144    47    48    1
   145   174   175    1
   146   175   176    1
   147    48    49    1
   148    49    50    1
   149   176   180   am
   150   176   177    2
   151   158   157    2
   152   180   181    1
   153    54    53    2
   154   157   156    1
   155    59    57   ar
   156    53    52    1
   157    57    56    1
   158    57    58   ar
   159   156   155    1
   160   156   159    1
   161    56    55    1
   162   181   184    1
   163   181   182    1
   164    55    52    1
   165    52    51    1
   166   159   160    1
   167   184   185    1
   168   182   183    2
   169   160   161    1
   170   185   186   ar
   171   185   187   ar
   172   161   162    1
   173   162   163    2
   174   164   163    1
   175   163   165    1
