@<TRIPOS>MOLECULE
tmp/5nkcA00.pdb
 172 161 0 0 0
SMALL
GASTEIGER

@<TRIPOS>ATOM
      1  N        -82.5350  -22.3590    1.6030 N.3    17  LYS17      -0.1245
      2  CA       -81.4740  -21.7880    2.3630 C.3    17  LYS17       0.1561
      3  C        -81.8740  -21.4600    3.7760 C.2    17  LYS17       0.2260
      4  O        -82.9080  -20.9500    3.9730 O.2    17  LYS17      -0.2867
      5  CB       -81.0640  -20.4680    1.6720 C.3    17  LYS17       0.0271
      6  CG       -79.9220  -19.7050    2.3100 C.3    17  LYS17       0.0035
      7  CD       -79.6380  -18.3670    1.6770 C.3    17  LYS17       0.0206
      8  CE       -78.1760  -18.0400    1.6950 C.3    17  LYS17       0.1093
      9  NZ       -77.8530  -16.8390    2.4690 N.3    17  LYS17      -0.1314
     10  N        -82.0030  -19.1010    6.8320 N.3    19  ILE19      -0.1245
     11  CA       -81.8960  -17.6600    7.0490 C.3    19  ILE19       0.1561
     12  C        -82.1070  -17.2730    8.5010 C.2    19  ILE19       0.2260
     13  O        -81.9980  -16.0930    8.8440 O.2    19  ILE19      -0.2867
     14  CB       -82.8250  -16.8430    6.1250 C.3    19  ILE19       0.0252
     15  CG1      -84.2970  -17.0720    6.4800 C.3    19  ILE19       0.0019
     16  CG2      -82.5780  -17.1930    4.6690 C.3    19  ILE19       0.0019
     17  CD1      -85.2670  -16.3100    5.6190 C.3    19  ILE19       0.0001
     18  N        -85.5930  -21.1100   10.2040 N.3    27  VAL27      -0.1245
     19  CA       -86.3260  -20.3830    9.1830 C.3    27  VAL27       0.1561
     20  C        -85.5460  -20.5150    7.8850 C.2    27  VAL27       0.2260
     21  O        -84.3270  -20.2850    7.8660 O.2    27  VAL27      -0.2867
     22  CB       -86.4810  -18.9000    9.5660 C.3    27  VAL27       0.0252
     23  CG1      -87.2880  -18.1670    8.5090 C.3    27  VAL27       0.0019
     24  CG2      -87.1080  -18.7560   10.9730 C.3    27  VAL27       0.0019
     25  N        -85.4580  -19.6690    3.4840 N.3    29  LYS29      -0.1245
     26  CA       -86.0000  -19.1570    2.2470 C.3    29  LYS29       0.1561
     27  C        -86.3300  -20.3600    1.3700 C.2    29  LYS29       0.2260
     28  O        -85.5840  -21.3460    1.3470 O.2    29  LYS29      -0.2867
     29  CB       -84.9630  -18.2710    1.5530 C.3    29  LYS29       0.0271
     30  CG       -85.4800  -17.5980    0.2920 C.3    29  LYS29       0.0035
     31  CD       -84.9130  -18.2430   -0.9510 C.3    29  LYS29       0.0206
     32  CE       -85.4880  -17.6130   -2.2080 C.3    29  LYS29       0.1093
     33  NZ       -86.8210  -18.1380   -2.5200 N.3    29  LYS29      -0.1314
     34  N        -90.9270  -17.6470    2.9740 N.3    39  ALA39      -0.1231
     35  CA       -90.1500  -17.9930    4.1440 C.3    39  ALA39       0.1694
     36  C        -90.8810  -19.1270    4.8300 C.2    39  ALA39       0.2592
     37  O        -92.1120  -19.1940    4.7970 O.2    39  ALA39      -0.2718
     38  CB       -90.0120  -16.7940    5.0800 C.3    39  ALA39       0.0304
     39  N        -90.1070  -20.0180    5.4430 N.am   40  ILE40      -0.1966
     40  CA       -90.6120  -21.2600    6.0020 C.3    40  ILE40       0.1727
     41  C        -89.9960  -21.4420    7.3810 C.2    40  ILE40       0.2616
     42  O        -88.7730  -21.5470    7.5040 O.2    40  ILE40      -0.2715
     43  CB       -90.1770  -22.4420    5.1100 C.3    40  ILE40       0.0290
     44  CG1      -90.7390  -22.3030    3.6980 C.3    40  ILE40       0.0022
     45  CG2      -90.6000  -23.7540    5.7550 C.3    40  ILE40       0.0023
     46  CD1      -89.8610  -22.9510    2.6340 C.3    40  ILE40       0.0001
     47  N        -90.8260  -21.5130    8.4130 N.am   41  LYS41      -0.1977
     48  CA       -90.3210  -21.7150    9.7640 C.3    41  LYS41       0.1596
     49  C        -90.7490  -23.1050   10.2030 C.2    41  LYS41       0.2287
     50  O        -91.9190  -23.4440   10.0630 O.2    41  LYS41      -0.2864
     51  CB       -90.9120  -20.6960   10.7390 C.3    41  LYS41       0.0298
     52  CG       -90.3660  -20.8730   12.1480 C.3    41  LYS41       0.0038
     53  CD       -91.1370  -19.9930   13.1830 C.3    41  LYS41       0.0206
     54  CE       -90.8900  -18.5360   12.9190 C.3    41  LYS41       0.1093
     55  NZ       -91.3210  -17.5620   13.9980 N.3    41  LYS41      -0.1314
     56  N        -98.7770  -18.5800   16.6680 N.3    58  GLU58      -0.1245
     57  CA       -98.2770  -17.4720   15.8670 C.3    58  GLU58       0.1567
     58  C        -98.9680  -17.4440   14.5230 C.2    58  GLU58       0.2260
     59  O        -99.4030  -16.3850   14.0630 O.2    58  GLU58      -0.2867
     60  CB       -96.7490  -17.5230   15.6950 C.3    58  GLU58       0.0388
     61  CG       -96.2600  -16.3790   14.7550 C.3    58  GLU58       0.1160
     62  CD       -94.7430  -16.1590   14.7070 C.2    58  GLU58       0.3649
     63  OE1      -93.9970  -17.1570   14.7960 O.co2  58  GLU58      -0.2457
     64  OE2      -94.3050  -14.9760   14.5580 O.co2  58  GLU58      -0.2457
     65  N       -101.4560  -14.4910   13.0350 N.3    62  MET62      -0.1245
     66  CA      -101.1530  -13.8650   11.7500 C.3    62  MET62       0.1570
     67  C       -102.2670  -14.0910   10.7330 C.2    62  MET62       0.2261
     68  O       -102.5190  -13.2330    9.8750 O.2    62  MET62      -0.2867
     69  CB       -99.8550  -14.4520   11.2020 C.3    62  MET62       0.0387
     70  CG       -98.6260  -14.0810   11.9530 C.3    62  MET62       0.0595
     71  SD       -97.1800  -14.8290   11.1550 S.3    62  MET62      -0.1393
     72  CE       -97.6590  -14.6810    9.3940 C.3    62  MET62       0.0692
     73  N        -96.9580   -8.9750    8.1090 N.3    71  ILE71      -0.1245
     74  CA       -96.5180  -10.1380    7.3390 C.3    71  ILE71       0.1561
     75  C        -97.6910  -11.0430    7.0320 C.2    71  ILE71       0.2260
     76  O        -98.5060  -11.3620    7.9210 O.2    71  ILE71      -0.2867
     77  CB       -95.4410  -10.8960    8.1210 C.3    71  ILE71       0.0252
     78  CG1      -94.1780  -10.0810    8.2210 C.3    71  ILE71       0.0019
     79  CG2      -95.1500  -12.2280    7.4190 C.3    71  ILE71       0.0019
     80  CD1      -93.4820   -9.9570    6.8720 C.3    71  ILE71       0.0001
     81  N        -94.6280  -23.1650    9.2280 N.3    85  ILE85      -0.1245
     82  CA       -95.4170  -21.9640    8.9280 C.3    85  ILE85       0.1561
     83  C        -94.7780  -21.3210    7.7100 C.2    85  ILE85       0.2260
     84  O        -93.5470  -21.1900    7.6520 O.2    85  ILE85      -0.2867
     85  CB       -95.4100  -20.9620   10.1000 C.3    85  ILE85       0.0252
     86  CG1      -95.9780  -21.5920   11.3710 C.3    85  ILE85       0.0019
     87  CG2      -96.2170  -19.7120    9.7090 C.3    85  ILE85       0.0019
     88  CD1      -95.7340  -20.7770   12.5930 C.3    85  ILE85       0.0001
     89  N        -94.8040  -18.0810    5.0480 N.3    87  THR87      -0.1203
     90  CA       -95.2400  -16.6980    4.8770 C.3    87  THR87       0.1994
     91  C        -94.6690  -16.1100    3.6060 C.2    87  THR87       0.2618
     92  O        -93.8110  -16.6980    2.9530 O.2    87  THR87      -0.2717
     93  CB       -94.7960  -15.7920    6.0340 C.3    87  THR87       0.1784
     94  OG1      -93.3700  -15.5730    5.9630 O.3    87  THR87      -0.2211
     95  CG2      -95.1870  -16.3920    7.3620 C.3    87  THR87       0.0376
     96  N        -95.1210  -14.9060    3.2670 N.am   88  GLU88      -0.1965
     97  CA       -94.4250  -14.1950    2.2040 C.3    88  GLU88       0.1733
     98  C        -92.9510  -14.0230    2.5620 C.2    88  GLU88       0.2616
     99  O        -92.5750  -14.0230    3.7450 O.2    88  GLU88      -0.2715
    100  CB       -95.0700  -12.8250    1.9550 C.3    88  GLU88       0.0429
    101  CG       -94.8890  -11.8540    3.1140 C.3    88  GLU88       0.1163
    102  CD       -95.5760  -10.5000    2.8760 C.2    88  GLU88       0.3649
    103  OE1      -95.3950   -9.8780    1.8110 O.co2  88  GLU88      -0.2457
    104  OE2      -96.2690  -10.0500    3.7860 O.co2  88  GLU88      -0.2457
    105  N        -92.1010  -13.9070    1.5400 N.am   89  TYR89      -0.1960
    106  CA       -90.6580  -13.7660    1.7330 C.3    89  TYR89       0.1771
    107  C        -90.2760  -12.3000    1.5960 C.2    89  TYR89       0.2619
    108  O        -90.5170  -11.6760    0.5650 O.2    89  TYR89      -0.2715
    109  CB       -89.8960  -14.5980    0.6990 C.3    89  TYR89       0.0574
    110  CG       -88.4220  -14.4350    0.8530 C.ar   89  TYR89      -0.0198
    111  CD1      -87.8050  -14.8410    2.0180 C.ar   89  TYR89      -0.0009
    112  CD2      -87.6460  -13.8290   -0.1380 C.ar   89  TYR89      -0.0009
    113  CE1      -86.4270  -14.6720    2.1950 C.ar   89  TYR89       0.0417
    114  CE2      -86.2970  -13.6770    0.0240 C.ar   89  TYR89       0.0417
    115  CZ       -85.6940  -14.0760    1.2030 C.ar   89  TYR89       0.1957
    116  OH       -84.3380  -13.9420    1.3960 O.3    89  TYR89      -0.2866
    117  N        -89.6590  -11.7530    2.6350 N.am   90  MET90      -0.1963
    118  CA       -89.2360  -10.3630    2.6460 C.3    90  MET90       0.1736
    119  C        -87.7590  -10.3500    2.2530 C.2    90  MET90       0.2616
    120  O        -86.8860  -10.8090    3.0070 O.2    90  MET90      -0.2715
    121  CB       -89.4950   -9.7700    4.0370 C.3    90  MET90       0.0427
    122  CG       -90.9660   -9.8850    4.3990 C.3    90  MET90       0.0599
    123  SD       -92.0300   -8.7750    3.5050 S.3    90  MET90      -0.1393
    124  CE       -91.5550   -7.1900    4.2650 C.3    90  MET90       0.0692
    125  N        -87.4720   -9.8080    1.0570 N.am   91  GLU91      -0.1963
    126  CA       -86.1630  -10.0320    0.4600 C.3    91  GLU91       0.1733
    127  C        -85.0350   -9.3190    1.1700 C.2    91  GLU91       0.2616
    128  O        -83.8840   -9.7150    0.9880 O.2    91  GLU91      -0.2715
    129  CB       -86.1730   -9.5500   -0.9980 C.3    91  GLU91       0.0429
    130  CG       -87.2470  -10.2870   -1.8590 C.3    91  GLU91       0.1163
    131  CD       -88.5790   -9.5540   -1.9620 C.2    91  GLU91       0.3649
    132  OE1      -88.9490   -8.7580   -1.0820 O.co2  91  GLU91      -0.2457
    133  OE2      -89.3090   -9.7960   -2.9490 O.co2  91  GLU91      -0.2457
    134  N        -85.3060   -8.2900    1.9770 N.am   92  ASN92      -0.1958
    135  CA       -84.2110   -7.5360    2.5850 C.3    92  ASN92       0.1819
    136  C        -84.0810   -7.7920    4.0770 C.2    92  ASN92       0.2622
    137  O        -83.2130   -7.1840    4.7200 O.2    92  ASN92      -0.2715
    138  CB       -84.3330   -6.0310    2.3420 C.3    92  ASN92       0.1195
    139  CG       -84.1120   -5.6820    0.8780 C.2    92  ASN92       0.2630
    140  OD1      -83.0730   -6.0600    0.3410 O.2    92  ASN92      -0.2716
    141  ND2      -85.0870   -5.0430    0.2310 N.am   92  ASN92      -0.0877
    142  N        -84.8500   -8.7280    4.6200 N.am   93  GLY93      -0.1940
    143  CA       -84.5760   -9.1670    5.9870 C.3    93  GLY93       0.2014
    144  C        -85.0220   -8.1820    7.0600 C.2    93  GLY93       0.2638
    145  O        -85.8800   -7.3130    6.8520 O.2    93  GLY93      -0.2714
    146  N        -84.3840   -8.3190    8.2220 N.am   94  ALA94      -0.1977
    147  CA       -84.7530   -7.5200    9.3800 C.3    94  ALA94       0.1597
    148  C        -84.2800   -6.0840    9.2330 C.2    94  ALA94       0.2287
    149  O        -83.1680   -5.8190    8.7900 O.2    94  ALA94      -0.2864
    150  CB       -84.1260   -8.1280   10.6350 C.3    94  ALA94       0.0319
    151  N        -89.6780   -6.4550    9.0990 N.3   141  LEU141     -0.1245
    152  CA       -89.0590   -7.0140    7.9030 C.3   141  LEU141      0.1561
    153  C        -89.2690   -6.0750    6.7450 C.2   141  LEU141      0.2260
    154  O        -90.2450   -5.3280    6.7050 O.2   141  LEU141     -0.2867
    155  CB       -89.6530   -8.3860    7.5790 C.3   141  LEU141      0.0270
    156  CG       -89.2840   -9.4940    8.5910 C.3   141  LEU141      0.0019
    157  CD1      -90.2060  -10.7240    8.3980 C.3   141  LEU141      0.0001
    158  CD2      -87.7550   -9.8950    8.5240 C.3   141  LEU141      0.0001
    159  N        -93.5940   -7.9400   12.2760 N.3   151  SER151     -0.1202
    160  CA       -93.5390   -9.3990   12.4220 C.3   151  SER151      0.2020
    161  C        -93.3860   -9.7110   13.8930 C.2   151  SER151      0.2618
    162  O        -93.3310   -8.8130   14.7350 O.2   151  SER151     -0.2717
    163  CB       -92.4420  -10.0520   11.5900 C.3   151  SER151      0.2103
    164  OG       -91.2170   -9.5740   12.0000 O.3   151  SER151     -0.2182
    165  N        -93.2240  -11.0120   14.1630 N.am  152  ASP152     -0.1973
    166  CA       -93.0030  -11.5570   15.5060 C.3   152  ASP152      0.1709
    167  C        -94.2800  -11.5260   16.3300 C.2   152  ASP152      0.2293
    168  O        -94.4370  -10.6600   17.1950 O.2   152  ASP152     -0.2864
    169  CB       -91.8380  -10.8410   16.1910 C.3   152  ASP152      0.1436
    170  CG       -91.3980  -11.5380   17.4720 C.2   152  ASP152      0.3671
    171  OD1      -91.7430  -12.7250   17.6680 O.co2 152  ASP152     -0.2456
    172  OD2      -90.6850  -10.8970   18.2610 O.co2 152  ASP152     -0.2456
@<TRIPOS>BOND
     1   133   131   ar
     2    33    32    1
     3    32    31    1
     4   131   130    1
     5   131   132   ar
     6   130   129    1
     7   129   126    1
     8    31    30    1
     9   112   114   ar
    10   112   110   ar
    11   114   115   ar
    12   141   139   am
    13    30    29    1
    14   140   139    2
    15   126   125    1
    16   126   127    1
    17   108   107    2
    18   109   110    1
    19   109   106    1
    20   110   111   ar
    21   139   138    1
    22   128   127    2
    23   125   119   am
    24   127   134   am
    25   115   116    1
    26   115   113   ar
    27    28    27    2
    28    27    26    1
    29   105   106    1
    30   105    98   am
    31    29    26    1
    32   107   106    1
    33   107   117   am
    34     1     2    1
    35     5     6    1
    36     5     2    1
    37     7     8    1
    38     7     6    1
    39     8     9    1
    40   103   102   ar
    41   100    97    1
    42   100   101    1
    43   134   135    1
    44   111   113   ar
    45    97    98    1
    46    97    96    1
    47    26    25    1
    48   119   118    1
    49   119   120    2
    50   138   135    1
    51     2     3    1
    52    98    99    2
    53   135   136    1
    54    46    44    1
    55   117   118    1
    56   118   121    1
    57   102   101    1
    58   102   104   ar
    59    92    91    2
    60    34    35    1
    61    96    91   am
    62   123   124    1
    63   123   122    1
    64    91    90    1
    65    44    43    1
    66     3     4    2
    67   121   122    1
    68   136   142   am
    69   136   137    2
    70    35    36    1
    71    35    38    1
    72   142   143    1
    73    16    14    1
    74    37    36    2
    75    36    39   am
    76    90    89    1
    77    90    93    1
    78    43    45    1
    79    43    40    1
    80    39    40    1
    81    17    15    1
    82    94    93    1
    83   143   144    1
    84    40    41    1
    85    93    95    1
    86    14    15    1
    87    14    11    1
    88   154   153    2
    89   153   152    1
    90    10    11    1
    91   145   144    2
    92    80    78    1
    93    75    74    1
    94    75    76    2
    95    11    12    1
    96   144   146   am
    97    74    73    1
    98    74    77    1
    99    41    42    2
   100    41    47   am
   101    79    77    1
   102   155   152    1
   103   155   156    1
   104    84    83    2
   105    83    82    1
   106    21    20    2
   107    20    19    1
   108   152   151    1
   109    77    78    1
   110   146   147    1
   111   157   156    1
   112    47    48    1
   113    12    13    2
   114    23    22    1
   115   158   156    1
   116   149   148    2
   117    82    81    1
   118    82    85    1
   119    19    22    1
   120    19    18    1
   121   148   147    1
   122   147   150    1
   123    72    71    1
   124    22    24    1
   125    87    85    1
   126    48    49    1
   127    48    51    1
   128    68    67    2
   129    50    49    2
   130    85    86    1
   131    67    66    1
   132    51    52    1
   133    71    70    1
   134    69    66    1
   135    69    70    1
   136    86    88    1
   137   163   164    1
   138   163   160    1
   139    66    65    1
   140    52    53    1
   141   159   160    1
   142   160   161    1
   143    54    53    1
   144    54    55    1
   145   161   165   am
   146   161   162    2
   147    59    58    2
   148   165   166    1
   149    58    57    1
   150    64    62   ar
   151    62    61    1
   152    62    63   ar
   153    61    60    1
   154   166   169    1
   155   166   167    1
   156    60    57    1
   157    57    56    1
   158   169   170    1
   159   167   168    2
   160   170   171   ar
   161   170   172   ar
