@<TRIPOS>MOLECULE
tmp/5nkdA00.pdb
 172 161 0 0 0
SMALL
GASTEIGER

@<TRIPOS>ATOM
      1  N        -82.4000  -25.1060    1.6210 N.3    18  LYS18      -0.1245
      2  CA       -81.3230  -24.5590    2.3750 C.3    18  LYS18       0.1561
      3  C        -81.7380  -24.1460    3.7620 C.2    18  LYS18       0.2260
      4  O        -82.7920  -23.6370    3.9040 O.2    18  LYS18      -0.2867
      5  CB       -80.7930  -23.3490    1.6140 C.3    18  LYS18       0.0271
      6  CG       -79.9530  -22.4450    2.4440 C.3    18  LYS18       0.0035
      7  CD       -79.1750  -21.4660    1.6340 C.3    18  LYS18       0.0206
      8  CE       -78.6780  -20.4490    2.6330 C.3    18  LYS18       0.1093
      9  NZ       -77.2750  -20.0380    2.5670 N.3    18  LYS18      -0.1314
     10  N        -81.9800  -21.7880    6.8470 N.3    20  ILE20      -0.1245
     11  CA       -81.9140  -20.3450    7.0610 C.3    20  ILE20       0.1561
     12  C        -82.1960  -19.9680    8.5030 C.2    20  ILE20       0.2260
     13  O        -82.1640  -18.7860    8.8500 O.2    20  ILE20      -0.2867
     14  CB       -82.8420  -19.5770    6.1010 C.3    20  ILE20       0.0252
     15  CG1      -84.3130  -19.8960    6.3990 C.3    20  ILE20       0.0019
     16  CG2      -82.5330  -19.9740    4.6770 C.3    20  ILE20       0.0019
     17  CD1      -85.2750  -19.2020    5.4800 C.3    20  ILE20       0.0001
     18  N        -85.4890  -23.8820   10.1580 N.3    28  VAL28      -0.1245
     19  CA       -86.2490  -23.1830    9.1280 C.3    28  VAL28       0.1561
     20  C        -85.4590  -23.3150    7.8480 C.2    28  VAL28       0.2260
     21  O        -84.2340  -23.1400    7.8650 O.2    28  VAL28      -0.2867
     22  CB       -86.4080  -21.6860    9.4810 C.3    28  VAL28       0.0252
     23  CG1      -87.2930  -20.9370    8.4500 C.3    28  VAL28       0.0019
     24  CG2      -86.9000  -21.5150   10.9140 C.3    28  VAL28       0.0019
     25  N        -85.3500  -22.3050    3.4650 N.3    30  LYS30      -0.1245
     26  CA       -85.8870  -21.8690    2.1890 C.3    30  LYS30       0.1561
     27  C        -86.1860  -23.1200    1.3800 C.2    30  LYS30       0.2260
     28  O        -85.3840  -24.0650    1.3590 O.2    30  LYS30      -0.2867
     29  CB       -84.8720  -21.0180    1.4120 C.3    30  LYS30       0.0271
     30  CG       -85.4380  -20.3280    0.1560 C.3    30  LYS30       0.0035
     31  CD       -85.3700  -21.1950   -1.0980 C.3    30  LYS30       0.0206
     32  CE       -86.0100  -20.5420   -2.3120 C.3    30  LYS30       0.1093
     33  NZ       -85.8510  -21.4570   -3.4880 N.3    30  LYS30      -0.1314
     34  N        -90.9050  -20.4460    2.8840 N.3    39  ALA39      -0.1231
     35  CA       -90.1420  -20.7930    4.0690 C.3    39  ALA39       0.1694
     36  C        -90.8310  -21.9390    4.7770 C.2    39  ALA39       0.2592
     37  O        -92.0640  -21.9940    4.8410 O.2    39  ALA39      -0.2718
     38  CB       -90.0240  -19.6040    5.0410 C.3    39  ALA39       0.0304
     39  N        -90.0160  -22.8120    5.3640 N.am   40  ILE40      -0.1966
     40  CA       -90.4590  -24.0790    5.9110 C.3    40  ILE40       0.1727
     41  C        -89.8570  -24.2610    7.3130 C.2    40  ILE40       0.2616
     42  O        -88.6360  -24.3580    7.4620 O.2    40  ILE40      -0.2715
     43  CB       -89.9210  -25.1400    4.9390 C.3    40  ILE40       0.0290
     44  CG1      -90.5830  -25.0220    3.5740 C.3    40  ILE40       0.0022
     45  CG2      -90.1090  -26.4060    5.4210 C.3    40  ILE40       0.0023
     46  CD1      -89.7290  -25.5640    2.4270 C.3    40  ILE40       0.0001
     47  N        -90.7080  -24.3300    8.3410 N.am   41  LYS41      -0.1977
     48  CA       -90.2350  -24.5130    9.7140 C.3    41  LYS41       0.1596
     49  C        -90.6410  -25.9050   10.1750 C.2    41  LYS41       0.2287
     50  O        -91.8070  -26.2610   10.0380 O.2    41  LYS41      -0.2864
     51  CB       -90.8090  -23.4760   10.6800 C.3    41  LYS41       0.0298
     52  CG       -90.2950  -23.6350   12.1140 C.3    41  LYS41       0.0038
     53  CD       -91.0550  -22.6760   13.1100 C.3    41  LYS41       0.0206
     54  CE       -90.7250  -21.2270   12.8710 C.3    41  LYS41       0.1093
     55  NZ       -91.3030  -20.2740   13.9140 N.3    41  LYS41      -0.1314
     56  N        -98.6800  -21.3590   16.6110 N.3    58  GLU58      -0.1245
     57  CA       -98.1830  -20.2600   15.7840 C.3    58  GLU58       0.1567
     58  C        -98.8880  -20.2540   14.4360 C.2    58  GLU58       0.2260
     59  O        -99.3380  -19.2010   13.9530 O.2    58  GLU58      -0.2867
     60  CB       -96.6470  -20.3150   15.5950 C.3    58  GLU58       0.0388
     61  CG       -96.1310  -19.1320   14.7110 C.3    58  GLU58       0.1160
     62  CD       -94.6040  -18.9590   14.6480 C.2    58  GLU58       0.3649
     63  OE1      -93.8870  -19.9660   14.7460 O.co2  58  GLU58      -0.2457
     64  OE2      -94.1280  -17.7960   14.4520 O.co2  58  GLU58      -0.2457
     65  N       -101.3480  -17.3050   12.9460 N.3    62  MET62      -0.1245
     66  CA      -101.0800  -16.6720   11.6520 C.3    62  MET62       0.1570
     67  C       -102.2120  -16.8880   10.6600 C.2    62  MET62       0.2261
     68  O       -102.4850  -16.0170    9.8230 O.2    62  MET62      -0.2867
     69  CB       -99.7740  -17.2250   11.0810 C.3    62  MET62       0.0387
     70  CG       -98.5880  -16.8910   11.9330 C.3    62  MET62       0.0595
     71  SD       -97.0970  -17.6620   11.2550 S.3    62  MET62      -0.1393
     72  CE       -97.3820  -17.3660    9.5020 C.3    62  MET62       0.0692
     73  N        -96.8430  -11.7800    8.0660 N.3    71  ILE71      -0.1245
     74  CA       -96.3950  -12.9360    7.2720 C.3    71  ILE71       0.1561
     75  C        -97.5710  -13.8450    6.9480 C.2    71  ILE71       0.2260
     76  O        -98.3640  -14.1870    7.8280 O.2    71  ILE71      -0.2867
     77  CB       -95.3530  -13.7050    8.0870 C.3    71  ILE71       0.0252
     78  CG1      -94.0980  -12.8960    8.1950 C.3    71  ILE71       0.0019
     79  CG2      -95.0200  -15.0210    7.3660 C.3    71  ILE71       0.0019
     80  CD1      -93.4000  -12.7450    6.8720 C.3    71  ILE71       0.0001
     81  N        -94.5320  -25.9870    9.1850 N.3    85  ILE85      -0.1245
     82  CA       -95.3300  -24.7940    8.8800 C.3    85  ILE85       0.1561
     83  C        -94.6850  -24.1370    7.6770 C.2    85  ILE85       0.2260
     84  O        -93.4600  -23.9500    7.6620 O.2    85  ILE85      -0.2867
     85  CB       -95.3420  -23.7950   10.0540 C.3    85  ILE85       0.0252
     86  CG1      -95.9390  -24.4210   11.3100 C.3    85  ILE85       0.0019
     87  CG2      -96.1780  -22.5460    9.7040 C.3    85  ILE85       0.0019
     88  CD1      -95.6190  -23.6240   12.5600 C.3    85  ILE85       0.0001
     89  N        -94.7320  -20.8850    4.9470 N.3    87  THR87      -0.1203
     90  CA       -95.1400  -19.4950    4.7850 C.3    87  THR87       0.1994
     91  C        -94.5470  -18.9180    3.5190 C.2    87  THR87       0.2618
     92  O        -93.6570  -19.4980    2.8820 O.2    87  THR87      -0.2717
     93  CB       -94.7140  -18.5720    5.9520 C.3    87  THR87       0.1784
     94  OG1      -93.2840  -18.3550    5.9020 O.3    87  THR87      -0.2211
     95  CG2      -95.1170  -19.1540    7.2810 C.3    87  THR87       0.0376
     96  N        -94.9930  -17.7140    3.1880 N.am   88  GLU88      -0.1965
     97  CA       -94.2720  -17.0040    2.1370 C.3    88  GLU88       0.1733
     98  C        -92.7980  -16.8570    2.5090 C.2    88  GLU88       0.2616
     99  O        -92.4240  -16.8660    3.6830 O.2    88  GLU88      -0.2715
    100  CB       -94.8930  -15.6260    1.8920 C.3    88  GLU88       0.0429
    101  CG       -94.7720  -14.6880    3.0770 C.3    88  GLU88       0.1163
    102  CD       -95.4500  -13.3390    2.8270 C.2    88  GLU88       0.3649
    103  OE1      -95.2940  -12.7590    1.7360 O.co2  88  GLU88      -0.2457
    104  OE2      -96.1810  -12.8820    3.7240 O.co2  88  GLU88      -0.2457
    105  N        -91.9490  -16.7350    1.5050 N.am   89  TYR89      -0.1960
    106  CA       -90.5080  -16.6080    1.6930 C.3    89  TYR89       0.1771
    107  C        -90.1160  -15.1490    1.5630 C.2    89  TYR89       0.2619
    108  O        -90.3450  -14.5380    0.5170 O.2    89  TYR89      -0.2715
    109  CB       -89.7620  -17.4290    0.6480 C.3    89  TYR89       0.0574
    110  CG       -88.3110  -17.2470    0.7810 C.ar   89  TYR89      -0.0198
    111  CD1      -87.6520  -17.6530    1.9460 C.ar   89  TYR89      -0.0009
    112  CD2      -87.5690  -16.6120   -0.2080 C.ar   89  TYR89      -0.0009
    113  CE1      -86.3080  -17.4480    2.0970 C.ar   89  TYR89       0.0417
    114  CE2      -86.2110  -16.4240   -0.0770 C.ar   89  TYR89       0.0417
    115  CZ       -85.5840  -16.8510    1.0950 C.ar   89  TYR89       0.1957
    116  OH       -84.2340  -16.6880    1.2800 O.3    89  TYR89      -0.2866
    117  N        -89.5570  -14.5810    2.6290 N.am   90  MET90      -0.1963
    118  CA       -89.1320  -13.1840    2.6260 C.3    90  MET90       0.1736
    119  C        -87.6510  -13.1580    2.2200 C.2    90  MET90       0.2616
    120  O        -86.7910  -13.6150    2.9710 O.2    90  MET90      -0.2715
    121  CB       -89.3720  -12.5770    4.0110 C.3    90  MET90       0.0427
    122  CG       -90.8610  -12.6950    4.4020 C.3    90  MET90       0.0599
    123  SD       -91.9200  -11.6050    3.4960 S.3    90  MET90      -0.1393
    124  CE       -91.4510  -10.0240    4.2570 C.3    90  MET90       0.0692
    125  N        -87.3550  -12.5890    1.0480 N.am   91  GLU91      -0.1963
    126  CA       -86.0600  -12.8110    0.4260 C.3    91  GLU91       0.1733
    127  C        -84.9130  -12.1020    1.1540 C.2    91  GLU91       0.2616
    128  O        -83.7640  -12.4980    0.9550 O.2    91  GLU91      -0.2715
    129  CB       -86.1410  -12.3170   -1.0370 C.3    91  GLU91       0.0429
    130  CG       -87.1620  -13.0500   -1.9350 C.3    91  GLU91       0.1163
    131  CD       -88.5280  -12.3720   -1.9730 C.2    91  GLU91       0.3649
    132  OE1      -88.8910  -11.5630   -1.1000 O.co2  91  GLU91      -0.2457
    133  OE2      -89.2610  -12.6430   -2.9430 O.co2  91  GLU91      -0.2457
    134  N        -85.1890  -11.0730    1.9520 N.am   92  ASN92      -0.1958
    135  CA       -84.1480  -10.3090    2.6100 C.3    92  ASN92       0.1819
    136  C        -84.0000  -10.5760    4.0920 C.2    92  ASN92       0.2622
    137  O        -83.1290   -9.9630    4.7340 O.2    92  ASN92      -0.2715
    138  CB       -84.3290   -8.8130    2.3520 C.3    92  ASN92       0.1195
    139  CG       -84.0240   -8.4580    0.8700 C.2    92  ASN92       0.2630
    140  OD1      -82.9260   -8.7370    0.3620 O.2    92  ASN92      -0.2716
    141  ND2      -84.9900   -7.8740    0.1970 N.am   92  ASN92      -0.0877
    142  N        -84.7790  -11.5100    4.6270 N.am   93  GLY93      -0.1940
    143  CA       -84.5170  -11.9990    5.9760 C.3    93  GLY93       0.2014
    144  C        -84.9160  -11.0040    7.0340 C.2    93  GLY93       0.2638
    145  O        -85.7740  -10.1640    6.8370 O.2    93  GLY93      -0.2714
    146  N        -84.2680  -11.1360    8.1890 N.am   94  ALA94      -0.1977
    147  CA       -84.6510  -10.3590    9.3490 C.3    94  ALA94       0.1597
    148  C        -84.1680   -8.9310    9.1730 C.2    94  ALA94       0.2287
    149  O        -83.0310   -8.6830    8.7450 O.2    94  ALA94      -0.2864
    150  CB       -84.0330  -10.9430   10.6300 C.3    94  ALA94       0.0319
    151  N        -89.5780   -9.2340    9.0310 N.3   141  LEU141     -0.1245
    152  CA       -88.9490   -9.8560    7.8900 C.3   141  LEU141      0.1561
    153  C        -89.1390   -8.9220    6.7090 C.2   141  LEU141      0.2260
    154  O        -90.1140   -8.1610    6.6640 O.2   141  LEU141     -0.2867
    155  CB       -89.5270  -11.2460    7.5910 C.3   141  LEU141      0.0270
    156  CG       -89.2270  -12.3420    8.6180 C.3   141  LEU141      0.0019
    157  CD1      -90.1350  -13.5600    8.3770 C.3   141  LEU141      0.0001
    158  CD2      -87.7350  -12.7570    8.4740 C.3   141  LEU141      0.0001
    159  N        -93.4920  -10.7670   12.2570 N.3   151  SER151     -0.1202
    160  CA       -93.4250  -12.2190   12.3720 C.3   151  SER151      0.2020
    161  C        -93.2800  -12.5540   13.8350 C.2   151  SER151      0.2618
    162  O        -93.2740  -11.6640   14.6860 O.2   151  SER151     -0.2717
    163  CB       -92.3360  -12.8250   11.5140 C.3   151  SER151      0.2103
    164  OG       -91.0930  -12.3070   11.8460 O.3   151  SER151     -0.2182
    165  N        -93.1370  -13.8580   14.1070 N.am  152  ASP152     -0.1973
    166  CA       -92.9380  -14.3950   15.4490 C.3   152  ASP152      0.1709
    167  C        -94.2100  -14.3650   16.2990 C.2   152  ASP152      0.2293
    168  O        -94.3480  -13.5110   17.1770 O.2   152  ASP152     -0.2864
    169  CB       -91.8060  -13.6460   16.1380 C.3   152  ASP152      0.1436
    170  CG       -91.3780  -14.3070   17.4400 C.2   152  ASP152      0.3671
    171  OD1      -91.6710  -15.5110   17.6480 O.co2 152  ASP152     -0.2456
    172  OD2      -90.7390  -13.6140   18.2420 O.co2 152  ASP152     -0.2456
@<TRIPOS>BOND
     1    33    32    1
     2   133   131   ar
     3    32    31    1
     4   131   130    1
     5   131   132   ar
     6   130   129    1
     7    31    30    1
     8   129   126    1
     9   112   114   ar
    10   112   110   ar
    11   114   115   ar
    12    30    29    1
    13   141   139   am
    14   140   139    2
    15   126   125    1
    16   126   127    1
    17   108   107    2
    18   109   110    1
    19   109   106    1
    20   110   111   ar
    21   139   138    1
    22   128   127    2
    23   125   119   am
    24   115   116    1
    25   115   113   ar
    26   127   134   am
    27    28    27    2
    28    27    26    1
    29    29    26    1
    30   105   106    1
    31   105    98   am
    32   107   106    1
    33   107   117   am
    34     5     2    1
    35     5     6    1
    36     1     2    1
    37     7     6    1
    38     7     8    1
    39   103   102   ar
    40   100    97    1
    41   100   101    1
    42   111   113   ar
    43   134   135    1
    44    97    98    1
    45    97    96    1
    46    26    25    1
    47   119   118    1
    48   119   120    2
    49   138   135    1
    50     2     3    1
    51    46    44    1
    52    98    99    2
    53     9     8    1
    54   135   136    1
    55   118   117    1
    56   118   121    1
    57   102   101    1
    58   102   104   ar
    59    92    91    2
    60    34    35    1
    61    96    91   am
    62   123   124    1
    63   123   122    1
    64    91    90    1
    65    44    43    1
    66     3     4    2
    67   121   122    1
    68    35    36    1
    69    35    38    1
    70   136   142   am
    71   136   137    2
    72   142   143    1
    73    16    14    1
    74    36    37    2
    75    36    39   am
    76    90    89    1
    77    90    93    1
    78    43    45    1
    79    43    40    1
    80    39    40    1
    81    17    15    1
    82    94    93    1
    83    40    41    1
    84    93    95    1
    85   143   144    1
    86    14    15    1
    87    14    11    1
    88   154   153    2
    89   153   152    1
    90   145   144    2
    91    10    11    1
    92    80    78    1
    93    75    74    1
    94    75    76    2
    95   144   146   am
    96    11    12    1
    97    74    73    1
    98    74    77    1
    99    41    42    2
   100    41    47   am
   101    79    77    1
   102   155   152    1
   103   155   156    1
   104    84    83    2
   105    83    82    1
   106    20    21    2
   107    20    19    1
   108   152   151    1
   109    77    78    1
   110   146   147    1
   111    47    48    1
   112   157   156    1
   113    23    22    1
   114   158   156    1
   115    12    13    2
   116   149   148    2
   117    82    81    1
   118    82    85    1
   119    19    22    1
   120    19    18    1
   121   148   147    1
   122   147   150    1
   123    22    24    1
   124    72    71    1
   125    87    85    1
   126    48    49    1
   127    48    51    1
   128    68    67    2
   129    50    49    2
   130    85    86    1
   131    67    66    1
   132    51    52    1
   133    69    66    1
   134    69    70    1
   135    71    70    1
   136    86    88    1
   137   163   164    1
   138   163   160    1
   139    66    65    1
   140    52    53    1
   141   159   160    1
   142   160   161    1
   143    54    53    1
   144    54    55    1
   145   161   165   am
   146   161   162    2
   147    59    58    2
   148   165   166    1
   149    58    57    1
   150    64    62   ar
   151    62    61    1
   152    62    63   ar
   153    61    60    1
   154   166   169    1
   155   166   167    1
   156    60    57    1
   157    57    56    1
   158   169   170    1
   159   167   168    2
   160   170   171   ar
   161   170   172   ar
