@<TRIPOS>MOLECULE
tmp/5nkeA00.pdb
 183 173 0 0 0
SMALL
GASTEIGER

@<TRIPOS>ATOM
      1  N        119.0580   21.9380   45.8950 N.3    15  ILE15      -0.1245
      2  CA       118.7460   20.5310   46.1210 C.3    15  ILE15       0.1561
      3  C        118.5880   20.1890   47.5910 C.2    15  ILE15       0.2260
      4  O        118.1720   19.0640   47.9100 O.2    15  ILE15      -0.2867
      5  CB       119.7640   19.5810   45.4490 C.3    15  ILE15       0.0252
      6  CG1      121.1600   19.7800   46.0420 C.3    15  ILE15       0.0019
      7  CG2      119.7810   19.7930   43.9400 C.3    15  ILE15       0.0019
      8  CD1      122.2520   19.0190   45.3110 C.3    15  ILE15       0.0001
      9  N        122.3950   23.6360   49.9400 N.3    23  VAL23      -0.1245
     10  CA       123.1700   22.8300   49.0040 C.3    23  VAL23       0.1561
     11  C        122.5500   23.0030   47.6240 C.2    23  VAL23       0.2260
     12  O        121.3310   22.8740   47.4650 O.2    23  VAL23      -0.2867
     13  CB       123.1980   21.3450   49.4120 C.3    23  VAL23       0.0252
     14  CG1      124.0800   20.5500   48.4540 C.3    23  VAL23       0.0019
     15  CG2      123.6860   21.1930   50.8430 C.3    23  VAL23       0.0019
     16  N        128.3560   20.1550   43.1770 N.3    40  ALA40      -0.1231
     17  CA       127.4810   20.4570   44.2960 C.3    40  ALA40       0.1694
     18  C        128.1360   21.5460   45.1320 C.2    40  ALA40       0.2592
     19  O        129.3590   21.5760   45.2710 O.2    40  ALA40      -0.2718
     20  CB       127.2490   19.2260   45.1680 C.3    40  ALA40       0.0304
     21  N        127.3180   22.4440   45.6730 N.am   41  ILE41      -0.1966
     22  CA       127.7880   23.6560   46.3390 C.3    41  ILE41       0.1727
     23  C        127.0350   23.7710   47.6550 C.2    41  ILE41       0.2616
     24  O        125.8020   23.8200   47.6580 O.2    41  ILE41      -0.2715
     25  CB       127.5260   24.9010   45.4700 C.3    41  ILE41       0.0290
     26  CG1      128.2260   24.7720   44.1180 C.3    41  ILE41       0.0022
     27  CG2      127.9570   26.1800   46.1960 C.3    41  ILE41       0.0023
     28  CD1      127.6080   25.6470   43.0400 C.3    41  ILE41       0.0001
     29  N        127.7640   23.8100   48.7640 N.am   42  LYS42      -0.1977
     30  CA       127.1840   24.0250   50.0860 C.3    42  LYS42       0.1596
     31  C        127.6240   25.3840   50.6150 C.2    42  LYS42       0.2287
     32  O        128.8110   25.7140   50.5680 O.2    42  LYS42      -0.2864
     33  CB       127.6170   22.9190   51.0540 C.3    42  LYS42       0.0298
     34  CG       126.9240   22.9770   52.4150 C.3    42  LYS42       0.0038
     35  CD       127.2220   21.7230   53.2420 C.3    42  LYS42       0.0206
     36  CE       128.3990   21.9310   54.1790 C.3    42  LYS42       0.1093
     37  NZ       128.4290   20.9300   55.2940 N.3    42  LYS42      -0.1314
     38  N        135.5750   20.2470   57.3890 N.3    59  GLU59      -0.1245
     39  CA       135.1310   19.1520   56.5320 C.3    59  GLU59       0.1567
     40  C        135.7820   19.2320   55.1580 C.2    59  GLU59       0.2260
     41  O        136.2150   18.2110   54.6090 O.2    59  GLU59      -0.2867
     42  CB       133.6050   19.1220   56.4040 C.3    59  GLU59       0.0388
     43  CG       133.1480   18.0710   55.3930 C.3    59  GLU59       0.1160
     44  CD       131.6550   17.8040   55.3850 C.2    59  GLU59       0.3649
     45  OE1      130.8700   18.7280   55.6840 O.co2  59  GLU59      -0.2457
     46  OE2      131.2730   16.6570   55.0550 O.co2  59  GLU59      -0.2457
     47  N        138.2900   16.4500   53.4320 N.3    63  MET63      -0.1245
     48  CA       137.9890   15.9290   52.1010 C.3    63  MET63       0.1570
     49  C        139.1410   16.1710   51.1340 C.2    63  MET63       0.2261
     50  O        139.4550   15.3140   50.3010 O.2    63  MET63      -0.2867
     51  CB       136.6980   16.5580   51.5640 C.3    63  MET63       0.0387
     52  CG       135.4110   16.0650   52.2080 C.3    63  MET63       0.0595
     53  SD       133.9550   16.6600   51.3030 S.3    63  MET63      -0.1393
     54  CE       134.6750   16.7670   49.6740 C.3    63  MET63       0.0692
     55  N        134.0960   11.0520   48.0150 N.3    72  ILE72      -0.1245
     56  CA       133.6460   12.2620   47.3230 C.3    72  ILE72       0.1561
     57  C        134.8240   13.2080   47.0780 C.2    72  ILE72       0.2260
     58  O        135.6330   13.4660   47.9740 O.2    72  ILE72      -0.2867
     59  CB       132.5150   12.9270   48.1360 C.3    72  ILE72       0.0252
     60  CG1      131.9200   14.1160   47.3760 C.3    72  ILE72       0.0019
     61  CG2      132.9770   13.3470   49.5180 C.3    72  ILE72       0.0019
     62  CD1      130.9560   13.6890   46.3240 C.3    72  ILE72       0.0001
     63  N        131.6090   25.3440   49.9840 N.3    86  ILE86      -0.1245
     64  CA       132.3770   24.1400   49.6830 C.3    86  ILE86       0.1561
     65  C        131.8150   23.5680   48.3920 C.2    86  ILE86       0.2260
     66  O        130.5910   23.4730   48.2320 O.2    86  ILE86      -0.2867
     67  CB       132.2740   23.1000   50.8080 C.3    86  ILE86       0.0252
     68  CG1      132.7710   23.6720   52.1330 C.3    86  ILE86       0.0019
     69  CG2      133.0440   21.8320   50.4320 C.3    86  ILE86       0.0019
     70  CD1      132.4510   22.7760   53.3050 C.3    86  ILE86       0.0001
     71  N        132.0270   20.4050   45.5990 N.3    88  THR88      -0.1203
     72  CA       132.4300   19.0260   45.3500 C.3    88  THR88       0.1994
     73  C        131.9140   18.5760   43.9930 C.2    88  THR88       0.2618
     74  O        131.0980   19.2500   43.3630 O.2    88  THR88      -0.2717
     75  CB       131.8840   18.0620   46.4170 C.3    88  THR88       0.1784
     76  OG1      130.4720   17.8970   46.2510 O.3    88  THR88      -0.2211
     77  CG2      132.2000   18.5710   47.8170 C.3    88  THR88       0.0376
     78  N        132.3640   17.3940   43.5660 N.am   89  GLU89      -0.1965
     79  CA       131.7090   16.7540   42.4370 C.3    89  GLU89       0.1733
     80  C        130.2270   16.5530   42.7490 C.2    89  GLU89       0.2616
     81  O        129.8070   16.4750   43.9120 O.2    89  GLU89      -0.2715
     82  CB       132.3670   15.4120   42.1030 C.3    89  GLU89       0.0429
     83  CG       132.1540   14.3400   43.1530 C.3    89  GLU89       0.1163
     84  CD       132.8490   13.0160   42.8490 C.2    89  GLU89       0.3649
     85  OE1      132.6990   12.4890   41.7260 O.co2  89  GLU89      -0.2457
     86  OE2      133.5450   12.5080   43.7470 O.co2  89  GLU89      -0.2457
     87  N        129.4220   16.5200   41.6990 N.am   90  TYR90      -0.1960
     88  CA       127.9790   16.3780   41.8300 C.3    90  TYR90       0.1771
     89  C        127.6100   14.9160   41.6280 C.2    90  TYR90       0.2619
     90  O        127.9640   14.3210   40.6060 O.2    90  TYR90      -0.2715
     91  CB       127.2570   17.2570   40.8110 C.3    90  TYR90       0.0574
     92  CG       125.7690   17.1400   40.9170 C.ar   90  TYR90      -0.0198
     93  CD1      125.0960   17.6360   42.0300 C.ar   90  TYR90      -0.0009
     94  CD2      125.0330   16.5130   39.9280 C.ar   90  TYR90      -0.0009
     95  CE1      123.7360   17.5230   42.1480 C.ar   90  TYR90       0.0417
     96  CE2      123.6630   16.3930   40.0400 C.ar   90  TYR90       0.0417
     97  CZ       123.0250   16.8970   41.1540 C.ar   90  TYR90       0.1957
     98  OH       121.6600   16.7920   41.2800 O.3    90  TYR90      -0.2866
     99  N        126.9210   14.3400   42.6090 N.am   91  MET91      -0.1963
    100  CA       126.5110   12.9380   42.5720 C.3    91  MET91       0.1736
    101  C        125.0350   12.8870   42.1800 C.2    91  MET91       0.2616
    102  O        124.1610   13.2440   42.9770 O.2    91  MET91      -0.2715
    103  CB       126.7740   12.2970   43.9340 C.3    91  MET91       0.0427
    104  CG       128.2520   12.3560   44.3410 C.3    91  MET91       0.0599
    105  SD       129.3350   11.3250   43.3160 S.3    91  MET91      -0.1393
    106  CE       128.9570    9.7110   44.0110 C.3    91  MET91       0.0692
    107  N        124.7640   12.4360   40.9480 N.am   92  GLU92      -0.1963
    108  CA       123.4590   12.6580   40.3280 C.3    92  GLU92       0.1733
    109  C        122.3230   11.9360   41.0400 C.2    92  GLU92       0.2616
    110  O        121.1780   12.4090   41.0080 O.2    92  GLU92      -0.2715
    111  CB       123.5150   12.2420   38.8580 C.3    92  GLU92       0.0429
    112  CG       124.4770   13.0880   37.9960 C.3    92  GLU92       0.1163
    113  CD       125.9120   12.5480   37.9370 C.2    92  GLU92       0.3649
    114  OE1      126.3170   11.7230   38.7890 O.co2  92  GLU92      -0.2457
    115  OE2      126.6480   12.9450   37.0120 O.co2  92  GLU92      -0.2457
    116  N        122.6030   10.8040   41.6840 N.am   93  ASN93      -0.1958
    117  CA       121.5590   10.0100   42.3170 C.3    93  ASN93       0.1819
    118  C        121.4680   10.2000   43.8270 C.2    93  ASN93       0.2622
    119  O        120.7120    9.4770   44.4870 O.2    93  ASN93      -0.2715
    120  CB       121.7200    8.5410   41.9520 C.3    93  ASN93       0.1195
    121  CG       121.2710    8.2580   40.5430 C.2    93  ASN93       0.2630
    122  OD1      120.1580    8.6240   40.1680 O.2    93  ASN93      -0.2716
    123  ND2      122.1160    7.6140   39.7610 N.am   93  ASN93      -0.0877
    124  N        122.2060   11.1590   44.3890 N.am   94  GLY94      -0.1940
    125  CA       122.0160   11.5470   45.7740 C.3    94  GLY94       0.2014
    126  C        122.3870   10.4590   46.7710 C.2    94  GLY94       0.2638
    127  O        123.2160    9.5780   46.5110 O.2    94  GLY94      -0.2714
    128  N        121.7560   10.5320   47.9390 N.am   95  ALA95      -0.1977
    129  CA       122.1110    9.6520   49.0400 C.3    95  ALA95       0.1597
    130  C        121.6690    8.2240   48.7480 C.2    95  ALA95       0.2287
    131  O        120.5690    7.9910   48.2340 O.2    95  ALA95      -0.2864
    132  CB       121.4520   10.1340   50.3340 C.3    95  ALA95       0.0319
    133  N        118.0960    6.5850   47.4530 N.3    99  PHE99      -0.1241
    134  CA       118.1590    6.0100   46.1150 C.3    99  PHE99       0.1605
    135  C        117.6180    4.5880   46.1190 C.2    99  PHE99       0.2264
    136  O        116.7570    4.2360   45.3070 O.2    99  PHE99      -0.2867
    137  CB       119.6160    6.0470   45.6290 C.3    99  PHE99       0.0534
    138  CG       119.8320    5.5200   44.2350 C.ar   99  PHE99      -0.0203
    139  CD1      119.2560    6.1460   43.1370 C.ar   99  PHE99      -0.0042
    140  CD2      120.6610    4.4310   44.0170 C.ar   99  PHE99      -0.0042
    141  CE1      119.4860    5.6690   41.8490 C.ar   99  PHE99      -0.0003
    142  CE2      120.8900    3.9510   42.7310 C.ar   99  PHE99      -0.0003
    143  CZ       120.3040    4.5850   41.6500 C.ar   99  PHE99      -0.0000
    144  N        113.8650    4.3570   46.4840 N.3   102  GLU102     -0.1231
    145  CA       113.1480    4.7670   45.2910 C.3   102  GLU102      0.1699
    146  C        113.3620    3.8110   44.1270 C.2   102  GLU102      0.2592
    147  O        112.7310    3.9830   43.0780 O.2   102  GLU102     -0.2718
    148  CB       113.5490    6.2080   44.9290 C.3   102  GLU102      0.0402
    149  CG       113.1830    7.1780   46.0520 C.3   102  GLU102      0.1161
    150  CD       113.6660    8.6010   45.8390 C.2   102  GLU102      0.3649
    151  OE1      114.3080    8.8840   44.8060 O.co2 102  GLU102     -0.2457
    152  OE2      113.3940    9.4360   46.7260 O.co2 102  GLU102     -0.2457
    153  N        114.1860    2.7780   44.3070 N.am  103  LYS103     -0.1980
    154  CA       114.5470    1.8010   43.2850 C.3   103  LYS103      0.1596
    155  C        114.3410    0.3710   43.7810 C.2   103  LYS103      0.2287
    156  O        115.0300   -0.5470   43.3370 O.2   103  LYS103     -0.2864
    157  CB       115.9940    1.9840   42.8290 C.3   103  LYS103      0.0298
    158  CG       116.3140    3.3680   42.2810 C.3   103  LYS103      0.0038
    159  CD       115.5570    3.6420   40.9960 C.3   103  LYS103      0.0206
    160  CE       115.7650    5.0790   40.5350 C.3   103  LYS103      0.1093
    161  NZ       115.6170    5.2110   39.0580 N.3   103  LYS103     -0.1314
    162  N        126.9880    8.6780   48.7940 N.3   142  LEU142     -0.1245
    163  CA       126.3700    9.2710   47.6110 C.3   142  LEU142      0.1561
    164  C        126.5880    8.3810   46.3950 C.2   142  LEU142      0.2260
    165  O        127.5770    7.6430   46.3200 O.2   142  LEU142     -0.2867
    166  CB       126.9450   10.6670   47.3390 C.3   142  LEU142      0.0270
    167  CG       126.5810   11.7140   48.3890 C.3   142  LEU142      0.0019
    168  CD1      127.4120   13.0040   48.2250 C.3   142  LEU142      0.0001
    169  CD2      125.0960   12.0270   48.3170 C.3   142  LEU142      0.0001
    170  N        130.9520    9.9190   52.0140 N.3   152  SER152     -0.1202
    171  CA       130.9460   11.3380   52.3430 C.3   152  SER152      0.2020
    172  C        130.7300   11.5650   53.8360 C.2   152  SER152      0.2618
    173  O        130.7290   10.6490   54.6130 O.2   152  SER152     -0.2717
    174  CB       129.9010   12.0970   51.5850 C.3   152  SER152      0.2103
    175  OG       129.7840   11.6920   50.2360 O.3   152  SER152     -0.2182
    176  N        130.5090   12.8260   54.3260 N.am  153  ASP153     -0.1973
    177  CA       130.3540   13.2110   55.7350 C.3   153  ASP153      0.1709
    178  C        131.6400   13.0790   56.5420 C.2   153  ASP153      0.2293
    179  O        131.9170   12.0240   57.1260 O.2   153  ASP153     -0.2864
    180  CB       129.2110   12.4620   56.4390 C.3   153  ASP153      0.1436
    181  CG       128.9410   12.9950   57.8470 C.2   153  ASP153      0.3671
    182  OD1      128.5610   14.1780   57.9530 O.co2 153  ASP153     -0.2456
    183  OD2      129.0950   12.2430   58.8420 O.co2 153  ASP153     -0.2456
@<TRIPOS>BOND
     1   115   113   ar
     2   113   112    1
     3   113   114   ar
     4   112   111    1
     5   111   108    1
     6   161   160    1
     7   123   121   am
     8    94    96   ar
     9    94    92   ar
    10    96    97   ar
    11   122   121    2
    12   108   107    1
    13   108   109    1
    14   160   159    1
    15   121   120    1
    16    90    89    2
    17    91    92    1
    18    91    88    1
    19    92    93   ar
    20   107   101   am
    21   159   158    1
    22   110   109    2
    23   109   116   am
    24    97    98    1
    25    97    95   ar
    26    89    88    1
    27    89    99   am
    28   143   141   ar
    29   143   142   ar
    30   116   117    1
    31    87    88    1
    32    87    80   am
    33    85    84   ar
    34   141   139   ar
    35   120   117    1
    36    93    95   ar
    37    82    79    1
    38    82    83    1
    39   101   100    1
    40   101   102    2
    41   158   157    1
    42   117   118    1
    43    79    80    1
    44    79    78    1
    45   100    99    1
    46   100   103    1
    47   142   140   ar
    48    80    81    2
    49   157   154    1
    50    84    83    1
    51    84    86   ar
    52    28    26    1
    53   147   146    2
    54   139   138   ar
    55    16    17    1
    56   154   155    1
    57   154   153    1
    58   105   106    1
    59   105   104    1
    60   156   155    2
    61    74    73    2
    62    78    73   am
    63   118   124   am
    64   118   119    2
    65   103   104    1
    66     7     5    1
    67    73    72    1
    68   140   138   ar
    69    26    25    1
    70   146   153   am
    71   146   145    1
    72   138   137    1
    73    17    18    1
    74    17    20    1
    75   124   125    1
    76   151   150   ar
    77   148   145    1
    78   148   149    1
    79    18    19    2
    80    18    21   am
    81   145   144    1
    82   136   135    2
    83     8     6    1
    84    72    71    1
    85    72    75    1
    86     5     6    1
    87     5     2    1
    88    25    27    1
    89    25    22    1
    90   137   134    1
    91    21    22    1
    92   125   126    1
    93   150   149    1
    94   150   152   ar
    95     1     2    1
    96   134   135    1
    97   134   133    1
    98     2     3    1
    99    76    75    1
   100   165   164    2
   101    62    60    1
   102    22    23    1
   103   164   163    1
   104    75    77    1
   105   127   126    2
   106   126   128   am
   107    57    56    1
   108    57    58    2
   109    56    55    1
   110    56    59    1
   111   166   163    1
   112   166   167    1
   113    60    59    1
   114    12    11    2
   115     3     4    2
   116   163   162    1
   117    11    10    1
   118    23    24    2
   119    23    29   am
   120   128   129    1
   121    59    61    1
   122   168   167    1
   123    66    65    2
   124   131   130    2
   125   169   167    1
   126    65    64    1
   127    14    13    1
   128   130   129    1
   129    29    30    1
   130    10    13    1
   131    10     9    1
   132   129   132    1
   133    13    15    1
   134    54    53    1
   135    64    63    1
   136    64    67    1
   137    30    31    1
   138    30    33    1
   139   175   174    1
   140    50    49    2
   141    69    67    1
   142    32    31    2
   143    67    68    1
   144    33    34    1
   145    49    48    1
   146    53    52    1
   147    51    48    1
   148    51    52    1
   149   174   171    1
   150   170   171    1
   151    48    47    1
   152    68    70    1
   153   171   172    1
   154    34    35    1
   155    35    36    1
   156   172   176   am
   157   172   173    2
   158    36    37    1
   159   176   177    1
   160    41    40    2
   161    46    44   ar
   162    40    39    1
   163    44    43    1
   164    44    45   ar
   165    43    42    1
   166   177   180    1
   167   177   178    1
   168    42    39    1
   169   180   181    1
   170    39    38    1
   171   178   179    2
   172   181   182   ar
   173   181   183   ar
