@<TRIPOS>MOLECULE
tmp/5nkhA00.pdb
 201 190 0 0 0
SMALL
GASTEIGER

@<TRIPOS>ATOM
      1  N        120.3920   24.9530   40.5560 N.3    17  LYS17      -0.1245
      2  CA       119.1850   24.4740   41.2160 C.3    17  LYS17       0.1561
      3  C        119.4950   24.2240   42.6790 C.2    17  LYS17       0.2260
      4  O        120.5660   23.7050   42.9950 O.2    17  LYS17      -0.2867
      5  CB       118.7400   23.1730   40.5410 C.3    17  LYS17       0.0271
      6  CG       117.5480   22.4600   41.1530 C.3    17  LYS17       0.0035
      7  CD       117.1460   21.2300   40.3020 C.3    17  LYS17       0.0206
      8  CE       118.2970   20.2080   40.1910 C.3    17  LYS17       0.1093
      9  NZ       117.9050   18.9130   39.5280 N.3    17  LYS17      -0.1314
     10  N        118.9600   21.9140   45.7090 N.3    19  ILE19      -0.1231
     11  CA       118.5860   20.5260   45.9240 C.3    19  ILE19       0.1692
     12  C        118.3620   20.1900   47.3920 C.2    19  ILE19       0.2593
     13  O        117.6410   19.2230   47.6910 O.2    19  ILE19      -0.2718
     14  CB       119.5650   19.5320   45.2510 C.3    19  ILE19       0.0266
     15  CG1      120.9740   19.5910   45.8450 C.3    19  ILE19       0.0019
     16  CG2      119.6670   19.8330   43.7560 C.3    19  ILE19       0.0020
     17  CD1      121.9980   18.7050   45.1060 C.3    19  ILE19       0.0001
     18  N        118.8990   20.9690   48.3090 N.am   20  GLY20      -0.1942
     19  CA       118.7240   20.7090   49.7260 C.3    20  GLY20       0.2014
     20  C        118.7920   22.0120   50.4840 C.2    20  GLY20       0.2638
     21  O        119.4570   22.9640   50.0680 O.2    20  GLY20      -0.2714
     22  N        118.0860   22.0630   51.5980 N.am   21  ALA21      -0.1977
     23  CA       118.0470   23.2930   52.3630 C.3    21  ALA21       0.1597
     24  C        118.1640   22.9090   53.8260 C.2    21  ALA21       0.2287
     25  O        117.4630   22.0100   54.2970 O.2    21  ALA21      -0.2864
     26  CB       116.7700   24.1000   52.0690 C.3    21  ALA21       0.0319
     27  N        122.3610   23.2260   49.7270 N.3    27  VAL27      -0.1245
     28  CA       123.1260   22.4590   48.7490 C.3    27  VAL27       0.1561
     29  C        122.5020   22.6910   47.3820 C.2    27  VAL27       0.2260
     30  O        121.2740   22.6240   47.2230 O.2    27  VAL27      -0.2867
     31  CB       123.1610   20.9540   49.0760 C.3    27  VAL27       0.0252
     32  CG1      124.0670   20.2130   48.0410 C.3    27  VAL27       0.0019
     33  CG2      123.6950   20.6890   50.4760 C.3    27  VAL27       0.0019
     34  N        128.3250   19.6630   42.9710 N.3    44  ALA44      -0.1231
     35  CA       127.4790   20.0180   44.0870 C.3    44  ALA44       0.1694
     36  C        128.1760   21.0960   44.8950 C.2    44  ALA44       0.2592
     37  O        129.4000   21.1010   45.0190 O.2    44  ALA44      -0.2718
     38  CB       127.1880   18.8010   44.9780 C.3    44  ALA44       0.0304
     39  N        127.3730   22.0100   45.4410 N.am   45  ILE45      -0.1966
     40  CA       127.8710   23.2100   46.1110 C.3    45  ILE45       0.1727
     41  C        127.1180   23.3140   47.4230 C.2    45  ILE45       0.2616
     42  O        125.8850   23.3870   47.4120 O.2    45  ILE45      -0.2715
     43  CB       127.5970   24.4710   45.2700 C.3    45  ILE45       0.0290
     44  CG1      128.2850   24.3460   43.9250 C.3    45  ILE45       0.0022
     45  CG2      128.0330   25.7540   45.9940 C.3    45  ILE45       0.0023
     46  CD1      127.5610   25.1780   42.8060 C.3    45  ILE45       0.0001
     47  N        127.8260   23.3230   48.5390 N.am   46  LYS46      -0.1977
     48  CA       127.2220   23.4940   49.8650 C.3    46  LYS46       0.1596
     49  C        127.6650   24.8350   50.4360 C.2    46  LYS46       0.2287
     50  O        128.8460   25.1570   50.4080 O.2    46  LYS46      -0.2864
     51  CB       127.7160   22.3900   50.7960 C.3    46  LYS46       0.0298
     52  CG       126.9670   22.3510   52.1700 C.3    46  LYS46       0.0038
     53  CD       127.6280   21.2030   53.0230 C.3    46  LYS46       0.0206
     54  CE       127.4160   21.3290   54.5290 C.3    46  LYS46       0.1093
     55  NZ       128.3630   20.4140   55.3080 N.3    46  LYS46      -0.1314
     56  N        135.7040   19.7190   57.1790 N.3    63  GLU63      -0.1245
     57  CA       135.2020   18.6230   56.3490 C.3    63  GLU63       0.1567
     58  C        135.8530   18.6580   54.9710 C.2    63  GLU63       0.2260
     59  O        136.2770   17.6190   54.4520 O.2    63  GLU63      -0.2867
     60  CB       133.6630   18.6250   56.2530 C.3    63  GLU63       0.0388
     61  CG       133.1900   17.5440   55.2800 C.3    63  GLU63       0.1160
     62  CD       131.6860   17.3190   55.1680 C.2    63  GLU63       0.3649
     63  OE1      130.9090   18.2810   55.2600 O.co2  63  GLU63      -0.2457
     64  OE2      131.2860   16.1510   54.9370 O.co2  63  GLU63      -0.2457
     65  N        138.3240   15.8450   53.2430 N.3    67  MET67      -0.1245
     66  CA       138.0050   15.3090   51.9310 C.3    67  MET67       0.1570
     67  C        139.1550   15.5220   50.9600 C.2    67  MET67       0.2261
     68  O        139.4490   14.6640   50.1240 O.2    67  MET67      -0.2867
     69  CB       136.7590   16.0240   51.4150 C.3    67  MET67       0.0387
     70  CG       135.4800   15.5720   52.0570 C.3    67  MET67       0.0595
     71  SD       133.9990   16.2280   51.2200 S.3    67  MET67      -0.1393
     72  CE       134.6950   16.2680   49.5470 C.3    67  MET67       0.0692
     73  N        134.0090   10.5530   47.8620 N.3    76  ILE76      -0.1245
     74  CA       133.5750   11.7550   47.1560 C.3    76  ILE76       0.1561
     75  C        134.7640   12.6760   46.8740 C.2    76  ILE76       0.2260
     76  O        135.5180   12.9800   47.7910 O.2    76  ILE76      -0.2867
     77  CB       132.4950   12.4720   48.0120 C.3    76  ILE76       0.0252
     78  CG1      131.9020   13.6740   47.2850 C.3    76  ILE76       0.0019
     79  CG2      133.0010   12.8940   49.3660 C.3    76  ILE76       0.0019
     80  CD1      130.9920   13.2140   46.1950 C.3    76  ILE76       0.0001
     81  N        131.6920   24.8090   49.7760 N.3    90  ILE90      -0.1245
     82  CA       132.4840   23.6170   49.4690 C.3    90  ILE90       0.1561
     83  C        131.9070   23.0480   48.1900 C.2    90  ILE90       0.2260
     84  O        130.6790   22.9700   48.0470 O.2    90  ILE90      -0.2867
     85  CB       132.3880   22.5810   50.6020 C.3    90  ILE90       0.0252
     86  CG1      132.9050   23.1230   51.9200 C.3    90  ILE90       0.0019
     87  CG2      133.1060   21.2810   50.1860 C.3    90  ILE90       0.0019
     88  CD1      132.4970   22.2040   53.0920 C.3    90  ILE90       0.0001
     89  N        132.0510   19.8980   45.3550 N.3    92  THR92      -0.1203
     90  CA       132.4230   18.5100   45.1150 C.3    92  THR92       0.1994
     91  C        131.9220   18.0810   43.7500 C.2    92  THR92       0.2618
     92  O        131.0780   18.7600   43.1520 O.2    92  THR92      -0.2717
     93  CB       131.8750   17.5390   46.1860 C.3    92  THR92       0.1784
     94  OG1      130.4650   17.4180   46.0620 O.3    92  THR92      -0.2211
     95  CG2      132.1970   18.0160   47.5820 C.3    92  THR92       0.0376
     96  N        132.3250   16.8730   43.3360 N.am   93  GLU93      -0.1965
     97  CA       131.6230   16.2520   42.2340 C.3    93  GLU93       0.1733
     98  C        130.1320   16.0960   42.5900 C.2    93  GLU93       0.2616
     99  O        129.7210   16.0360   43.7760 O.2    93  GLU93      -0.2715
    100  CB       132.2510   14.8810   41.9030 C.3    93  GLU93       0.0429
    101  CG       132.0450   13.8220   42.9640 C.3    93  GLU93       0.1163
    102  CD       132.7190   12.4640   42.6750 C.2    93  GLU93       0.3649
    103  OE1      132.5050   11.9390   41.5720 O.co2  93  GLU93      -0.2457
    104  OE2      133.3780   11.9640   43.5660 O.co2  93  GLU93      -0.2457
    105  N        129.3040   16.0680   41.5630 N.am   94  TYR94      -0.1960
    106  CA       127.8580   15.9240   41.7090 C.3    94  TYR94       0.1771
    107  C        127.4790   14.4590   41.5280 C.2    94  TYR94       0.2619
    108  O        127.8290   13.8540   40.5190 O.2    94  TYR94      -0.2715
    109  CB       127.1140   16.7940   40.6850 C.3    94  TYR94       0.0574
    110  CG       125.6280   16.6340   40.7700 C.ar   94  TYR94      -0.0198
    111  CD1      124.9180   17.1040   41.8920 C.ar   94  TYR94      -0.0009
    112  CD2      124.9010   16.0460   39.7250 C.ar   94  TYR94      -0.0009
    113  CE1      123.5530   16.9440   41.9920 C.ar   94  TYR94       0.0417
    114  CE2      123.5240   15.9020   39.8310 C.ar   94  TYR94       0.0417
    115  CZ       122.8790   16.3560   40.9650 C.ar   94  TYR94       0.1957
    116  OH       121.5140   16.2370   41.1090 O.3    94  TYR94      -0.2866
    117  N        126.7480   13.8930   42.4890 N.am   95  MET95      -0.1963
    118  CA       126.3510   12.4850   42.4460 C.3    95  MET95       0.1736
    119  C        124.8660   12.4610   42.0640 C.2    95  MET95       0.2616
    120  O        123.9970   12.8220   42.8710 O.2    95  MET95      -0.2715
    121  CB       126.6050   11.8530   43.8160 C.3    95  MET95       0.0427
    122  CG       128.0970   11.9610   44.2190 C.3    95  MET95       0.0599
    123  SD       129.1720   10.8970   43.1580 S.3    95  MET95      -0.1393
    124  CE       128.8240    9.2900   43.9360 C.3    95  MET95       0.0692
    125  N        124.5810   11.9970   40.8370 N.am   96  GLU96      -0.1963
    126  CA       123.2600   12.2190   40.2350 C.3    96  GLU96       0.1733
    127  C        122.1330   11.4790   40.9450 C.2    96  GLU96       0.2616
    128  O        120.9600   11.9190   40.8860 O.2    96  GLU96      -0.2715
    129  CB       123.2850   11.8000   38.7660 C.3    96  GLU96       0.0429
    130  CG       124.2640   12.6080   37.8960 C.3    96  GLU96       0.1163
    131  CD       125.6960   12.0410   37.8380 C.2    96  GLU96       0.3649
    132  OE1      126.1180   11.2170   38.6850 O.co2  96  GLU96      -0.2457
    133  OE2      126.4420   12.4430   36.9180 O.co2  96  GLU96      -0.2457
    134  N        122.4210   10.3630   41.5990 N.am   97  ASN97      -0.1958
    135  CA       121.3910    9.5670   42.2580 C.3    97  ASN97       0.1819
    136  C        121.3240    9.7790   43.7530 C.2    97  ASN97       0.2622
    137  O        120.5650    9.0800   44.4250 O.2    97  ASN97      -0.2715
    138  CB       121.5480    8.0990   41.9050 C.3    97  ASN97       0.1195
    139  CG       121.1030    7.8270   40.4920 C.2    97  ASN97       0.2630
    140  OD1      119.9890    8.2340   40.1610 O.2    97  ASN97      -0.2716
    141  ND2      121.9000    7.1530   39.7050 N.am   97  ASN97      -0.0877
    142  N        122.0380   10.7450   44.2920 N.am   98  GLY98      -0.1940
    143  CA       121.8560   11.1360   45.6830 C.3    98  GLY98       0.2014
    144  C        122.2850   10.0770   46.6760 C.2    98  GLY98       0.2638
    145  O        123.1430    9.2070   46.3950 O.2    98  GLY98      -0.2714
    146  N        121.6420   10.1180   47.8450 N.am   99  ALA99      -0.1977
    147  CA       122.0480    9.2170   48.9040 C.3    99  ALA99       0.1597
    148  C        121.5960    7.7920   48.6200 C.2    99  ALA99       0.2287
    149  O        120.4820    7.5560   48.1130 O.2    99  ALA99      -0.2864
    150  CB       121.4240    9.6680   50.2380 C.3    99  ALA99       0.0319
    151  N        118.0510    6.3820   50.1530 N.3   102  LYS102     -0.1231
    152  CA       116.8700    6.8850   49.4580 C.3   102  LYS102      0.1693
    153  C        116.8190    6.2990   48.0560 C.2   102  LYS102      0.2592
    154  O        115.7330    5.9430   47.5620 O.2   102  LYS102     -0.2718
    155  CB       116.8950    8.4160   49.4410 C.3   102  LYS102      0.0285
    156  CG       115.5650    9.0480   49.0270 C.3   102  LYS102      0.0035
    157  CD       115.4010   10.4800   49.5370 C.3   102  LYS102      0.0206
    158  CE       114.0160   11.0770   49.1770 C.3   102  LYS102      0.1093
    159  NZ       113.9810   11.4450   47.7400 N.3   102  LYS102     -0.1314
    160  N        117.9680    6.2050   47.3680 N.am  103  PHE103     -0.1976
    161  CA       117.9960    5.6330   46.0250 C.3   103  PHE103      0.1639
    162  C        117.4680    4.2040   46.0310 C.2   103  PHE103      0.2290
    163  O        116.5960    3.8630   45.2240 O.2   103  PHE103     -0.2864
    164  CB       119.4400    5.6700   45.5330 C.3   103  PHE103      0.0560
    165  CG       119.6270    5.1580   44.1640 C.ar  103  PHE103     -0.0200
    166  CD1      119.0090    5.7510   43.0870 C.ar  103  PHE103     -0.0042
    167  CD2      120.4270    4.0750   43.9200 C.ar  103  PHE103     -0.0042
    168  CE1      119.2290    5.2880   41.7700 C.ar  103  PHE103     -0.0003
    169  CE2      120.6530    3.5760   42.6110 C.ar  103  PHE103     -0.0003
    170  CZ       120.0520    4.2110   41.5350 C.ar  103  PHE103     -0.0000
    171  N        113.7240    3.9260   46.3830 N.3   106  GLU106     -0.1245
    172  CA       113.0170    4.3120   45.1710 C.3   106  GLU106      0.1567
    173  C        113.2390    3.3230   44.0520 C.2   106  GLU106      0.2260
    174  O        112.6100    3.4530   42.9890 O.2   106  GLU106     -0.2867
    175  CB       113.4630    5.7470   44.7810 C.3   106  GLU106      0.0388
    176  CG       113.1450    6.7070   45.9060 C.3   106  GLU106      0.1160
    177  CD       113.5990    8.1330   45.7710 C.2   106  GLU106      0.3649
    178  OE1      114.0700    8.5450   44.7120 O.co2 106  GLU106     -0.2457
    179  OE2      113.4250    8.8360   46.7900 O.co2 106  GLU106     -0.2457
    180  N        126.9070    8.2530   48.6660 N.3   146  LEU146     -0.1245
    181  CA       126.2400    8.8360   47.5040 C.3   146  LEU146      0.1561
    182  C        126.4390    7.9570   46.2830 C.2   146  LEU146      0.2260
    183  O        127.4220    7.2080   46.2020 O.2   146  LEU146     -0.2867
    184  CB       126.7630   10.2600   47.2080 C.3   146  LEU146      0.0270
    185  CG       126.3950   11.2970   48.2910 C.3   146  LEU146      0.0019
    186  CD1      127.1830   12.6260   48.0530 C.3   146  LEU146      0.0001
    187  CD2      124.9230   11.6010   48.2770 C.3   146  LEU146      0.0001
    188  N        130.8720    9.4810   51.9270 N.3   156  SER156     -0.1202
    189  CA       130.8480   10.9080   52.2860 C.3   156  SER156      0.2020
    190  C        130.7190   11.0500   53.8140 C.2   156  SER156      0.2618
    191  O        130.6720   10.0540   54.5390 O.2   156  SER156     -0.2717
    192  CB       129.7200   11.6330   51.5430 C.3   156  SER156      0.2103
    193  OG       129.6240   11.2340   50.1620 O.3   156  SER156     -0.2182
    194  N        130.6530   12.2990   54.2980 N.am  157  ASP157     -0.1973
    195  CA       130.4700   12.7040   55.6980 C.3   157  ASP157      0.1709
    196  C        131.7190   12.6240   56.5720 C.2   157  ASP157      0.2293
    197  O        131.9270   11.6740   57.3320 O.2   157  ASP157     -0.2864
    198  CB       129.2870   11.9890   56.3840 C.3   157  ASP157      0.1436
    199  CG       129.0070   12.5340   57.7690 C.2   157  ASP157      0.3671
    200  OD1      128.7550   13.7510   57.8490 O.co2 157  ASP157     -0.2456
    201  OD2      129.0780   11.7560   58.7680 O.co2 157  ASP157     -0.2456
@<TRIPOS>BOND
     1   133   131   ar
     2   131   130    1
     3   131   132   ar
     4   130   129    1
     5   129   126    1
     6     9     8    1
     7   141   139   am
     8   112   114   ar
     9   112   110   ar
    10   114   115   ar
    11   140   139    2
    12     8     7    1
    13   126   125    1
    14   126   127    1
    15     7     6    1
    16   139   138    1
    17   108   107    2
    18     5     6    1
    19     5     2    1
    20     1     2    1
    21   109   110    1
    22   109   106    1
    23   110   111   ar
    24   125   119   am
    25   128   127    2
    26   127   134   am
    27   115   116    1
    28   115   113   ar
    29     2     3    1
    30   107   106    1
    31   107   117   am
    32   170   168   ar
    33   170   169   ar
    34   105   106    1
    35   105    98   am
    36   103   102   ar
    37   134   135    1
    38   168   166   ar
    39   111   113   ar
    40   100    97    1
    41   100   101    1
    42   138   135    1
    43   119   118    1
    44   119   120    2
    45    97    98    1
    46    97    96    1
    47   135   136    1
    48   118   117    1
    49   118   121    1
    50    98    99    2
    51   169   167   ar
    52   102   101    1
    53   102   104   ar
    54     3     4    2
    55    46    44    1
    56    34    35    1
    57   174   173    2
    58   166   165   ar
    59    92    91    2
    60   123   124    1
    61   123   122    1
    62    96    91   am
    63    91    90    1
    64   136   142   am
    65   136   137    2
    66    16    14    1
    67   121   122    1
    68   167   165   ar
    69    44    43    1
    70   173   172    1
    71    35    36    1
    72    35    38    1
    73   165   164    1
    74   142   143    1
    75   178   177   ar
    76   175   172    1
    77   175   176    1
    78    36    37    2
    79    36    39   am
    80    17    15    1
    81    90    89    1
    82    90    93    1
    83   172   171    1
    84   163   162    2
    85    14    15    1
    86    14    11    1
    87    43    45    1
    88    43    40    1
    89    39    40    1
    90   164   161    1
    91   143   144    1
    92    10    11    1
    93   177   176    1
    94   177   179   ar
    95    11    12    1
    96   161   162    1
    97   161   160    1
    98    94    93    1
    99    40    41    1
   100    93    95    1
   101    80    78    1
   102   183   182    2
   103   182   181    1
   104   145   144    2
   105   144   146   am
   106    75    74    1
   107    75    76    2
   108    74    73    1
   109    74    77    1
   110   184   181    1
   111   184   185    1
   112    30    29    2
   113    78    77    1
   114   160   153   am
   115    29    28    1
   116    12    13    2
   117    12    18   am
   118    42    41    2
   119    41    47   am
   120   181   180    1
   121   154   153    2
   122   159   158    1
   123   146   147    1
   124    77    79    1
   125    32    31    1
   126    84    83    2
   127   186   185    1
   128   153   152    1
   129   149   148    2
   130    83    82    1
   131   187   185    1
   132    18    19    1
   133    47    48    1
   134   148   147    1
   135    28    31    1
   136    28    27    1
   137   147   150    1
   138   156   155    1
   139   156   157    1
   140    31    33    1
   141   158   157    1
   142   155   152    1
   143   152   151    1
   144    82    81    1
   145    82    85    1
   146    72    71    1
   147    19    20    1
   148    48    49    1
   149    48    51    1
   150    21    20    2
   151    68    67    2
   152   193   192    1
   153    87    85    1
   154    50    49    2
   155    20    22   am
   156    85    86    1
   157    51    52    1
   158    67    66    1
   159    71    70    1
   160    69    66    1
   161    69    70    1
   162   192   189    1
   163    22    23    1
   164    86    88    1
   165   188   189    1
   166    66    65    1
   167    26    23    1
   168    52    53    1
   169   189   190    1
   170    23    24    1
   171    53    54    1
   172   190   194   am
   173   190   191    2
   174    24    25    2
   175   194   195    1
   176    59    58    2
   177    54    55    1
   178    64    62   ar
   179    58    57    1
   180    62    63   ar
   181    62    61    1
   182    61    60    1
   183   195   198    1
   184   195   196    1
   185    60    57    1
   186    57    56    1
   187   198   199    1
   188   196   197    2
   189   199   200   ar
   190   199   201   ar
