@<TRIPOS>MOLECULE
tmp/5nkiA00.pdb
 183 174 0 0 0
SMALL
GASTEIGER

@<TRIPOS>ATOM
      1  N        -94.7700  -20.2210   45.1150 N.3    16  ILE16      -0.1231
      2  CA       -94.5630  -18.7890   45.2850 C.3    16  ILE16       0.1696
      3  C        -94.7340  -18.3230   46.7240 C.2    16  ILE16       0.2632
      4  O        -94.5440  -17.1370   46.9940 O.2    16  ILE16      -0.2714
      5  CB       -95.4790  -17.9650   44.3550 C.3    16  ILE16       0.0266
      6  CG1      -96.9570  -18.2360   44.6560 C.3    16  ILE16       0.0019
      7  CG2      -95.1560  -18.2380   42.8920 C.3    16  ILE16       0.0020
      8  CD1      -97.9060  -17.4110   43.8210 C.3    16  ILE16       0.0001
      9  N        -95.0920  -19.2380   47.6050 N.am   17  GLY17      -0.1718
     10  CA       -95.3140  -18.8610   48.9590 C.2    17  GLY17       0.1480
     11  C        -95.7450  -19.9100   49.9460 C.2    17  GLY17       0.2820
     12  O        -95.8950  -21.0640   49.6160 O.2    17  GLY17      -0.2669
     13  N        -95.9400  -19.4000   51.1560 N.am   18  ALA18      -0.1943
     14  CA       -96.3480  -20.0500   52.3970 C.3    18  ALA18       0.1600
     15  C        -95.5060  -21.2420   52.8610 C.2    18  ALA18       0.2287
     16  O        -94.2910  -21.1220   52.9540 O.2    18  ALA18      -0.2864
     17  CB       -97.8580  -20.2820   52.4550 C.3    18  ALA18       0.0319
     18  N        -98.4680  -22.0420   48.4120 N.3    24  VAL24      -0.1245
     19  CA       -99.1340  -21.2340   47.3970 C.3    24  VAL24       0.1561
     20  C        -98.3710  -21.4020   46.0900 C.2    24  VAL24       0.2260
     21  O        -97.1460  -21.2320   46.0530 O.2    24  VAL24      -0.2867
     22  CB       -99.2040  -19.7530   47.8060 C.3    24  VAL24       0.0252
     23  CG1      -99.9320  -18.9410   46.7410 C.3    24  VAL24       0.0019
     24  CG2      -99.8920  -19.6150   49.1510 C.3    24  VAL24       0.0019
     25  N       -103.6130  -18.4600   41.0340 N.3    36  ALA36      -0.1231
     26  CA      -102.8730  -18.8400   42.2230 C.3    36  ALA36       0.1694
     27  C       -103.6270  -19.9680   42.9120 C.2    36  ALA36       0.2592
     28  O       -104.8570  -20.0290   42.8730 O.2    36  ALA36      -0.2718
     29  CB      -102.6990  -17.6530   43.1740 C.3    36  ALA36       0.0304
     30  N       -102.8730  -20.8770   43.5210 N.am   37  ILE37      -0.1966
     31  CA      -103.4090  -22.1170   44.0660 C.3    37  ILE37       0.1727
     32  C       -102.8230  -22.2910   45.4590 C.2    37  ILE37       0.2616
     33  O       -101.5990  -22.3300   45.6080 O.2    37  ILE37      -0.2715
     34  CB      -103.0440  -23.3250   43.1810 C.3    37  ILE37       0.0290
     35  CG1     -103.5560  -23.1350   41.7480 C.3    37  ILE37       0.0022
     36  CG2     -103.5560  -24.6080   43.8000 C.3    37  ILE37       0.0023
     37  CD1     -102.6440  -23.7040   40.6890 C.3    37  ILE37       0.0001
     38  N       -103.6810  -22.3940   46.4740 N.am   38  LYS38      -0.1977
     39  CA      -103.2350  -22.6870   47.8330 C.3    38  LYS38       0.1596
     40  C       -103.7340  -24.0640   48.2510 C.2    38  LYS38       0.2287
     41  O       -104.9080  -24.3820   48.0520 O.2    38  LYS38      -0.2864
     42  CB      -103.7250  -21.6360   48.8280 C.3    38  LYS38       0.0298
     43  CG      -103.2780  -21.9370   50.2600 C.3    38  LYS38       0.0038
     44  CD      -103.8550  -20.9290   51.2360 C.3    38  LYS38       0.0206
     45  CE      -103.3220  -19.5450   50.9720 C.3    38  LYS38       0.1093
     46  NZ      -103.8810  -18.5500   51.9450 N.3    38  LYS38      -0.1314
     47  N       -111.6950  -19.1470   54.7890 N.3    55  GLU55      -0.1245
     48  CA      -111.1480  -18.1050   53.9300 C.3    55  GLU55       0.1567
     49  C       -111.7970  -18.1500   52.5570 C.2    55  GLU55       0.2260
     50  O       -112.1990  -17.1130   52.0180 O.2    55  GLU55      -0.2867
     51  CB      -109.6300  -18.2350   53.8100 C.3    55  GLU55       0.0388
     52  CG      -109.0290  -17.1600   52.9160 C.3    55  GLU55       0.1160
     53  CD      -107.5100  -17.1270   52.9450 C.2    55  GLU55       0.3649
     54  OE1     -106.8910  -18.1990   53.1010 O.co2  55  GLU55      -0.2457
     55  OE2     -106.9430  -16.0170   52.8180 O.co2  55  GLU55      -0.2457
     56  N       -114.1090  -15.1430   51.0030 N.3    59  MET59      -0.1245
     57  CA      -113.8050  -14.5590   49.7010 C.3    59  MET59       0.1570
     58  C       -114.9210  -14.8100   48.7010 C.2    59  MET59       0.2261
     59  O       -115.1920  -13.9570   47.8490 O.2    59  MET59      -0.2867
     60  CB      -112.4930  -15.1180   49.1620 C.3    59  MET59       0.0387
     61  CG      -111.3030  -14.8410   50.0480 C.3    59  MET59       0.0595
     62  SD      -109.8450  -15.6930   49.4380 S.3    59  MET59      -0.1393
     63  CE      -109.6920  -14.9380   47.8350 C.3    59  MET59       0.0692
     64  N       -109.4820   -9.7580   46.2330 N.3    68  ILE68      -0.1245
     65  CA      -109.0410  -10.9160   45.4480 C.3    68  ILE68       0.1561
     66  C       -110.2290  -11.7910   45.0610 C.2    68  ILE68       0.2260
     67  O       -111.0470  -12.1730   45.9040 O.2    68  ILE68      -0.2867
     68  CB      -107.9960  -11.7310   46.2290 C.3    68  ILE68       0.0252
     69  CG1     -106.6990  -10.9390   46.4000 C.3    68  ILE68       0.0019
     70  CG2     -107.6960  -13.0440   45.5090 C.3    68  ILE68       0.0019
     71  CD1     -105.9230  -10.7560   45.0930 C.3    68  ILE68       0.0001
     72  N       -107.5200  -23.9180   47.2040 N.3    82  ILE82      -0.1245
     73  CA      -108.2130  -22.6750   46.8960 C.3    82  ILE82       0.1561
     74  C       -107.5320  -22.0610   45.6840 C.2    82  ILE82       0.2260
     75  O       -106.3030  -21.9190   45.6600 O.2    82  ILE82      -0.2867
     76  CB      -108.1960  -21.6960   48.0810 C.3    82  ILE82       0.0252
     77  CG1     -108.8660  -22.3160   49.3070 C.3    82  ILE82       0.0019
     78  CG2     -108.8880  -20.3830   47.6900 C.3    82  ILE82       0.0019
     79  CD1     -108.6920  -21.4910   50.5700 C.3    82  ILE82       0.0001
     80  N       -107.5000  -18.7990   43.0950 N.3    84  THR84      -0.1203
     81  CA      -107.8950  -17.4060   42.9420 C.3    84  THR84       0.1994
     82  C       -107.2910  -16.8560   41.6660 C.2    84  THR84       0.2618
     83  O       -106.4340  -17.4870   41.0350 O.2    84  THR84      -0.2717
     84  CB      -107.4180  -16.5390   44.1180 C.3    84  THR84       0.1784
     85  OG1     -105.9920  -16.3830   44.0350 O.3    84  THR84      -0.2211
     86  CG2     -107.8070  -17.1690   45.4450 C.3    84  THR84       0.0376
     87  N       -107.7090  -15.6390   41.3220 N.am   85  GLU85      -0.1965
     88  CA      -106.9870  -14.8950   40.3040 C.3    85  GLU85       0.1733
     89  C       -105.5170  -14.8080   40.6950 C.2    85  GLU85       0.2616
     90  O       -105.1580  -14.9000   41.8760 O.2    85  GLU85      -0.2715
     91  CB      -107.5920  -13.5000   40.1230 C.3    85  GLU85       0.0429
     92  CG      -107.4450  -12.5850   41.3080 C.3    85  GLU85       0.1163
     93  CD      -108.0200  -11.2010   41.0540 C.2    85  GLU85       0.3649
     94  OE1     -107.7720  -10.6410   39.9650 O.co2  85  GLU85      -0.2457
     95  OE2     -108.7460  -10.6870   41.9290 O.co2  85  GLU85      -0.2457
     96  N       -104.6560  -14.6830   39.6920 N.am   86  TYR86      -0.1960
     97  CA      -103.2250  -14.5790   39.9240 C.3    86  TYR86       0.1771
     98  C       -102.8050  -13.1230   39.8020 C.2    86  TYR86       0.2619
     99  O       -103.1110  -12.4620   38.8030 O.2    86  TYR86      -0.2715
    100  CB      -102.4470  -15.4530   38.9430 C.3    86  TYR86       0.0574
    101  CG      -100.9510  -15.2980   39.0620 C.ar   86  TYR86      -0.0198
    102  CD1     -100.2760  -15.7100   40.2090 C.ar   86  TYR86      -0.0009
    103  CD2     -100.2140  -14.7300   38.0310 C.ar   86  TYR86      -0.0009
    104  CE1      -98.8970  -15.5620   40.3200 C.ar   86  TYR86       0.0417
    105  CE2      -98.8470  -14.5830   38.1270 C.ar   86  TYR86       0.0417
    106  CZ       -98.1920  -14.9970   39.2740 C.ar   86  TYR86       0.1957
    107  OH       -96.8270  -14.8490   39.3630 O.3    86  TYR86      -0.2866
    108  N       -102.1170  -12.6250   40.8270 N.am   87  MET87      -0.1963
    109  CA      -101.6580  -11.2460   40.8780 C.3    87  MET87       0.1736
    110  C       -100.1810  -11.2350   40.5070 C.2    87  MET87       0.2616
    111  O        -99.3410  -11.6970   41.2810 O.2    87  MET87      -0.2715
    112  CB      -101.8890  -10.6620   42.2700 C.3    87  MET87       0.0427
    113  CG      -103.3360  -10.7710   42.6820 C.3    87  MET87       0.0599
    114  SD      -104.4420   -9.6830   41.7340 S.3    87  MET87      -0.1393
    115  CE      -104.0520   -8.1080   42.5020 C.3    87  MET87       0.0692
    116  N        -99.8720  -10.6870   39.3260 N.am   88  GLU88      -0.1963
    117  CA       -98.5780  -10.9140   38.6990 C.3    88  GLU88       0.1733
    118  C        -97.4170  -10.2450   39.4340 C.2    88  GLU88       0.2616
    119  O        -96.2630  -10.6650   39.2560 O.2    88  GLU88      -0.2715
    120  CB       -98.6240  -10.4230   37.2490 C.3    88  GLU88       0.0429
    121  CG       -99.6280  -11.1680   36.3560 C.3    88  GLU88       0.1163
    122  CD      -101.0250  -10.5330   36.3310 C.2    88  GLU88       0.3649
    123  OE1     -101.3560   -9.7120   37.2190 O.co2  88  GLU88      -0.2457
    124  OE2     -101.8020  -10.8530   35.4030 O.co2  88  GLU88      -0.2457
    125  N        -97.6760   -9.2270   40.2540 N.am   89  ASN89      -0.1958
    126  CA       -96.5990   -8.4650   40.8780 C.3    89  ASN89       0.1819
    127  C        -96.4400   -8.7450   42.3640 C.2    89  ASN89       0.2622
    128  O        -95.5670   -8.1380   43.0110 O.2    89  ASN89      -0.2715
    129  CB       -96.8080   -6.9620   40.6380 C.3    89  ASN89       0.1195
    130  CG       -96.4880   -6.5670   39.2100 C.2    89  ASN89       0.2630
    131  OD1      -95.4020   -6.8730   38.7010 O.2    89  ASN89      -0.2716
    132  ND2      -97.4410   -5.9460   38.5400 N.am   89  ASN89      -0.0877
    133  N        -97.2250   -9.6730   42.9170 N.am   90  GLY90      -0.1940
    134  CA       -97.0140  -10.1210   44.2770 C.3    90  GLY90       0.2014
    135  C        -97.4390   -9.0980   45.3180 C.2    90  GLY90       0.2638
    136  O        -98.2880   -8.2260   45.0810 O.2    90  GLY90      -0.2714
    137  N        -96.8260   -9.2290   46.4960 N.am   91  ALA91      -0.1977
    138  CA       -97.2170   -8.4250   47.6410 C.3    91  ALA91       0.1597
    139  C        -96.7520   -6.9880   47.4660 C.2    91  ALA91       0.2287
    140  O        -95.6360   -6.7270   47.0110 O.2    91  ALA91      -0.2864
    141  CB       -96.6370   -9.0020   48.9320 C.3    91  ALA91       0.0319
    142  N        -93.2220   -5.7110   49.2170 N.3    94  LYS94      -0.1245
    143  CA       -92.0240   -6.1150   48.4800 C.3    94  LYS94       0.1561
    144  C        -91.9560   -5.4330   47.1180 C.2    94  LYS94       0.2260
    145  O        -90.8780   -5.0370   46.6580 O.2    94  LYS94      -0.2867
    146  CB       -92.0220   -7.6340   48.3170 C.3    94  LYS94       0.0271
    147  CG       -90.7250   -8.2360   47.7950 C.3    94  LYS94       0.0035
    148  CD       -90.7390   -9.7570   47.9900 C.3    94  LYS94       0.0206
    149  CE       -89.3700  -10.3890   47.7210 C.3    94  LYS94       0.1093
    150  NZ       -88.9200  -10.3350   46.3000 N.3    94  LYS94      -0.1314
    151  N       -102.1270   -7.3570   47.3570 N.3   138  LEU138     -0.1245
    152  CA      -101.5050   -7.9210   46.1650 C.3   138  LEU138      0.1561
    153  C       -101.6690   -6.9660   44.9890 C.2   138  LEU138      0.2260
    154  O       -102.6300   -6.1980   44.9330 O.2   138  LEU138     -0.2867
    155  CB      -102.1080   -9.2870   45.8220 C.3   138  LEU138      0.0270
    156  CG      -101.7550  -10.3820   46.8300 C.3   138  LEU138      0.0019
    157  CD1     -102.5970  -11.6270   46.5830 C.3   138  LEU138      0.0001
    158  CD2     -100.2640  -10.6990   46.6990 C.3   138  LEU138      0.0001
    159  N       -106.0670   -8.7970   50.3760 N.3   148  SER148     -0.1202
    160  CA      -106.0730  -10.2460   50.5500 C.3   148  SER148      0.2020
    161  C       -105.9330  -10.6010   52.0290 C.2   148  SER148      0.2619
    162  O       -106.0790   -9.7350   52.8970 O.2   148  SER148     -0.2717
    163  CB      -104.9510  -10.8950   49.7400 C.3   148  SER148      0.2103
    164  OG      -103.6980  -10.3680   50.1170 O.3   148  SER148     -0.2182
    165  N       -105.6770  -11.8780   52.3180 N.am  149  ASP149     -0.1959
    166  CA      -105.4880  -12.3880   53.6770 C.3   149  ASP149      0.1840
    167  C       -106.7790  -12.2680   54.4980 C.2   149  ASP149      0.2622
    168  O       -106.9100  -11.4520   55.4100 O.2   149  ASP149     -0.2715
    169  CB      -104.3170  -11.6760   54.3640 C.3   149  ASP149      0.1450
    170  CG      -103.9780  -12.2830   55.7160 C.2   149  ASP149      0.3671
    171  OD1     -104.0050  -13.5260   55.8320 O.co2 149  ASP149     -0.2456
    172  OD2     -103.6900  -11.5190   56.6630 O.co2 149  ASP149     -0.2456
    173  N       -107.7320  -13.1320   54.1560 N.am  150  PHE150     -0.1974
    174  CA      -109.0130  -13.1910   54.8380 C.3   150  PHE150      0.1639
    175  C       -109.0720  -14.3970   55.7670 C.2   150  PHE150      0.2290
    176  O       -108.3250  -15.3660   55.6170 O.2   150  PHE150     -0.2864
    177  CB      -110.1600  -13.2280   53.8210 C.3   150  PHE150      0.0560
    178  CG      -110.2180  -12.0020   52.9650 C.ar  150  PHE150     -0.0200
    179  CD1     -110.7360  -10.8210   53.4700 C.ar  150  PHE150     -0.0042
    180  CD2     -109.7230  -12.0160   51.6680 C.ar  150  PHE150     -0.0042
    181  CE1     -110.7710   -9.6740   52.6950 C.ar  150  PHE150     -0.0003
    182  CE2     -109.7580  -10.8770   50.8970 C.ar  150  PHE150     -0.0003
    183  CZ      -110.2820   -9.7080   51.4090 C.ar  150  PHE150     -0.0000
@<TRIPOS>BOND
     1   124   122   ar
     2   122   121    1
     3   122   123   ar
     4   121   120    1
     5   120   117    1
     6   103   105   ar
     7   103   101   ar
     8   105   106   ar
     9   132   130   am
    10   117   116    1
    11   117   118    1
    12   131   130    2
    13    99    98    2
    14   100   101    1
    15   100    97    1
    16   101   102   ar
    17   130   129    1
    18   119   118    2
    19   106   107    1
    20   106   104   ar
    21   116   110   am
    22   118   125   am
    23    96    97    1
    24    96    89   am
    25    98    97    1
    26    98   108   am
    27    94    93   ar
    28    91    88    1
    29    91    92    1
    30   102   104   ar
    31   125   126    1
    32    88    89    1
    33    88    87    1
    34   110   109    1
    35   110   111    2
    36   129   126    1
    37    37    35    1
    38    89    90    2
    39   108   109    1
    40   109   112    1
    41   126   127    1
    42    25    26    1
    43    83    82    2
    44    93    92    1
    45    93    95   ar
    46    87    82   am
    47    82    81    1
    48   114   115    1
    49   114   113    1
    50    35    34    1
    51    26    27    1
    52    26    29    1
    53   112   113    1
    54   127   133   am
    55   127   128    2
    56    28    27    2
    57     7     5    1
    58    27    30   am
    59   133   134    1
    60    81    80    1
    61    81    84    1
    62    34    36    1
    63    34    31    1
    64    30    31    1
    65     8     6    1
    66    85    84    1
    67    31    32    1
    68    84    86    1
    69   134   135    1
    70     5     6    1
    71     5     2    1
    72   154   153    2
    73   153   152    1
    74    66    65    1
    75    66    67    2
    76   136   135    2
    77    71    69    1
    78     1     2    1
    79     2     3    1
    80   135   137   am
    81    65    68    1
    82    65    64    1
    83    32    33    2
    84    32    38   am
    85    70    68    1
    86    75    74    2
    87    74    73    1
    88   155   152    1
    89   155   156    1
    90    21    20    2
    91    20    19    1
    92   152   151    1
    93    68    69    1
    94   150   149    1
    95    38    39    1
    96   137   138    1
    97   157   156    1
    98   145   144    2
    99   158   156    1
   100     3     4    2
   101     3     9    1
   102    23    22    1
   103    73    72    1
   104    73    76    1
   105   140   139    2
   106   144   143    1
   107    19    22    1
   108    19    18    1
   109   139   138    1
   110     9    10    2
   111   138   141    1
   112    78    76    1
   113   149   148    1
   114   147   148    1
   115   147   146    1
   116    22    24    1
   117    39    40    1
   118    39    42    1
   119    63    62    1
   120    59    58    2
   121    41    40    2
   122    76    77    1
   123   146   143    1
   124   143   142    1
   125    58    57    1
   126    42    43    1
   127    10    11    1
   128    60    57    1
   129    60    61    1
   130    77    79    1
   131    62    61    1
   132    12    11    2
   133    57    56    1
   134   163   164    1
   135   163   160    1
   136    11    13   am
   137    43    44    1
   138   159   160    1
   139   160   161    1
   140   182   183   ar
   141   182   180   ar
   142    45    44    1
   143    45    46    1
   144    13    14    1
   145   183   181   ar
   146   180   178   ar
   147    50    49    2
   148   161   165   am
   149   161   162    2
   150   165   166    1
   151    14    17    1
   152    14    15    1
   153    49    48    1
   154   181   179   ar
   155    55    53   ar
   156    15    16    2
   157    52    53    1
   158    52    51    1
   159    53    54   ar
   160   178   179   ar
   161   178   177    1
   162   166   169    1
   163   166   167    1
   164    51    48    1
   165   177   174    1
   166    48    47    1
   167   173   167   am
   168   173   174    1
   169   169   170    1
   170   167   168    2
   171   174   175    1
   172   176   175    2
   173   170   171   ar
   174   170   172   ar
