@<TRIPOS>MOLECULE
tmp/5nkkF00.pdb
 137 135 0 0 0
SMALL
GASTEIGER

@<TRIPOS>ATOM
      1  N        107.1030  293.2030  384.5190 N.3    36  PRO36      -0.2102
      2  CA       107.4300  291.8940  383.9320 C.3    36  PRO36       0.1504
      3  C        108.2020  292.0000  382.6240 C.2    36  PRO36       0.2576
      4  O        108.5130  293.1010  382.1600 O.2    36  PRO36      -0.2718
      5  CB       106.0550  291.2440  383.7190 C.3    36  PRO36       0.0282
      6  CG       105.0930  292.0430  384.5470 C.3    36  PRO36       0.0208
      7  CD       105.6520  293.4200  384.6460 C.3    36  PRO36       0.0893
      8  N        108.5070  290.8480  382.0220 N.am   37  GLN37      -0.1966
      9  CA       109.4330  290.8010  380.8920 C.3    37  GLN37       0.1733
     10  C        108.8530  291.4710  379.6510 C.2    37  GLN37       0.2617
     11  O        109.4160  292.4410  379.1350 O.2    37  GLN37      -0.2715
     12  CB       109.8140  289.3490  380.5950 C.3    37  GLN37       0.0408
     13  CG       110.5980  288.6250  381.6870 C.3    37  GLN37       0.0908
     14  CD       111.8850  289.3280  382.0340 C.2    37  GLN37       0.2608
     15  OE1      112.6790  289.6240  381.1200 O.2    37  GLN37      -0.2717
     16  NE2      112.0600  289.7100  383.2600 N.am   37  GLN37      -0.0878
     17  N        107.7450  290.9500  379.1360 N.am   38  GLY38      -0.1940
     18  CA       107.2420  291.3710  377.8400 C.3    38  GLY38       0.2014
     19  C        106.4280  292.6510  377.8470 C.2    38  GLY38       0.2639
     20  O        105.6300  292.8850  376.9340 O.2    38  GLY38      -0.2714
     21  N        106.6220  293.4930  378.8600 N.am   39  ALA39      -0.1963
     22  CA       105.8000  294.6850  379.0360 C.3    39  ALA39       0.1728
     23  C        106.2170  295.8660  378.1670 C.2    39  ALA39       0.2617
     24  O        105.4950  296.8680  378.1380 O.2    39  ALA39      -0.2715
     25  CB       105.8150  295.1110  380.5070 C.3    39  ALA39       0.0334
     26  N        107.3500  295.7940  377.4710 N.am   40  GLY40      -0.1940
     27  CA       107.7890  296.9310  376.6840 C.3    40  GLY40       0.2014
     28  C        108.4560  298.0160  377.4950 C.2    40  GLY40       0.2639
     29  O        108.5970  299.1440  377.0100 O.2    40  GLY40      -0.2714
     30  N        108.8540  297.6970  378.7230 N.am   41  LYS41      -0.1963
     31  CA       109.3750  298.6820  379.6640 C.3    41  LYS41       0.1728
     32  C        110.6170  299.4010  379.1330 C.2    41  LYS41       0.2617
     33  O        110.7610  300.6170  379.3150 O.2    41  LYS41      -0.2715
     34  CB       109.6410  297.9530  380.9770 C.3    41  LYS41       0.0311
     35  CG       110.7890  298.4140  381.8080 C.3    41  LYS41       0.0038
     36  CD       110.8180  297.5320  383.0500 C.3    41  LYS41       0.0206
     37  CE       111.3850  296.1530  382.6980 C.3    41  LYS41       0.1093
     38  NZ       110.7810  295.0590  383.5160 N.3    41  LYS41      -0.1314
     39  N        111.5240  298.6750  378.4730 N.am   42  SER42      -0.1936
     40  CA       112.7430  299.3040  377.9650 C.3    42  SER42       0.2055
     41  C        112.4590  300.1790  376.7500 C.2    42  SER42       0.2644
     42  O        113.0300  301.2680  376.6170 O.2    42  SER42      -0.2714
     43  CB       113.7870  298.2410  377.6190 C.3    42  SER42       0.2130
     44  OG       114.1180  297.4620  378.7550 O.3    42  SER42      -0.2179
     45  N        111.5830  299.7200  375.8510 N.am   43  THR43      -0.1936
     46  CA       111.2180  300.5310  374.6940 C.3    43  THR43       0.2028
     47  C        110.4950  301.8020  375.1120 C.2    43  THR43       0.2642
     48  O        110.6400  302.8440  374.4620 O.2    43  THR43      -0.2714
     49  CB       110.3470  299.7280  373.7280 C.3    43  THR43       0.1808
     50  OG1      109.0900  299.4320  374.3480 O.3    43  THR43      -0.2208
     51  CG2      111.0340  298.4360  373.3420 C.3    43  THR43       0.0379
     52  N        109.7160  301.7370  376.1920 N.am   44  LEU44      -0.1977
     53  CA       108.9850  302.9130  376.6440 C.3    44  LEU44       0.1596
     54  C        109.9380  303.9310  377.2570 C.2    44  LEU44       0.2287
     55  O        109.7960  305.1380  377.0330 O.2    44  LEU44      -0.2864
     56  CB       107.8950  302.4980  377.6340 C.3    44  LEU44       0.0297
     57  CG       107.1570  303.5900  378.4070 C.3    44  LEU44       0.0022
     58  CD1      105.6560  303.3760  378.3050 C.3    44  LEU44       0.0001
     59  CD2      107.5940  303.6030  379.8590 C.3    44  LEU44       0.0001
     60  N        114.8360  300.0320  364.7260 N.3    57  TYR57      -0.1241
     61  CA       115.0330  299.2530  365.9430 C.3    57  TYR57       0.1605
     62  C        116.4600  299.3720  366.4610 C.2    57  TYR57       0.2264
     63  O        116.6780  299.3770  367.6780 O.2    57  TYR57      -0.2867
     64  CB       114.6790  297.7870  365.6920 C.3    57  TYR57       0.0534
     65  CG       113.2700  297.6060  365.1330 C.ar   57  TYR57      -0.0201
     66  CD1      112.1730  297.8240  365.9410 C.ar   57  TYR57      -0.0009
     67  CD2      113.0980  297.2490  363.8090 C.ar   57  TYR57      -0.0009
     68  CE1      110.8980  297.6910  365.4270 C.ar   57  TYR57       0.0417
     69  CE2      111.8150  297.1140  363.2880 C.ar   57  TYR57       0.0417
     70  CZ       110.7290  297.3360  364.1080 C.ar   57  TYR57       0.1957
     71  OH       109.4400  297.2080  363.6110 O.3    57  TYR57      -0.2866
     72  N        117.0580  302.3880  368.8610 N.3    60  TYR60      -0.1241
     73  CA       116.4970  302.4350  370.2040 C.3    60  TYR60       0.1605
     74  C        117.6220  302.4020  371.2290 C.2    60  TYR60       0.2264
     75  O        118.5300  301.5700  371.1420 O.2    60  TYR60      -0.2867
     76  CB       115.5390  301.2640  370.4200 C.3    60  TYR60       0.0534
     77  CG       114.2340  301.3260  369.6900 C.ar   60  TYR60      -0.0201
     78  CD1      113.7070  302.5280  369.2210 C.ar   60  TYR60      -0.0009
     79  CD2      113.4720  300.1690  369.5350 C.ar   60  TYR60      -0.0009
     80  CE1      112.4650  302.5770  368.5770 C.ar   60  TYR60       0.0417
     81  CE2      112.2120  300.2000  368.9300 C.ar   60  TYR60       0.0417
     82  CZ       111.7160  301.4060  368.4380 C.ar   60  TYR60       0.1957
     83  OH       110.4890  301.4370  367.8190 O.3    60  TYR60      -0.2866
     84  N        115.4380  296.6180  372.7120 N.3    64  PRO64      -0.2102
     85  CA       114.2980  295.7390  373.0020 C.3    64  PRO64       0.1504
     86  C        114.6790  294.2700  372.9270 C.2    64  PRO64       0.2576
     87  O        114.9800  293.7550  371.8450 O.2    64  PRO64      -0.2718
     88  CB       113.2700  296.0790  371.9420 C.3    64  PRO64       0.0282
     89  CG       114.0970  296.5170  370.7280 C.3    64  PRO64       0.0208
     90  CD       115.1950  297.3270  371.3870 C.3    64  PRO64       0.0893
     91  N        114.6650  293.5870  374.0700 N.am   65  VAL65      -0.1966
     92  CA       115.0790  292.1900  374.1420 C.3    65  VAL65       0.1727
     93  C        114.0790  291.3110  373.4010 C.2    65  VAL65       0.2616
     94  O        114.4100  290.7150  372.3700 O.2    65  VAL65      -0.2715
     95  CB       115.2360  291.7320  375.6040 C.3    65  VAL65       0.0290
     96  CG1      115.6590  290.2700  375.6980 C.3    65  VAL65       0.0023
     97  CG2      116.3170  292.5870  376.2700 C.3    65  VAL65       0.0023
     98  N        112.8570  291.2290  373.9240 N.am   66  SER66      -0.1950
     99  CA       111.8080  290.3720  373.3700 C.3    66  SER66       0.1924
    100  C        112.2580  288.9160  373.2820 C.2    66  SER66       0.2314
    101  O        111.4390  287.9990  373.3300 O.2    66  SER66      -0.2863
    102  CB       111.3710  290.8690  371.9880 C.3    66  SER66       0.2116
    103  OG       110.2810  290.1540  371.4550 O.3    66  SER66      -0.2180
    104  N        100.5260  298.4750  379.4420 N.3   152  THR152     -0.1203
    105  CA       100.9590  298.3560  378.0590 C.3   152  THR152      0.1994
    106  C        100.1490  297.2870  377.3280 C.2   152  THR152      0.2617
    107  O         99.5110  296.4240  377.9420 O.2   152  THR152     -0.2717
    108  CB       102.4540  298.0290  377.9800 C.3   152  THR152      0.1784
    109  OG1      102.8110  297.1310  379.0390 O.3   152  THR152     -0.2211
    110  CG2      103.2860  299.2990  378.1010 C.3   152  THR152      0.0376
    111  N        100.2020  297.3560  375.9940 N.am  153  LYS153     -0.1979
    112  CA        99.5810  296.3750  375.1040 C.3   153  LYS153      0.1596
    113  C         98.1580  296.0600  375.5550 C.2   153  LYS153      0.2287
    114  O         97.7870  294.9070  375.7840 O.2   153  LYS153     -0.2864
    115  CB       100.4270  295.1050  375.0170 C.3   153  LYS153      0.0298
    116  CG       101.8710  295.3470  374.5950 C.3   153  LYS153      0.0038
    117  CD       102.7580  294.1490  374.8860 C.3   153  LYS153      0.0206
    118  CE       104.1750  294.3990  374.3960 C.3   153  LYS153      0.1093
    119  NZ       105.0580  293.2110  374.5720 N.3   153  LYS153     -0.1314
    120  N         97.8210  301.1490  373.6930 N.3   195  GLU195     -0.1231
    121  CA        97.4250  300.0820  372.7850 C.3   195  GLU195      0.1699
    122  C         98.6400  299.5260  372.0520 C.2   195  GLU195      0.2592
    123  O         99.6960  300.1570  371.9800 O.2   195  GLU195     -0.2718
    124  CB        96.3890  300.5820  371.7760 C.3   195  GLU195      0.0402
    125  CG        94.9710  300.7820  372.3180 C.3   195  GLU195      0.1161
    126  CD        94.7390  302.1220  372.9150 C.2   195  GLU195      0.3649
    127  OE1       95.6880  302.9030  373.0300 O.co2 195  GLU195     -0.2457
    128  OE2       93.6210  302.4100  373.2530 O.co2 195  GLU195     -0.2457
    129  N         98.4740  298.3270  371.5010 N.am  196  GLU196     -0.1979
    130  CA        99.5500  297.6780  370.7560 C.3   196  GLU196      0.1602
    131  C         99.7750  298.3650  369.4110 C.2   196  GLU196      0.2287
    132  O        100.6950  299.1700  369.2580 O.2   196  GLU196     -0.2864
    133  CB        99.2460  296.1920  370.5430 C.3   196  GLU196      0.0415
    134  CG        97.8550  295.7350  370.1430 C.3   196  GLU196      0.1163
    135  CD        96.8990  295.3270  371.2110 C.2   196  GLU196      0.3649
    136  OE1       96.9580  295.9860  372.2640 O.co2 196  GLU196     -0.2457
    137  OE2       96.1110  294.4040  371.0940 O.co2 196  GLU196     -0.2457
@<TRIPOS>BOND
     1    69    67   ar
     2    69    70   ar
     3    71    70    1
     4    67    65   ar
     5    70    68   ar
     6    60    61    1
     7    65    64    1
     8    65    66   ar
     9    68    66   ar
    10    64    61    1
    11    61    62    1
    12    62    63    2
    13    83    82    1
    14    82    80   ar
    15    82    81   ar
    16    80    78   ar
    17    72    73    1
    18    81    79   ar
    19    78    77   ar
    20   132   131    2
    21   131   130    1
    22    79    77   ar
    23    77    76    1
    24   134   133    1
    25   134   135    1
    26    73    76    1
    27    73    74    1
    28   133   130    1
    29    89    90    1
    30    89    88    1
    31   130   129    1
    32   137   135   ar
    33    75    74    2
    34   135   136   ar
    35    90    84    1
    36   103   102    1
    37   129   122   am
    38   124   125    1
    39   124   121    1
    40    87    86    2
    41    88    85    1
    42   123   122    2
    43   102    99    1
    44   122   121    1
    45   125   126    1
    46    94    93    2
    47    84    85    1
    48   121   120    1
    49   126   127   ar
    50   126   128   ar
    51    86    85    1
    52    86    91   am
    53   100   101    2
    54   100    99    1
    55    51    49    1
    56    99    98    1
    57    93    98   am
    58    93    92    1
    59    49    50    1
    60    49    46    1
    61    91    92    1
    62    92    95    1
    63   118   119    1
    64   118   117    1
    65    48    47    2
    66   116   117    1
    67   116   115    1
    68    46    47    1
    69    46    45    1
    70   115   112    1
    71   112   113    1
    72   112   111    1
    73    47    52   am
    74   113   114    2
    75    95    96    1
    76    95    97    1
    77    45    41   am
    78   111   106   am
    79    52    53    1
    80    42    41    2
    81    53    54    1
    82    53    56    1
    83    27    26    1
    84    27    28    1
    85    41    40    1
    86    20    19    2
    87    29    28    2
    88    55    54    2
    89   106   107    2
    90   106   105    1
    91    26    23   am
    92    28    30   am
    93    43    40    1
    94    43    44    1
    95    56    57    1
    96    18    19    1
    97    18    17    1
    98    19    21   am
    99    40    39    1
   100   108   105    1
   101   108   110    1
   102   108   109    1
   103   105   104    1
   104    24    23    2
   105    23    22    1
   106    58    57    1
   107    57    59    1
   108    39    32   am
   109    30    31    1
   110    21    22    1
   111    22    25    1
   112    32    33    2
   113    32    31    1
   114    11    10    2
   115    17    10   am
   116    10     9    1
   117    31    34    1
   118    12     9    1
   119    12    13    1
   120     9     8    1
   121    34    35    1
   122    15    14    2
   123    13    14    1
   124    35    36    1
   125     8     3   am
   126    14    16   am
   127     4     3    2
   128     3     2    1
   129    37    36    1
   130    37    38    1
   131     5     2    1
   132     5     6    1
   133     2     1    1
   134     1     7    1
   135     6     7    1
