@<TRIPOS>MOLECULE
tmp/5nkkD00.pdb
 84 81 0 0 0
SMALL
GASTEIGER

@<TRIPOS>ATOM
      1  N        101.2390  236.7670  378.1040 N.3    36  PRO36      -0.2102
      2  CA       102.3110  237.6850  377.6820 C.3    36  PRO36       0.1504
      3  C        102.1630  238.2000  376.2560 C.2    36  PRO36       0.2576
      4  O        101.1760  237.9090  375.5730 O.2    36  PRO36      -0.2718
      5  CB       103.5840  236.8410  377.8360 C.3    36  PRO36       0.0282
      6  CG       103.1980  235.6710  378.6840 C.3    36  PRO36       0.0208
      7  CD       101.7470  235.4310  378.4520 C.3    36  PRO36       0.0893
      8  N        103.1570  238.9740  375.8090 N.am   37  GLN37      -0.1966
      9  CA       103.0610  239.6930  374.5400 C.3    37  GLN37       0.1733
     10  C        103.0420  238.7400  373.3520 C.2    37  GLN37       0.2616
     11  O        102.0690  238.6920  372.5910 O.2    37  GLN37      -0.2715
     12  CB       104.2360  240.6590  374.3920 C.3    37  GLN37       0.0408
     13  CG       104.0700  241.9930  375.0730 C.3    37  GLN37       0.0908
     14  CD       104.9960  242.1380  376.2530 C.2    37  GLN37       0.2608
     15  OE1      105.1690  241.2050  377.0380 O.2    37  GLN37      -0.2717
     16  NE2      105.6290  243.3000  376.3690 N.am   37  GLN37      -0.0878
     17  N        104.1160  237.9750  373.1730 N.am   38  GLY38      -0.1955
     18  CA       104.3050  237.2490  371.9340 C.3    38  GLY38       0.1869
     19  C        103.5140  235.9660  371.8320 C.2    38  GLY38       0.2309
     20  O        103.8380  235.0940  371.0230 O.2    38  GLY38      -0.2863
     21  N        100.3700  235.7950  370.8990 N.3    40  GLY40      -0.1210
     22  CA        99.3740  235.8490  369.8510 C.3    40  GLY40       0.1956
     23  C         97.9440  235.9010  370.3310 C.2    40  GLY40       0.2612
     24  O         97.0340  235.6230  369.5450 O.2    40  GLY40      -0.2717
     25  N         97.7180  236.2190  371.6100 N.am   41  LYS41      -0.1965
     26  CA        96.3700  236.1450  372.1680 C.3    41  LYS41       0.1728
     27  C         95.3940  237.0330  371.4030 C.2    41  LYS41       0.2617
     28  O         94.2280  236.6640  371.2180 O.2    41  LYS41      -0.2715
     29  CB        96.3920  236.4900  373.6590 C.3    41  LYS41       0.0311
     30  CG        96.5620  237.9540  373.9960 C.3    41  LYS41       0.0038
     31  CD        96.7720  238.1240  375.4880 C.3    41  LYS41       0.0206
     32  CE        96.4670  239.5400  375.9300 C.3    41  LYS41       0.1093
     33  NZ        97.1440  240.5600  375.0800 N.3    41  LYS41      -0.1314
     34  N         95.8440  238.2060  370.9480 N.am   42  SER42      -0.1936
     35  CA        94.9430  239.0850  370.2110 C.3    42  SER42       0.2055
     36  C         94.6210  238.5050  368.8390 C.2    42  SER42       0.2643
     37  O         93.4760  238.5820  368.3790 O.2    42  SER42      -0.2714
     38  CB        95.5510  240.4810  370.0740 C.3    42  SER42       0.2130
     39  OG        95.7990  241.0610  371.3430 O.3    42  SER42      -0.2179
     40  N         95.6180  237.9190  368.1720 N.am   43  THR43      -0.1950
     41  CA        95.3560  237.2590  366.8980 C.3    43  THR43       0.1897
     42  C         94.4570  236.0440  367.0900 C.2    43  THR43       0.2313
     43  O         93.5920  235.7640  366.2520 O.2    43  THR43      -0.2863
     44  CB        96.6770  236.8520  366.2390 C.3    43  THR43       0.1794
     45  OG1       97.4660  238.0200  365.9830 O.3    43  THR43      -0.2208
     46  CG2       96.4280  236.1180  364.9280 C.3    43  THR43       0.0378
     47  N         95.7640  241.0860  357.6940 N.3    57  TYR57      -0.1241
     48  CA        96.0300  241.5760  359.0420 C.3    57  TYR57       0.1605
     49  C         95.1550  242.7710  359.3990 C.2    57  TYR57       0.2264
     50  O         94.7690  242.9290  360.5630 O.2    57  TYR57      -0.2867
     51  CB        97.5080  241.9430  359.1850 C.3    57  TYR57       0.0534
     52  CG        97.8400  242.4560  360.5630 C.ar   57  TYR57      -0.0201
     53  CD1       97.7570  241.5570  361.6080 C.ar   57  TYR57      -0.0009
     54  CD2       98.2140  243.7760  360.7910 C.ar   57  TYR57      -0.0009
     55  CE1       98.0830  241.9580  362.9060 C.ar   57  TYR57       0.0417
     56  CE2       98.5840  244.2030  362.0650 C.ar   57  TYR57       0.0417
     57  CZ        98.4910  243.2920  363.1130 C.ar   57  TYR57       0.1957
     58  OH        98.7980  243.7100  364.4260 O.3    57  TYR57      -0.2866
     59  N         93.7140  244.0120  366.5740 N.3    63  ARG63      -0.1245
     60  CA        95.0250  244.2960  366.0060 C.3    63  ARG63       0.1563
     61  C         96.0850  244.4470  367.0940 C.2    63  ARG63       0.2260
     62  O         96.0820  245.4250  367.8430 O.2    63  ARG63      -0.2867
     63  CB        94.9620  245.5480  365.1310 C.3    63  ARG63       0.0307
     64  CG        94.0470  245.3820  363.9290 C.3    63  ARG63       0.0489
     65  CD        93.9550  246.6520  363.1070 C.3    63  ARG63       0.2205
     66  NE        93.4760  247.7810  363.8960 N.pl3  63  ARG63      -0.0865
     67  CZ        92.9170  248.8680  363.3760 C.cat  63  ARG63       0.5346
     68  NH1       92.7590  248.9700  362.0630 N.pl3  63  ARG63       0.1354
     69  NH2       92.5080  249.8510  364.1670 N.pl3  63  ARG63       0.1354
     70  N         89.9000  241.5260  375.4760 N.3    82  ASP82      -0.1239
     71  CA        91.3240  241.2750  375.2870 C.3    82  ASP82       0.1674
     72  C         92.0720  242.1770  376.2600 C.2    82  ASP82       0.2266
     73  O         92.0660  243.4040  376.1120 O.2    82  ASP82      -0.2867
     74  CB        91.7440  241.5370  373.8420 C.3    82  ASP82       0.1410
     75  CG        93.2160  241.2710  373.6020 C.2    82  ASP82       0.3668
     76  OD1       93.7990  240.4440  374.3320 O.co2  82  ASP82      -0.2456
     77  OD2       93.7880  241.8920  372.6820 O.co2  82  ASP82      -0.2456
     78  N         98.8630  242.5870  378.0570 N.3    85  PRO85      -0.2116
     79  CA        99.7820  241.5040  378.4280 C.3    85  PRO85       0.1372
     80  C        100.2600  241.6350  379.8680 C.2    85  PRO85       0.2244
     81  O        100.4710  242.7390  380.3750 O.2    85  PRO85      -0.2868
     82  CB       100.9350  241.6620  377.4320 C.3    85  PRO85       0.0268
     83  CG       100.3070  242.3140  376.2460 C.3    85  PRO85       0.0207
     84  CD        99.2690  243.2500  376.8060 C.3    85  PRO85       0.0892
@<TRIPOS>BOND
     1    47    48    1
     2    48    51    1
     3    48    49    1
     4    51    52    1
     5    49    50    2
     6    52    54   ar
     7    52    53   ar
     8    54    56   ar
     9    53    55   ar
    10    68    67    1
    11    56    57   ar
    12    55    57   ar
    13    65    66    1
    14    65    64    1
    15    57    58    1
    16    67    66    2
    17    67    69    1
    18    64    63    1
    19    46    44    1
    20    63    60    1
    21    45    44    1
    22    60    59    1
    23    60    61    1
    24    44    41    1
    25    43    42    2
    26    41    42    1
    27    41    40    1
    28    61    62    2
    29    40    36   am
    30    37    36    2
    31    36    35    1
    32    24    23    2
    33    22    23    1
    34    22    21    1
    35    38    35    1
    36    38    39    1
    37    35    34    1
    38    23    25   am
    39    34    27   am
    40    20    19    2
    41    28    27    2
    42    27    26    1
    43    25    26    1
    44    19    18    1
    45    18    17    1
    46    26    29    1
    47    11    10    2
    48    77    75   ar
    49    17    10   am
    50    10     9    1
    51    75    74    1
    52    75    76   ar
    53    29    30    1
    54    74    71    1
    55    30    31    1
    56    12     9    1
    57    12    13    1
    58     9     8    1
    59    13    14    1
    60    33    32    1
    61    71    70    1
    62    71    72    1
    63    31    32    1
    64     4     3    2
    65     8     3   am
    66    73    72    2
    67    83    84    1
    68    83    82    1
    69    14    16   am
    70    14    15    2
    71     3     2    1
    72    84    78    1
    73    82    79    1
    74     2     5    1
    75     2     1    1
    76     5     6    1
    77    78    79    1
    78     1     7    1
    79    79    80    1
    80     7     6    1
    81    80    81    2
