@<TRIPOS>MOLECULE
tmp/5nklA00.pdb
 196 189 0 0 0
SMALL
GASTEIGER

@<TRIPOS>ATOM
      1  N         24.1570  -30.1680  -11.0520 N.3   281  ARG281     -0.1245
      2  CA        24.8800  -28.9610  -11.4020 C.3   281  ARG281      0.1563
      3  C         26.3420  -29.2870  -11.6480 C.2   281  ARG281      0.2260
      4  O         26.8710  -30.2820  -11.1390 O.2   281  ARG281     -0.2867
      5  CB        24.7710  -27.9230  -10.3010 C.3   281  ARG281      0.0307
      6  CG        23.4540  -27.1340  -10.3060 C.3   281  ARG281      0.0489
      7  CD        23.6650  -25.8860   -9.4760 C.3   281  ARG281      0.2205
      8  NE        22.5580  -24.9500   -9.5600 N.pl3 281  ARG281     -0.0865
      9  CZ        22.5270  -23.7960   -8.9210 C.cat 281  ARG281      0.5346
     10  NH1       23.5310  -23.4480   -8.1140 N.pl3 281  ARG281      0.1354
     11  NH2       21.4850  -22.9880   -9.0560 N.pl3 281  ARG281      0.1354
     12  N         29.7710   -9.5950   -8.0190 N.3   294  VAL294     -0.1231
     13  CA        28.9040   -8.8160   -8.8910 C.3   294  VAL294      0.1692
     14  C         27.9710   -7.8720   -8.1270 C.2   294  VAL294      0.2591
     15  O         27.5050   -6.8670   -8.6730 O.2   294  VAL294     -0.2718
     16  CB        28.1010   -9.7870   -9.7720 C.3   294  VAL294      0.0266
     17  CG1       27.0010  -10.4920   -8.9250 C.3   294  VAL294      0.0020
     18  CG2       27.5380   -9.0580  -10.9790 C.3   294  VAL294      0.0020
     19  N         27.6850   -8.1750   -6.8630 N.am  295  ARG295     -0.1980
     20  CA        26.6410   -7.4510   -6.1380 C.3   295  ARG295      0.1597
     21  C         27.0550   -6.0220   -5.7920 C.2   295  ARG295      0.2287
     22  O         26.3470   -5.0680   -6.1220 O.2   295  ARG295     -0.2864
     23  CB        26.2800   -8.2300   -4.8760 C.3   295  ARG295      0.0334
     24  CG        25.0690   -7.7250   -4.1280 C.3   295  ARG295      0.0492
     25  CD        24.7850   -8.6190   -2.9080 C.3   295  ARG295      0.2205
     26  NE        25.5940   -8.2670   -1.7320 N.pl3 295  ARG295     -0.0865
     27  CZ        26.6770   -8.9230   -1.3060 C.cat 295  ARG295      0.5346
     28  NH1       27.1280   -9.9970   -1.9400 N.pl3 295  ARG295      0.1354
     29  NH2       27.3220   -8.5000   -0.2230 N.pl3 295  ARG295      0.1354
     30  N         21.8840  -15.4670  -20.1350 N.3   318  ASP318     -0.1225
     31  CA        21.3700  -15.8510  -18.8280 C.3   318  ASP318      0.1805
     32  C         19.8960  -16.2150  -18.9560 C.2   318  ASP318      0.2598
     33  O         19.1040  -15.3980  -19.4300 O.2   318  ASP318     -0.2718
     34  CB        21.5660  -14.6930  -17.8310 C.3   318  ASP318      0.1424
     35  CG        21.3640  -15.1300  -16.3980 C.2   318  ASP318      0.3668
     36  OD1       20.2810  -15.6680  -16.1230 O.co2 318  ASP318     -0.2456
     37  OD2       22.2920  -14.9710  -15.5770 O.co2 318  ASP318     -0.2456
     38  N         19.5270  -17.4440  -18.5700 N.am  319  TYR319     -0.1962
     39  CA        18.1150  -17.8350  -18.5790 C.3   319  TYR319      0.1771
     40  C         17.3200  -17.0050  -17.5830 C.2   319  TYR319      0.2620
     41  O         17.7370  -16.8010  -16.4430 O.2   319  TYR319     -0.2715
     42  CB        17.9490  -19.3120  -18.2300 C.3   319  TYR319      0.0574
     43  CG        18.2450  -20.3310  -19.3360 C.ar  319  TYR319     -0.0198
     44  CD1       17.3440  -20.5740  -20.3560 C.ar  319  TYR319     -0.0009
     45  CD2       19.3980  -21.1130  -19.2840 C.ar  319  TYR319     -0.0009
     46  CE1       17.6100  -21.5330  -21.3350 C.ar  319  TYR319      0.0417
     47  CE2       19.6670  -22.0760  -20.2310 C.ar  319  TYR319      0.0417
     48  CZ        18.7650  -22.2780  -21.2610 C.ar  319  TYR319      0.1957
     49  OH        19.0310  -23.2350  -22.1940 O.3   319  TYR319     -0.2866
     50  N         16.1510  -16.5520  -18.0050 N.am  320  SER320     -0.1936
     51  CA        15.2720  -15.7610  -17.1510 C.3   320  SER320      0.2055
     52  C         14.5260  -16.6650  -16.1700 C.2   320  SER320      0.2643
     53  O         13.9220  -17.6540  -16.5870 O.2   320  SER320     -0.2714
     54  CB        14.2720  -14.9840  -18.0210 C.3   320  SER320      0.2130
     55  OG        13.3230  -14.2770  -17.2350 O.3   320  SER320     -0.2179
     56  N         14.5920  -16.3370  -14.8710 N.am  321  GLN321     -0.1963
     57  CA        13.7450  -16.9570  -13.8230 C.3   321  GLN321      0.1733
     58  C         13.6620  -18.4650  -14.0000 C.2   321  GLN321      0.2616
     59  O         12.5890  -19.0750  -13.9650 O.2   321  GLN321     -0.2715
     60  CB        12.3320  -16.3780  -13.8240 C.3   321  GLN321      0.0408
     61  CG        12.2580  -14.8960  -13.9170 C.3   321  GLN321      0.0908
     62  CD        10.8510  -14.4080  -14.0720 C.2   321  GLN321      0.2608
     63  OE1       10.1810  -14.1260  -13.0890 O.2   321  GLN321     -0.2717
     64  NE2       10.3880  -14.2920  -15.3180 N.am  321  GLN321     -0.0878
     65  N         14.8140  -19.0700  -14.2430 N.am  322  ILE322     -0.1963
     66  CA        14.8150  -20.4000  -14.8280 C.3   322  ILE322      0.1727
     67  C         14.1260  -21.4030  -13.9030 C.2   322  ILE322      0.2616
     68  O         13.2330  -22.1480  -14.3220 O.2   322  ILE322     -0.2715
     69  CB        16.2490  -20.8250  -15.1890 C.3   322  ILE322      0.0290
     70  CG1       16.2520  -22.2380  -15.7400 C.3   322  ILE322      0.0022
     71  CG2       17.1990  -20.7070  -14.0080 C.3   322  ILE322      0.0023
     72  CD1       15.4600  -22.3900  -16.9990 C.3   322  ILE322      0.0001
     73  N         14.5240  -21.4520  -12.6360 N.am  323  GLU323     -0.1977
     74  CA        13.9650  -22.5050  -11.7880 C.3   323  GLU323      0.1602
     75  C         12.4690  -22.3260  -11.5440 C.2   323  GLU323      0.2287
     76  O         11.7830  -23.3300  -11.3490 O.2   323  GLU323     -0.2864
     77  CB        14.7630  -22.6100  -10.4920 C.3   323  GLU323      0.0415
     78  CG        16.0870  -23.3630  -10.7700 C.3   323  GLU323      0.1163
     79  CD        17.0290  -23.5700   -9.6060 C.2   323  GLU323      0.3649
     80  OE1       16.5460  -23.7670   -8.4860 O.co2 323  GLU323     -0.2457
     81  OE2       18.2560  -23.5660   -9.8520 O.co2 323  GLU323     -0.2457
     82  N         10.6430  -11.6670   -9.7670 N.3   347  HIS347     -0.1241
     83  CA        11.7410  -10.9450   -9.1250 C.3   347  HIS347      0.1621
     84  C         11.5830   -9.4390   -9.2460 C.2   347  HIS347      0.2264
     85  O         12.1500   -8.7050   -8.4330 O.2   347  HIS347     -0.2867
     86  CB        13.0860  -11.3520   -9.7240 C.3   347  HIS347      0.0745
     87  CG        13.2980  -12.8280   -9.7510 C.ar  347  HIS347      0.0817
     88  ND1       12.6910  -13.6820   -8.8520 N.ar  347  HIS347     -0.2268
     89  CD2       14.0410  -13.6060  -10.5710 C.ar  347  HIS347      0.1154
     90  CE1       13.0600  -14.9230   -9.1130 C.ar  347  HIS347      0.1986
     91  NE2       13.8820  -14.9040  -10.1480 N.ar  347  HIS347     -0.2212
     92  N         16.3440   -6.2060   -7.6270 N.3   367  ARG367     -0.1231
     93  CA        15.8380   -7.4590   -8.1710 C.3   367  ARG367      0.1694
     94  C         16.5610   -8.6600   -7.5690 C.2   367  ARG367      0.2591
     95  O         15.9440   -9.7050   -7.3350 O.2   367  ARG367     -0.2718
     96  CB        15.9660   -7.4410   -9.6960 C.3   367  ARG367      0.0321
     97  CG        15.1700   -8.5040  -10.3790 C.3   367  ARG367      0.0489
     98  CD        14.8040   -8.1240  -11.8090 C.3   367  ARG367      0.2205
     99  NE        14.1940   -9.2780  -12.4460 N.pl3 367  ARG367     -0.0865
    100  CZ        14.8860  -10.3240  -12.8690 C.cat 367  ARG367      0.5346
    101  NH1       14.2520  -11.3470  -13.4100 N.pl3 367  ARG367      0.1354
    102  NH2       16.2150  -10.3450  -12.7460 N.pl3 367  ARG367      0.1354
    103  N         17.8660   -8.5290   -7.3030 N.am  368  ARG368     -0.1980
    104  CA        18.6000   -9.5990   -6.6320 C.3   368  ARG368      0.1597
    105  C         18.0250   -9.8830   -5.2540 C.2   368  ARG368      0.2287
    106  O         17.8550  -11.0440   -4.8630 O.2   368  ARG368     -0.2864
    107  CB        20.0630   -9.2210   -6.4640 C.3   368  ARG368      0.0334
    108  CG        20.7840   -8.7520   -7.6900 C.3   368  ARG368      0.0492
    109  CD        22.0390   -8.0670   -7.2070 C.3   368  ARG368      0.2205
    110  NE        22.8100   -7.4740   -8.2810 N.pl3 368  ARG368     -0.0865
    111  CZ        23.6550   -8.1550   -9.0400 C.cat 368  ARG368      0.5346
    112  NH1       24.3260   -7.5240   -9.9990 N.pl3 368  ARG368      0.1354
    113  NH2       23.8230   -9.4630   -8.8350 N.pl3 368  ARG368      0.1354
    114  N         15.3070  -12.0130   -5.4040 N.3   371  LYS371     -0.1231
    115  CA        15.6240  -13.4100   -5.7240 C.3   371  LYS371      0.1693
    116  C         15.9130  -14.2160   -4.4680 C.2   371  LYS371      0.2592
    117  O         15.4890  -15.3730   -4.3590 O.2   371  LYS371     -0.2718
    118  CB        16.8080  -13.5040   -6.6890 C.3   371  LYS371      0.0285
    119  CG        16.4840  -12.9720   -8.0870 C.3   371  LYS371      0.0035
    120  CD        17.4290  -13.5330   -9.1320 C.3   371  LYS371      0.0206
    121  CE        17.9180  -12.4490  -10.0430 C.3   371  LYS371      0.1093
    122  NZ        18.9950  -12.9580  -10.9290 N.3   371  LYS371     -0.1314
    123  N         16.6500  -13.6330   -3.5210 N.am  372  THR372     -0.1953
    124  CA        16.7640  -14.2300   -2.1910 C.3   372  THR372      0.1897
    125  C         15.3930  -14.5600   -1.6100 C.2   372  THR372      0.2313
    126  O         15.1880  -15.6420   -1.0510 O.2   372  THR372     -0.2863
    127  CB        17.5150  -13.2750   -1.2660 C.3   372  THR372      0.1794
    128  OG1       18.9000  -13.2790   -1.6280 O.3   372  THR372     -0.2208
    129  CG2       17.3460  -13.6700    0.2200 C.3   372  THR372      0.0378
    130  N         13.2470  -17.2860   -3.9860 N.3   375  PHE375     -0.1241
    131  CA        13.8470  -18.6080   -3.8290 C.3   375  PHE375      0.1605
    132  C         13.9580  -18.9910   -2.3620 C.2   375  PHE375      0.2264
    133  O         13.6660  -20.1350   -1.9930 O.2   375  PHE375     -0.2867
    134  CB        15.2020  -18.6580   -4.5340 C.3   375  PHE375      0.0534
    135  CG        15.0590  -18.4650   -6.0210 C.ar  375  PHE375     -0.0203
    136  CD1       14.2890  -19.3680   -6.7590 C.ar  375  PHE375     -0.0042
    137  CD2       15.5830  -17.3560   -6.6600 C.ar  375  PHE375     -0.0042
    138  CE1       14.0740  -19.1930   -8.1180 C.ar  375  PHE375     -0.0003
    139  CE2       15.3790  -17.1760   -8.0270 C.ar  375  PHE375     -0.0003
    140  CZ        14.6220  -18.1040   -8.7470 C.ar  375  PHE375     -0.0000
    141  N         11.9550  -22.6230   -1.3010 N.3   379  TYR379     -0.1241
    142  CA        12.6440  -23.8200   -0.8270 C.3   379  TYR379      0.1605
    143  C         12.6160  -23.9690    0.6890 C.2   379  TYR379      0.2264
    144  O         13.4710  -24.6750    1.2450 O.2   379  TYR379     -0.2867
    145  CB        14.0900  -23.8150   -1.3090 C.3   379  TYR379      0.0534
    146  CG        14.1510  -23.8740   -2.8300 C.ar  379  TYR379     -0.0201
    147  CD1       13.4320  -24.8410   -3.5340 C.ar  379  TYR379     -0.0009
    148  CD2       14.9190  -22.9600   -3.5600 C.ar  379  TYR379     -0.0009
    149  CE1       13.4870  -24.8970   -4.9740 C.ar  379  TYR379      0.0417
    150  CE2       14.9670  -23.0040   -4.9840 C.ar  379  TYR379      0.0417
    151  CZ        14.2500  -23.9810   -5.6630 C.ar  379  TYR379      0.1957
    152  OH        14.2820  -24.0650   -7.0600 O.3   379  TYR379     -0.2866
    153  N         13.8990  -29.8990   -3.6430 N.3   458  ASN458     -0.1240
    154  CA        14.6190  -28.9150   -4.4270 C.3   458  ASN458      0.1653
    155  C         15.2750  -29.5800   -5.6150 C.2   458  ASN458      0.2266
    156  O         15.3540  -28.9650   -6.6810 O.2   458  ASN458     -0.2867
    157  CB        15.6730  -28.2130   -3.5990 C.3   458  ASN458      0.1155
    158  CG        16.6980  -27.4430   -4.4440 C.2   458  ASN458      0.2627
    159  OD1       17.7320  -27.9840   -4.8320 O.2   458  ASN458     -0.2716
    160  ND2       16.4620  -26.1640   -4.6290 N.am  458  ASN458     -0.0877
    161  N         16.2240  -27.6710   -9.3000 N.3   462  GLN462     -0.1245
    162  CA        17.5920  -27.2590   -9.5890 C.3   462  GLN462      0.1566
    163  C         18.2430  -28.2130  -10.5910 C.2   462  GLN462      0.2260
    164  O         18.9480  -27.7760  -11.5110 O.2   462  GLN462     -0.2867
    165  CB        18.3960  -27.1980   -8.2840 C.3   462  GLN462      0.0367
    166  CG        19.7870  -26.6140   -8.4800 C.3   462  GLN462      0.0905
    167  CD        20.6260  -26.7460   -7.2560 C.2   462  GLN462      0.2608
    168  OE1       21.6440  -27.4670   -7.2570 O.2   462  GLN462     -0.2717
    169  NE2       20.2160  -26.0460   -6.1810 N.am  462  GLN462     -0.0878
    170  N         25.8170  -21.8570  -13.9560 N.3   492  HIS492     -0.1226
    171  CA        24.5560  -22.5460  -13.6590 C.3   492  HIS492      0.1752
    172  C         23.3980  -22.2890  -14.6030 C.2   492  HIS492      0.2596
    173  O         22.8610  -23.2490  -15.1640 O.2   492  HIS492     -0.2718
    174  CB        24.1460  -22.2710  -12.2050 C.3   492  HIS492      0.0759
    175  CG        25.2730  -22.4480  -11.2620 C.ar  492  HIS492      0.0818
    176  ND1       25.9280  -23.6530  -11.1140 N.ar  492  HIS492     -0.2268
    177  CD2       25.9410  -21.5520  -10.4910 C.ar  492  HIS492      0.1154
    178  CE1       26.9110  -23.5040  -10.2370 C.ar  492  HIS492      0.1986
    179  NE2       26.9550  -22.2320   -9.8670 N.ar  492  HIS492     -0.2212
    180  N         22.9860  -21.0530  -14.7970 N.am  493  ASP493     -0.1974
    181  CA        21.9650  -20.7790  -15.7950 C.3   493  ASP493      0.1709
    182  C         22.4470  -19.7290  -16.7950 C.2   493  ASP493      0.2293
    183  O         21.6230  -19.1200  -17.4880 O.2   493  ASP493     -0.2864
    184  CB        20.6800  -20.3210  -15.1230 C.3   493  ASP493      0.1436
    185  CG        20.7490  -18.8850  -14.7670 C.2   493  ASP493      0.3671
    186  OD1       21.8580  -18.4460  -14.3350 O.co2 493  ASP493     -0.2456
    187  OD2       19.7340  -18.1880  -14.9940 O.co2 493  ASP493     -0.2456
    188  N         18.1530  -13.6910  -21.5600 N.3   528  GLU528     -0.1245
    189  CA        18.6700  -12.3380  -21.7030 C.3   528  GLU528      0.1567
    190  C         20.0960  -12.4290  -22.2170 C.2   528  GLU528      0.2260
    191  O         20.9010  -13.1910  -21.6850 O.2   528  GLU528     -0.2867
    192  CB        18.6540  -11.5760  -20.3730 C.3   528  GLU528      0.0388
    193  CG        17.2870  -11.2280  -19.8050 C.3   528  GLU528      0.1160
    194  CD        16.6170  -10.0910  -20.5400 C.2   528  GLU528      0.3649
    195  OE1       16.5540  -10.1350  -21.7840 O.co2 528  GLU528     -0.2457
    196  OE2       16.1550   -9.1490  -19.8680 O.co2 528  GLU528     -0.2457
@<TRIPOS>BOND
     1   190   189    1
     2   190   191    2
     3    49    48    1
     4   195   194   ar
     5   189   188    1
     6   189   192    1
     7    46    48   ar
     8    46    44   ar
     9    48    47   ar
    10   194   196   ar
    11   194   193    1
    12   192   193    1
    13    44    43   ar
    14    47    45   ar
    15    30    31    1
    16    33    32    2
    17    43    45   ar
    18    43    42    1
    19    32    31    1
    20    32    38   am
    21    31    34    1
    22    39    38    1
    23    39    42    1
    24    39    40    1
    25    54    55    1
    26    54    51    1
    27    50    40   am
    28    50    51    1
    29    34    35    1
    30    40    41    2
    31   183   182    2
    32    51    52    1
    33    72    70    1
    34   182   181    1
    35    53    52    2
    36    35    36   ar
    37    35    37   ar
    38    52    56   am
    39   181   184    1
    40   181   180    1
    41    70    69    1
    42    64    62   am
    43    69    66    1
    44    69    71    1
    45   173   172    2
    46   184   185    1
    47   187   185   ar
    48    56    57    1
    49    66    65    1
    50    66    67    1
    51   180   172   am
    52   185   186   ar
    53   172   171    1
    54    68    67    2
    55    65    58   am
    56    62    61    1
    57    62    63    2
    58    58    59    2
    59    58    57    1
    60   170   171    1
    61    61    60    1
    62    67    73   am
    63    60    57    1
    64   171   174    1
    65   101   100    1
    66   100   102    1
    67   100    99    2
    68    73    74    1
    69    99    98    1
    70   174   175    1
    71    98    97    1
    72    74    75    1
    73    74    77    1
    74     3     2    1
    75     3     4    2
    76    75    76    2
    77   164   163    2
    78     2     1    1
    79     2     5    1
    80   175   176   ar
    81   175   177   ar
    82   176   178   ar
    83    18    16    1
    84   122   121    1
    85    78    77    1
    86    78    79    1
    87   163   162    1
    88    89    91   ar
    89    89    87   ar
    90   177   179   ar
    91    97    96    1
    92     6     5    1
    93     6     7    1
    94   178   179   ar
    95    91    90   ar
    96   121   120    1
    97   112   111    1
    98    81    79   ar
    99    16    17    1
   100    16    13    1
   101    82    83    1
   102    87    86    1
   103    87    88   ar
   104    86    83    1
   105    96    93    1
   106    79    80   ar
   107   162   161    1
   108   162   165    1
   109     8     7    1
   110     8     9    2
   111    84    83    1
   112    84    85    2
   113   120   119    1
   114    90    88   ar
   115    11     9    1
   116   111   113    1
   117   111   110    2
   118     9    10    1
   119    13    14    1
   120    13    12    1
   121   140   138   ar
   122   140   139   ar
   123    15    14    2
   124   166   165    1
   125   166   167    1
   126   110   109    1
   127    93    92    1
   128    93    94    1
   129    14    19   am
   130   138   136   ar
   131   119   118    1
   132   139   137   ar
   133   108   109    1
   134   108   107    1
   135    94    95    2
   136    94   103   am
   137   103   104    1
   138   168   167    2
   139   167   169   am
   140   152   151    1
   141    19    20    1
   142   136   135   ar
   143   118   115    1
   144   156   155    2
   145   137   135   ar
   146   104   107    1
   147   104   105    1
   148    20    21    1
   149    20    23    1
   150    22    21    2
   151   135   134    1
   152   115   114    1
   153   115   116    1
   154   151   150   ar
   155   151   149   ar
   156   155   154    1
   157   105   106    2
   158   150   148   ar
   159   149   147   ar
   160    23    24    1
   161   159   158    2
   162   160   158   am
   163   134   131    1
   164   116   117    2
   165   116   123   am
   166   158   157    1
   167   154   153    1
   168   154   157    1
   169    24    25    1
   170   130   131    1
   171   131   132    1
   172   148   146   ar
   173   147   146   ar
   174   123   124    1
   175    25    26    1
   176   146   145    1
   177   132   133    2
   178   124   125    1
   179   124   127    1
   180    28    27    1
   181    26    27    2
   182   128   127    1
   183   125   126    2
   184   145   142    1
   185    27    29    1
   186   141   142    1
   187   127   129    1
   188   142   143    1
   189   143   144    2
