@<TRIPOS>MOLECULE
tmp/5nknA00.pdb
 220 208 0 0 0
SMALL
GASTEIGER

@<TRIPOS>ATOM
      1  N         -3.6010   11.0250  -11.5430 N.3    29  VAL29      -0.1245
      2  CA        -4.6810   10.1930  -11.9940 C.3    29  VAL29       0.1561
      3  C         -4.2490    8.7370  -11.6700 C.2    29  VAL29       0.2260
      4  O         -3.3170    8.2030  -12.2760 O.2    29  VAL29      -0.2867
      5  CB        -4.9840   10.4110  -13.4910 C.3    29  VAL29       0.0252
      6  CG1       -6.1420    9.5260  -13.9080 C.3    29  VAL29       0.0019
      7  CG2       -5.3420   11.8780  -13.7810 C.3    29  VAL29       0.0019
      8  N         -9.2290    5.8560  -13.7610 N.3    32  VAL32      -0.1245
      9  CA       -10.3000    6.4790  -14.5060 C.3    32  VAL32       0.1561
     10  C        -11.3210    5.4630  -15.0240 C.2    32  VAL32       0.2260
     11  O        -10.9420    4.4610  -15.6510 O.2    32  VAL32      -0.2867
     12  CB        -9.7440    7.4180  -15.5900 C.3    32  VAL32       0.0252
     13  CG1       -9.0460    6.6650  -16.7030 C.3    32  VAL32       0.0019
     14  CG2      -10.8520    8.3100  -16.1270 C.3    32  VAL32       0.0019
     15  N        -16.6750    5.6710  -22.0120 N.3    36  GLY36      -0.1210
     16  CA       -15.7230    5.8060  -23.1180 C.3    36  GLY36       0.1956
     17  C        -14.2650    5.5580  -22.7770 C.2    36  GLY36       0.2611
     18  O        -13.3840    5.9410  -23.5410 O.2    36  GLY36      -0.2717
     19  N        -14.0050    4.9610  -21.6140 N.am   37  PHE37      -0.1976
     20  CA       -12.6710    4.5200  -21.2260 C.3    37  PHE37       0.1639
     21  C        -12.7040    3.0010  -21.3310 C.2    37  PHE37       0.2290
     22  O        -13.6390    2.3660  -20.8470 O.2    37  PHE37      -0.2864
     23  CB       -12.3420    4.9530  -19.7990 C.3    37  PHE37       0.0560
     24  CG       -12.0150    6.4220  -19.6690 C.ar   37  PHE37      -0.0200
     25  CD1      -10.7160    6.8900  -19.9130 C.ar   37  PHE37      -0.0042
     26  CD2      -13.0140    7.3530  -19.3180 C.ar   37  PHE37      -0.0042
     27  CE1      -10.4270    8.2440  -19.8010 C.ar   37  PHE37      -0.0003
     28  CE2      -12.7140    8.7040  -19.1970 C.ar   37  PHE37      -0.0003
     29  CZ       -11.4290    9.1630  -19.4400 C.ar   37  PHE37      -0.0000
     30  N         -0.3610    8.2440  -17.3390 N.3    47  MET47      -0.1245
     31  CA        -1.0320    9.5480  -17.3310 C.3    47  MET47       0.1570
     32  C         -0.3040   10.4930  -16.3830 C.2    47  MET47       0.2261
     33  O          0.0470   10.1170  -15.2450 O.2    47  MET47      -0.2867
     34  CB        -2.5030    9.4060  -16.9430 C.3    47  MET47       0.0387
     35  CG        -3.3500    8.8310  -18.0700 C.3    47  MET47       0.0595
     36  SD        -5.0890    8.6160  -17.6710 S.3    47  MET47      -0.1393
     37  CE        -5.6080   10.3380  -17.6400 C.3    47  MET47       0.0692
     38  N         -2.7370   15.8500  -12.8020 N.3    50  THR50      -0.1218
     39  CA        -3.6050   16.9710  -13.0040 C.3    50  THR50       0.1862
     40  C         -3.2060   18.0130  -11.9740 C.2    50  THR50       0.2287
     41  O         -2.9170   17.6640  -10.8270 O.2    50  THR50      -0.2866
     42  CB        -5.0630   16.5490  -12.8280 C.3    50  THR50       0.1770
     43  OG1       -5.3890   15.6060  -13.8610 O.3    50  THR50      -0.2211
     44  CG2       -6.0090   17.7210  -12.9320 C.3    50  THR50       0.0375
     45  N         -4.8810   21.2870  -10.2230 N.3    52  TYR52      -0.1241
     46  CA        -6.0430   22.0940   -9.9150 C.3    52  TYR52       0.1605
     47  C         -5.5380   23.3800   -9.2470 C.2    52  TYR52       0.2264
     48  O         -4.9100   23.3270   -8.1900 O.2    52  TYR52      -0.2867
     49  CB        -6.9450   21.3460   -8.9420 C.3    52  TYR52       0.0534
     50  CG        -7.8140   20.3020   -9.6070 C.ar   52  TYR52      -0.0201
     51  CD1       -7.3550   19.0250   -9.8510 C.ar   52  TYR52      -0.0009
     52  CD2       -9.1120   20.6140   -9.9990 C.ar   52  TYR52      -0.0009
     53  CE1       -8.1720   18.0930  -10.4780 C.ar   52  TYR52       0.0417
     54  CE2       -9.9250   19.6980  -10.6090 C.ar   52  TYR52       0.0417
     55  CZ        -9.4640   18.4430  -10.8430 C.ar   52  TYR52       0.1957
     56  OH       -10.3170   17.5720  -11.4640 O.3    52  TYR52      -0.2866
     57  N         -7.6380   24.1340  -14.4050 N.3    62  VAL62      -0.1245
     58  CA        -7.3510   22.7030  -14.3560 C.3    62  VAL62       0.1561
     59  C         -6.4750   22.3960  -15.5410 C.2    62  VAL62       0.2260
     60  O         -6.8810   22.6280  -16.6670 O.2    62  VAL62      -0.2867
     61  CB        -8.6240   21.8300  -14.4110 C.3    62  VAL62       0.0252
     62  CG1       -8.2780   20.3790  -14.1020 C.3    62  VAL62       0.0019
     63  CG2       -9.6420   22.3220  -13.4120 C.3    62  VAL62       0.0019
     64  N         -4.6700   19.1870  -17.3380 N.3    64  PHE64      -0.1227
     65  CA        -4.8070   17.7330  -17.3470 C.3    64  PHE64       0.1736
     66  C         -4.3540   17.1900  -18.6840 C.2    64  PHE64       0.2595
     67  O         -4.4040   17.9160  -19.6960 O.2    64  PHE64      -0.2718
     68  CB        -6.2580   17.3230  -17.0690 C.3    64  PHE64       0.0547
     69  CG        -7.2400   17.8600  -18.0650 C.ar   64  PHE64      -0.0202
     70  CD1       -7.8350   19.1040  -17.8760 C.ar   64  PHE64      -0.0042
     71  CD2       -7.5700   17.1340  -19.1980 C.ar   64  PHE64      -0.0042
     72  CE1       -8.7450   19.5930  -18.8020 C.ar   64  PHE64      -0.0003
     73  CE2       -8.4800   17.6130  -20.1170 C.ar   64  PHE64      -0.0003
     74  CZ        -9.0620   18.8370  -19.9210 C.ar   64  PHE64      -0.0000
     75  N         -3.8750   15.9360  -18.6810 N.am   65  GLN65      -0.1965
     76  CA        -3.5120   15.2590  -19.9170 C.3    65  GLN65       0.1733
     77  C         -4.7760   14.9630  -20.7170 C.2    65  GLN65       0.2616
     78  O         -5.7440   14.4530  -20.1560 O.2    65  GLN65      -0.2715
     79  CB        -2.7700   13.9490  -19.6650 C.3    65  GLN65       0.0408
     80  CG        -2.2820   13.3650  -20.9700 C.3    65  GLN65       0.0908
     81  CD        -1.4970   12.0990  -20.8300 C.2    65  GLN65       0.2608
     82  OE1       -1.0280   11.7610  -19.7580 O.2    65  GLN65      -0.2717
     83  NE2       -1.3360   11.3900  -21.9330 N.am   65  GLN65      -0.0878
     84  N         -4.7430   15.2650  -22.0160 N.am   66  LYS66      -0.1963
     85  CA        -5.9130   15.1390  -22.8990 C.3    66  LYS66       0.1728
     86  C         -6.3070   13.7010  -23.2260 C.2    66  LYS66       0.2616
     87  O         -5.4500   12.8390  -23.4120 O.2    66  LYS66      -0.2715
     88  CB        -5.6690   15.8090  -24.2390 C.3    66  LYS66       0.0311
     89  CG        -5.4430   17.2950  -24.2020 C.3    66  LYS66       0.0038
     90  CD        -5.1520   17.8220  -25.6040 C.3    66  LYS66       0.0206
     91  CE        -6.4270   17.9890  -26.4240 C.3    66  LYS66       0.1093
     92  NZ        -6.1860   18.6520  -27.7370 N.3    66  LYS66      -0.1314
     93  N         -7.6180   13.4880  -23.3340 N.am   67  PHE67      -0.1974
     94  CA        -8.2050   12.2580  -23.8600 C.3    67  PHE67       0.1639
     95  C         -7.9150   12.1670  -25.3690 C.2    67  PHE67       0.2290
     96  O         -7.9710   13.1950  -26.0430 O.2    67  PHE67      -0.2864
     97  CB        -9.7160   12.2860  -23.5990 C.3    67  PHE67       0.0560
     98  CG       -10.4080   11.0240  -23.9800 C.ar   67  PHE67      -0.0200
     99  CD1      -10.3500    9.9200  -23.1490 C.ar   67  PHE67      -0.0042
    100  CD2      -11.0950   10.9280  -25.1870 C.ar   67  PHE67      -0.0042
    101  CE1      -10.9530    8.7300  -23.5170 C.ar   67  PHE67      -0.0003
    102  CE2      -11.7120    9.7410  -25.5600 C.ar   67  PHE67      -0.0003
    103  CZ       -11.6450    8.6420  -24.7220 C.ar   67  PHE67      -0.0000
    104  N         -5.3070   10.1180  -24.4150 N.3    69  MET69      -0.1245
    105  CA        -4.0260    9.8270  -23.7530 C.3    69  MET69       0.1570
    106  C         -3.0290    9.0530  -24.6090 C.2    69  MET69       0.2261
    107  O         -2.2600    8.2520  -24.0730 O.2    69  MET69      -0.2867
    108  CB        -4.2420    9.0650  -22.4280 C.3    69  MET69       0.0387
    109  CG        -5.1680    9.7380  -21.4330 C.3    69  MET69       0.0595
    110  SD        -6.9140    9.4190  -21.6980 S.3    69  MET69      -0.1393
    111  CE        -7.0050    7.6390  -21.4790 C.3    69  MET69       0.0692
    112  N         -3.7670   20.1180  -21.3590 N.3    75  MET75      -0.1245
    113  CA        -4.7970   21.0770  -21.7380 C.3    75  MET75       0.1570
    114  C         -5.2600   21.7670  -20.4710 C.2    75  MET75       0.2261
    115  O         -5.1450   21.1980  -19.3870 O.2    75  MET75      -0.2867
    116  CB        -5.9590   20.3480  -22.4180 C.3    75  MET75       0.0387
    117  CG        -6.8780   21.2480  -23.2390 C.3    75  MET75       0.0595
    118  SD        -8.4710   20.4740  -23.5780 S.3    75  MET75      -0.1393
    119  CE        -9.2690   21.7120  -24.6040 C.3    75  MET75       0.0692
    120  N         -8.5680   24.0080  -18.7150 N.3    77  ASP77      -0.1239
    121  CA        -9.9620   24.4540  -18.7040 C.3    77  ASP77       0.1674
    122  C        -10.2210   25.2880  -17.4480 C.2    77  ASP77       0.2266
    123  O         -9.3890   25.3770  -16.5340 O.2    77  ASP77      -0.2867
    124  CB       -10.9180   23.2490  -18.7090 C.3    77  ASP77       0.1410
    125  CG       -11.1870   22.7060  -20.1030 C.2    77  ASP77       0.3668
    126  OD1      -11.7740   23.4260  -20.9340 O.co2  77  ASP77      -0.2456
    127  OD2      -10.8300   21.5480  -20.3620 O.co2  77  ASP77      -0.2456
    128  N        -17.0490   22.3920  -16.0290 N.3    90  LEU90      -0.1245
    129  CA       -15.8250   22.4620  -16.7720 C.3    90  LEU90       0.1561
    130  C        -16.2200   22.8070  -18.2030 C.2    90  LEU90       0.2260
    131  O        -16.8270   21.9890  -18.8940 O.2    90  LEU90      -0.2867
    132  CB       -15.1220   21.0970  -16.7180 C.3    90  LEU90       0.0270
    133  CG       -13.6780   21.0730  -17.2440 C.3    90  LEU90       0.0019
    134  CD1      -12.7450   21.7680  -16.2710 C.3    90  LEU90       0.0001
    135  CD2      -13.2010   19.6560  -17.4680 C.3    90  LEU90       0.0001
    136  N        -14.1080   18.7810  -31.3130 N.3    98  GLY98      -0.1225
    137  CA       -14.6350   17.9470  -30.2300 C.3    98  GLY98       0.1811
    138  C        -14.9530   18.8410  -29.0440 C.2    98  GLY98       0.2280
    139  O        -14.0390   19.3110  -28.3600 O.2    98  GLY98      -0.2866
    140  N        -17.6370   19.5770  -25.6510 N.3   100  THR100     -0.1218
    141  CA       -18.7220   19.5750  -24.6690 C.3   100  THR100      0.1862
    142  C        -18.2680   20.1100  -23.3300 C.2   100  THR100      0.2287
    143  O        -17.0830   20.0720  -23.0160 O.2   100  THR100     -0.2866
    144  CB       -19.3440   18.1770  -24.4340 C.3   100  THR100      0.1770
    145  OG1      -20.4290   18.3030  -23.5010 O.3   100  THR100     -0.2211
    146  CG2      -18.3260   17.1820  -23.9060 C.3   100  THR100      0.0375
    147  N        -18.8910   19.8310  -19.0750 N.3   102  TRP102     -0.1241
    148  CA       -19.0680   18.7860  -18.0920 C.3   102  TRP102      0.1605
    149  C        -19.4960   19.3600  -16.7730 C.2   102  TRP102      0.2264
    150  O        -18.9850   20.3740  -16.3260 O.2   102  TRP102     -0.2867
    151  CB       -17.7610   18.0010  -17.8820 C.3   102  TRP102      0.0550
    152  CG       -17.2400   17.3960  -19.1440 C.ar  102  TRP102      0.0003
    153  CD1      -16.5640   18.0410  -20.1340 C.ar  102  TRP102      0.0946
    154  CD2      -17.3440   16.0270  -19.5570 C.ar  102  TRP102      0.0152
    155  NE1      -16.2560   17.1780  -21.1370 N.ar  102  TRP102     -0.2442
    156  CE2      -16.7120   15.9290  -20.8190 C.ar  102  TRP102      0.0810
    157  CE3      -17.9110   14.8790  -18.9960 C.ar  102  TRP102      0.0012
    158  CZ2      -16.6360   14.7170  -21.5370 C.ar  102  TRP102      0.0191
    159  CZ3      -17.8260   13.6660  -19.7100 C.ar  102  TRP102      0.0001
    160  CH2      -17.2010   13.5980  -20.9610 C.ar  102  TRP102      0.0015
    161  N        -17.7640   13.2770  -13.4370 N.3   119  PHE119     -0.1241
    162  CA       -17.8720   14.1760  -14.5560 C.3   119  PHE119      0.1605
    163  C        -19.0080   13.6970  -15.4480 C.2   119  PHE119      0.2264
    164  O        -18.9960   12.5400  -15.8500 O.2   119  PHE119     -0.2867
    165  CB       -16.5950   14.1350  -15.3680 C.3   119  PHE119      0.0534
    166  CG       -15.3640   14.6160  -14.6320 C.ar  119  PHE119     -0.0203
    167  CD1      -14.7090   13.7940  -13.7300 C.ar  119  PHE119     -0.0042
    168  CD2      -14.8370   15.8730  -14.8860 C.ar  119  PHE119     -0.0042
    169  CE1      -13.5550   14.2020  -13.0730 C.ar  119  PHE119     -0.0003
    170  CE2      -13.6650   16.2870  -14.2440 C.ar  119  PHE119     -0.0003
    171  CZ       -13.0280   15.4530  -13.3250 C.ar  119  PHE119     -0.0000
    172  N        -25.7640   12.9440  -25.0550 N.3   126  ARG126     -0.1245
    173  CA       -24.5430   12.2950  -24.5640 C.3   126  ARG126      0.1563
    174  C        -24.7800   11.6750  -23.1900 C.2   126  ARG126      0.2260
    175  O        -25.1190   12.3510  -22.2090 O.2   126  ARG126     -0.2867
    176  CB       -23.3240   13.2430  -24.5720 C.3   126  ARG126      0.0307
    177  CG       -22.5950   13.2330  -25.9170 C.3   126  ARG126      0.0489
    178  CD       -21.3720   14.1400  -25.9780 C.3   126  ARG126      0.2205
    179  NE       -20.1060   13.4310  -25.7440 N.pl3 126  ARG126     -0.0865
    180  CZ       -18.8860   13.9060  -26.0270 C.cat 126  ARG126      0.5346
    181  NH1      -18.7110   15.1190  -26.5670 N.pl3 126  ARG126      0.1354
    182  NH2      -17.8160   13.1560  -25.7630 N.pl3 126  ARG126      0.1354
    183  N        -22.2700   10.4010  -21.8430 N.3   128  ASP128     -0.1239
    184  CA       -20.8820   10.3320  -21.4120 C.3   128  ASP128      0.1674
    185  C        -20.7230   10.7660  -19.9650 C.2   128  ASP128      0.2266
    186  O        -21.1830   11.8290  -19.5400 O.2   128  ASP128     -0.2867
    187  CB       -19.9290   11.1340  -22.3290 C.3   128  ASP128      0.1410
    188  CG       -18.8990   10.2580  -23.0370 C.2   128  ASP128      0.3668
    189  OD1      -18.5790    9.1500  -22.5410 O.co2 128  ASP128     -0.2456
    190  OD2      -18.3800   10.6970  -24.0910 O.co2 128  ASP128     -0.2456
    191  N        -17.7150    9.9310  -16.5860 N.3   130  PHE130     -0.1241
    192  CA       -16.5680    9.2330  -16.0560 C.3   130  PHE130      0.1605
    193  C        -16.2760    9.6760  -14.6290 C.2   130  PHE130      0.2264
    194  O        -16.7640   10.7350  -14.1700 O.2   130  PHE130     -0.2867
    195  CB       -15.3450    9.3950  -16.9750 C.3   130  PHE130      0.0534
    196  CG       -14.8040   10.7960  -17.0620 C.ar  130  PHE130     -0.0203
    197  CD1      -15.3200   11.6960  -17.9690 C.ar  130  PHE130     -0.0042
    198  CD2      -13.7220   11.1810  -16.2930 C.ar  130  PHE130     -0.0042
    199  CE1      -14.7960   12.9780  -18.0790 C.ar  130  PHE130     -0.0003
    200  CE2      -13.1950   12.4530  -16.3840 C.ar  130  PHE130     -0.0003
    201  CZ       -13.7310   13.3570  -17.2770 C.ar  130  PHE130     -0.0000
    202  N        -12.9860    9.8880  -11.9320 N.3   132  THR132     -0.1218
    203  CA       -11.5390    9.9190  -11.7520 C.3   132  THR132      0.1862
    204  C        -11.2140    9.6540  -10.2730 C.2   132  THR132      0.2287
    205  O        -11.8190   10.2160   -9.3780 O.2   132  THR132     -0.2866
    206  CB       -10.9410   11.2660  -12.2170 C.3   132  THR132      0.1770
    207  OG1      -11.3210   11.5140  -13.5780 O.3   132  THR132     -0.2211
    208  CG2       -9.4420   11.2690  -12.1740 C.3   132  THR132      0.0375
    209  N         -8.2780   10.2230   -7.9220 N.3   134  TYR134     -0.1241
    210  CA        -7.0620   10.9880   -7.7920 C.3   134  TYR134      0.1605
    211  C         -6.3040   10.6050   -6.5120 C.2   134  TYR134      0.2264
    212  O         -6.9190   10.3270   -5.4900 O.2   134  TYR134     -0.2867
    213  CB        -7.3870   12.4760   -7.7010 C.3   134  TYR134      0.0534
    214  CG        -7.9110   13.1630   -8.9370 C.ar  134  TYR134     -0.0201
    215  CD1       -7.1230   13.2920  -10.0800 C.ar  134  TYR134     -0.0009
    216  CD2       -9.1800   13.7800   -8.9280 C.ar  134  TYR134     -0.0009
    217  CE1       -7.5910   13.9630  -11.1970 C.ar  134  TYR134      0.0417
    218  CE2       -9.6480   14.4760  -10.0310 C.ar  134  TYR134      0.0417
    219  CZ        -8.8570   14.5570  -11.1570 C.ar  134  TYR134      0.1957
    220  OH        -9.3450   15.2250  -12.2310 O.3   134  TYR134     -0.2866
@<TRIPOS>BOND
     1   136   137    1
     2   137   138    1
     3   138   139    2
     4    92    91    1
     5   181   180    1
     6    91    90    1
     7    96    95    2
     8   180   182    1
     9   180   179    2
    10   178   177    1
    11   178   179    1
    12   177   176    1
    13   140   141    1
    14    90    89    1
    15   102   100   ar
    16   102   103   ar
    17    95    94    1
    18   100    98   ar
    19   172   173    1
    20   103   101   ar
    21   141   144    1
    22   141   142    1
    23   106   107    2
    24   106   105    1
    25   119   118    1
    26   176   173    1
    27   173   174    1
    28   144   146    1
    29   144   145    1
    30   104   105    1
    31    88    89    1
    32    88    85    1
    33   190   188   ar
    34    98    97    1
    35    98    99   ar
    36    94    97    1
    37    94    93    1
    38   105   108    1
    39   118   117    1
    40    18    17    2
    41   101    99   ar
    42    87    86    2
    43    93    86   am
    44   142   143    2
    45   117   116    1
    46    86    85    1
    47   174   175    2
    48    16    17    1
    49    16    15    1
    50   188   189   ar
    51   188   187    1
    52    85    84    1
    53    17    19   am
    54   108   109    1
    55   116   113    1
    56   187   184    1
    57    84    77   am
    58    83    81   am
    59   183   184    1
    60   113   112    1
    61   113   114    1
    62   110   111    1
    63   110   109    1
    64    19    20    1
    65   158   160   ar
    66   158   156   ar
    67   184   185    1
    68    21    20    1
    69    21    22    2
    70    20    23    1
    71   155   156   ar
    72   155   153   ar
    73    80    81    1
    74    80    79    1
    75   160   159   ar
    76   126   125   ar
    77    81    82    2
    78   156   154   ar
    79    77    78    2
    80    77    76    1
    81   114   115    2
    82   127   125   ar
    83   153   152   ar
    84    73    74   ar
    85    73    71   ar
    86   125   124    1
    87   185   186    2
    88    74    72   ar
    89    76    79    1
    90    76    75    1
    91    25    27   ar
    92    25    24   ar
    93    27    29   ar
    94    23    24    1
    95   159   157   ar
    96    67    66    2
    97    24    26   ar
    98   154   152   ar
    99   154   157   ar
   100    29    28   ar
   101    26    28   ar
   102    71    69   ar
   103   152   151    1
   104   147   148    1
   105   131   130    2
   106    72    70   ar
   107   120   121    1
   108   124   121    1
   109   121   122    1
   110    66    75   am
   111    66    65    1
   112   130   129    1
   113   148   151    1
   114   148   149    1
   115   199   197   ar
   116   199   201   ar
   117    35    36    1
   118    35    34    1
   119    69    70   ar
   120    69    68    1
   121   197   196   ar
   122    36    37    1
   123   135   133    1
   124   122   123    2
   125    65    64    1
   126    65    68    1
   127    30    31    1
   128    31    34    1
   129    31    32    1
   130   201   200   ar
   131   133   132    1
   132   133   134    1
   133   196   195    1
   134   196   198   ar
   135   195   192    1
   136   149   150    2
   137   129   132    1
   138   129   128    1
   139    13    12    1
   140    60    59    2
   141   191   192    1
   142   200   198   ar
   143    32    33    2
   144    14    12    1
   145   192   193    1
   146   164   163    2
   147    11    10    2
   148    12     9    1
   149    59    58    1
   150   163   162    1
   151   165   166    1
   152   165   162    1
   153    10     9    1
   154   168   166   ar
   155   168   170   ar
   156   166   167   ar
   157   193   194    2
   158   162   161    1
   159     9     8    1
   160    61    58    1
   161    61    62    1
   162    61    63    1
   163    57    58    1
   164   170   171   ar
   165     6     5    1
   166    43    42    1
   167     7     5    1
   168   167   169   ar
   169   207   206    1
   170     5     2    1
   171   171   169   ar
   172    39    42    1
   173    39    38    1
   174    39    40    1
   175    44    42    1
   176     4     3    2
   177   220   219    1
   178   206   208    1
   179   206   203    1
   180     2     3    1
   181     2     1    1
   182    40    41    2
   183   202   203    1
   184   203   204    1
   185    56    55    1
   186   217   219   ar
   187   217   215   ar
   188   219   218   ar
   189    55    54   ar
   190    55    53   ar
   191    54    52   ar
   192    53    51   ar
   193   204   205    2
   194    45    46    1
   195   215   214   ar
   196   218   216   ar
   197    52    50   ar
   198    46    47    1
   199    46    49    1
   200    51    50   ar
   201    50    49    1
   202    47    48    2
   203   214   216   ar
   204   214   213    1
   205   209   210    1
   206   210   213    1
   207   210   211    1
   208   211   212    2
