@<TRIPOS>MOLECULE
tmp/5nlkA00.pdb
 139 134 0 0 0
SMALL
GASTEIGER

@<TRIPOS>ATOM
      1  N         14.0760    3.8780    0.9970 N.3    24  PRO24      -0.2116
      2  CA        13.9660    4.7110    2.2040 C.3    24  PRO24       0.1372
      3  C         12.5840    5.2720    2.5470 C.2    24  PRO24       0.2244
      4  O         12.4620    6.0030    3.5420 O.2    24  PRO24      -0.2868
      5  CB        14.9120    5.8680    1.8870 C.3    24  PRO24       0.0268
      6  CG        14.7590    6.0340    0.4130 C.3    24  PRO24       0.0207
      7  CD        14.6720    4.6220   -0.1260 C.3    24  PRO24       0.0892
      8  N         11.2640    5.3260    6.1070 N.3    27  LEU27      -0.1231
      9  CA        12.1200    5.7870    7.1990 C.3    27  LEU27       0.1678
     10  C         11.5420    6.9540    7.9950 C.2    27  LEU27       0.2434
     11  O         11.6860    6.9470    9.2300 O.2    27  LEU27      -0.2733
     12  CB        13.5100    6.1420    6.6550 C.3    27  LEU27       0.0284
     13  CG        14.2940    4.9480    6.1000 C.3    27  LEU27       0.0019
     14  CD1       15.6840    5.3730    5.6520 C.3    27  LEU27       0.0001
     15  CD2       14.3800    3.8700    7.1580 C.3    27  LEU27       0.0001
     16  N         10.9170    7.9730    7.3930 N.am   28  PRO28      -0.2718
     17  CA        10.3000    9.0280    8.2160 C.3    28  PRO28       0.1535
     18  C          9.1270    8.5500    9.0490 C.2    28  PRO28       0.2598
     19  O          8.6340    9.3300    9.8720 O.2    28  PRO28      -0.2715
     20  CB         9.8410   10.0670    7.1780 C.3    28  PRO28       0.0310
     21  CG        10.6900    9.7990    5.9540 C.3    28  PRO28       0.0237
     22  CD        10.8460    8.2990    5.9570 C.3    28  PRO28       0.0939
     23  N          8.6650    7.3090    8.8570 N.am   29  PHE29      -0.1974
     24  CA         7.4160    6.8190    9.4210 C.3    29  PHE29       0.1639
     25  C          7.5930    5.6820   10.4100 C.2    29  PHE29       0.2290
     26  O          6.5990    5.2510   11.0070 O.2    29  PHE29      -0.2864
     27  CB         6.4750    6.3610    8.2990 C.3    29  PHE29       0.0560
     28  CG         6.1740    7.4450    7.3170 C.ar   29  PHE29      -0.0200
     29  CD1        5.2140    8.3950    7.6030 C.ar   29  PHE29      -0.0042
     30  CD2        6.8970    7.5500    6.1360 C.ar   29  PHE29      -0.0042
     31  CE1        4.9540    9.4170    6.7090 C.ar   29  PHE29      -0.0003
     32  CE2        6.6430    8.5750    5.2350 C.ar   29  PHE29      -0.0003
     33  CZ         5.6670    9.4970    5.5210 C.ar   29  PHE29      -0.0000
     34  N          9.0360    5.6210   13.3470 N.3    31  GLN31      -0.1245
     35  CA         9.0260    6.0400   14.7360 C.3    31  GLN31       0.1566
     36  C          8.1580    7.2850   14.8230 C.2    31  GLN31       0.2260
     37  O          7.9720    7.9750   13.8170 O.2    31  GLN31      -0.2867
     38  CB        10.4480    6.3290   15.2510 C.3    31  GLN31       0.0367
     39  CG        11.2520    7.3690   14.4580 C.3    31  GLN31       0.0905
     40  CD        11.6510    6.9010   13.0620 C.2    31  GLN31       0.2608
     41  OE1       12.1730    5.7920   12.8830 O.2    31  GLN31      -0.2717
     42  NE2       11.3830    7.7330   12.0620 N.am   31  GLN31      -0.0878
     43  N          6.9490   11.0040   15.1310 N.3    33  VAL33      -0.1245
     44  CA         7.5990   12.2700   14.8260 C.3    33  VAL33       0.1561
     45  C          8.1550   12.8720   16.1080 C.2    33  VAL33       0.2260
     46  O          7.4480   12.9780   17.1160 O.2    33  VAL33      -0.2867
     47  CB         6.6040   13.2340   14.1650 C.3    33  VAL33       0.0252
     48  CG1        7.2530   14.6070   13.9630 C.3    33  VAL33       0.0019
     49  CG2        6.1000   12.6630   12.8450 C.3    33  VAL33       0.0019
     50  N         13.9350   16.7190   17.7200 N.3    37  LEU37      -0.1231
     51  CA        15.0540   16.1470   16.9790 C.3    37  LEU37       0.1693
     52  C         15.0600   16.6020   15.5260 C.2    37  LEU37       0.2591
     53  O         16.1270   16.8220   14.9430 O.2    37  LEU37      -0.2718
     54  CB        15.0040   14.6230   17.0490 C.3    37  LEU37       0.0284
     55  CG        16.0540   13.9020   16.2050 C.3    37  LEU37       0.0019
     56  CD1       17.4410   14.0840   16.8010 C.3    37  LEU37       0.0001
     57  CD2       15.7060   12.4230   16.0630 C.3    37  LEU37       0.0001
     58  N         13.8870   16.7340   14.9170 N.am   38  LEU38      -0.1980
     59  CA        13.8090   17.0080   13.4880 C.3    38  LEU38       0.1596
     60  C         13.8300   18.4940   13.1580 C.2    38  LEU38       0.2287
     61  O         13.9190   18.8490   11.9750 O.2    38  LEU38      -0.2864
     62  CB        12.5460   16.3590   12.9060 C.3    38  LEU38       0.0297
     63  CG        12.5040   14.8330   12.9700 C.3    38  LEU38       0.0022
     64  CD1       11.1020   14.3430   12.6980 C.3    38  LEU38       0.0001
     65  CD2       13.4800   14.2450   11.9640 C.3    38  LEU38       0.0001
     66  N         11.3750   20.7580   13.7420 N.3    40  ILE40      -0.1245
     67  CA        10.0740   21.1900   13.2430 C.3    40  ILE40       0.1561
     68  C          9.1600   21.4740   14.4320 C.2    40  ILE40       0.2260
     69  O          8.1890   20.7430   14.6650 O.2    40  ILE40      -0.2867
     70  CB         9.4810   20.1450   12.2860 C.3    40  ILE40       0.0252
     71  CG1        9.5040   18.7440   12.9060 C.3    40  ILE40       0.0019
     72  CG2       10.2570   20.1320   10.9680 C.3    40  ILE40       0.0019
     73  CD1        8.7750   17.7190   12.0780 C.3    40  ILE40       0.0001
     74  N          5.1200   21.2250   14.5560 N.3    43  TYR43      -0.1241
     75  CA         4.4280   19.9990   14.1620 C.3    43  TYR43       0.1605
     76  C          3.0920   19.8450   14.8750 C.2    43  TYR43       0.2264
     77  O          2.0580   19.6020   14.2450 O.2    43  TYR43      -0.2867
     78  CB         5.3020   18.7710   14.4380 C.3    43  TYR43       0.0534
     79  CG         4.6570   17.5390   13.8750 C.ar   43  TYR43      -0.0201
     80  CD1        4.6590   17.3060   12.5010 C.ar   43  TYR43      -0.0009
     81  CD2        4.0240   16.6150   14.6940 C.ar   43  TYR43      -0.0009
     82  CE1        4.0610   16.1900   11.9710 C.ar   43  TYR43       0.0417
     83  CE2        3.4130   15.4990   14.1680 C.ar   43  TYR43       0.0417
     84  CZ         3.4360   15.2860   12.8100 C.ar   43  TYR43       0.1957
     85  OH         2.8200   14.1650   12.2880 O.3    43  TYR43      -0.2866
     86  N          0.9500   13.3380    7.3230 N.3    82  ALA82      -0.1245
     87  CA         2.1320   13.7210    6.5570 C.3    82  ALA82       0.1562
     88  C          1.7640   14.6040    5.3740 C.2    82  ALA82       0.2260
     89  O          2.4840   15.5610    5.0590 O.2    82  ALA82      -0.2867
     90  CB         2.8840   12.4820    6.0760 C.3    82  ALA82       0.0290
     91  N          1.0550   18.1310    7.0250 N.3    85  TYR85      -0.1227
     92  CA         2.1410   18.9230    7.5860 C.3    85  TYR85       0.1736
     93  C          3.1920   19.2990    6.5400 C.2    85  TYR85       0.2595
     94  O          3.7670   20.3950    6.5980 O.2    85  TYR85      -0.2718
     95  CB         2.8050   18.1710    8.7460 C.3    85  TYR85       0.0548
     96  CG         3.9630   18.9800    9.2780 C.ar   85  TYR85      -0.0200
     97  CD1        3.7370   20.0520   10.1340 C.ar   85  TYR85      -0.0009
     98  CD2        5.2740   18.7140    8.8810 C.ar   85  TYR85      -0.0009
     99  CE1        4.7810   20.8310   10.5920 C.ar   85  TYR85       0.0417
    100  CE2        6.3270   19.4840    9.3460 C.ar   85  TYR85       0.0417
    101  CZ         6.0700   20.5420   10.2020 C.ar   85  TYR85       0.1957
    102  OH         7.0950   21.3290   10.6630 O.3    85  TYR85      -0.2866
    103  N          3.4750   18.4090    5.5930 N.am   86  ASN86      -0.1974
    104  CA         4.6120   18.5570    4.6960 C.3    86  ASN86       0.1688
    105  C          4.1960   19.1310    3.3470 C.2    86  ASN86       0.2292
    106  O          3.0930   18.8770    2.8620 O.2    86  ASN86      -0.2864
    107  CB         5.2880   17.2000    4.5050 C.3    86  ASN86       0.1181
    108  CG         5.8080   16.6420    5.8020 C.2    86  ASN86       0.2629
    109  OD1        6.9100   16.9900    6.2370 O.2    86  ASN86      -0.2716
    110  ND2        5.0090   15.7860    6.4510 N.am   86  ASN86      -0.0877
    111  N         10.4140   15.7540    0.6720 N.3    91  ARG91      -0.1231
    112  CA        10.7570   14.3430    0.8250 C.3    91  ARG91       0.1694
    113  C          9.6380   13.5550    1.4950 C.2    91  ARG91       0.2591
    114  O          9.1960   12.5240    0.9860 O.2    91  ARG91      -0.2718
    115  CB        12.0310   14.2060    1.6560 C.3    91  ARG91       0.0321
    116  CG        12.3470   12.7560    1.9900 C.3    91  ARG91       0.0489
    117  CD        12.8450   12.6230    3.4050 C.3    91  ARG91       0.2205
    118  NE        13.9730   13.4960    3.6770 N.pl3  91  ARG91      -0.0865
    119  CZ        15.2320   13.2250    3.3440 C.cat  91  ARG91       0.5346
    120  NH1       16.1970   14.0890    3.6440 N.pl3  91  ARG91       0.1354
    121  NH2       15.5300   12.0940    2.7180 N.pl3  91  ARG91       0.1354
    122  N          9.1910   14.0070    2.6630 N.am   92  VAL92      -0.1980
    123  CA         8.2410   13.2110    3.4330 C.3    92  VAL92       0.1595
    124  C          6.9140   13.0790    2.6950 C.2    92  VAL92       0.2287
    125  O          6.2860   12.0130    2.6980 O.2    92  VAL92      -0.2864
    126  CB         8.0630   13.8220    4.8340 C.3    92  VAL92       0.0276
    127  CG1        7.0180   13.0440    5.6120 C.3    92  VAL92       0.0022
    128  CG2        9.3860   13.8040    5.5540 C.3    92  VAL92       0.0022
    129  N          7.5190   10.5310   -0.0820 N.3    95  PHE95      -0.1241
    130  CA         7.6220    9.1930    0.4940 C.3    95  PHE95       0.1605
    131  C          6.2650    8.7130    0.9840 C.2    95  PHE95       0.2264
    132  O          5.9200    7.5330    0.8510 O.2    95  PHE95      -0.2867
    133  CB         8.6250    9.1850    1.6510 C.3    95  PHE95       0.0534
    134  CG        10.0690    9.2350    1.2290 C.ar   95  PHE95      -0.0203
    135  CD1       10.4330    9.4560   -0.0960 C.ar   95  PHE95      -0.0042
    136  CD2       11.0730    9.0670    2.1750 C.ar   95  PHE95      -0.0042
    137  CE1       11.7720    9.4930   -0.4650 C.ar   95  PHE95      -0.0003
    138  CE2       12.4140    9.1080    1.8130 C.ar   95  PHE95      -0.0003
    139  CZ        12.7650    9.3160    0.4970 C.ar   95  PHE95      -0.0000
@<TRIPOS>BOND
     1   137   135   ar
     2   137   139   ar
     3     7     6    1
     4     7     1    1
     5   135   134   ar
     6   129   130    1
     7     6     5    1
     8   130   131    1
     9   130   133    1
    10   139   138   ar
    11   111   112    1
    12   112   113    1
    13   112   115    1
    14   132   131    2
    15   114   113    2
    16     1     2    1
    17   134   133    1
    18   134   136   ar
    19   113   122   am
    20   115   116    1
    21   138   136   ar
    22     5     2    1
    23   116   117    1
    24     2     3    1
    25     3     4    2
    26   122   123    1
    27   124   125    2
    28   124   123    1
    29   121   119    1
    30   106   105    2
    31   119   120    1
    32   119   118    2
    33   105   104    1
    34   117   118    1
    35   123   126    1
    36   107   104    1
    37   107   108    1
    38   104   103    1
    39   126   128    1
    40   126   127    1
    41    89    88    2
    42    32    33   ar
    43    32    30   ar
    44    88    87    1
    45    33    31   ar
    46   103    93   am
    47    14    13    1
    48   108   109    2
    49   108   110   am
    50    21    22    1
    51    21    20    1
    52    22    16    1
    53    90    87    1
    54    13    12    1
    55    13    15    1
    56     8     9    1
    57    30    28   ar
    58    93    94    2
    59    93    92    1
    60    87    86    1
    61    12     9    1
    62    31    29   ar
    63    91    92    1
    64    20    17    1
    65     9    10    1
    66    28    29   ar
    67    28    27    1
    68    16    10   am
    69    16    17    1
    70    92    95    1
    71    10    11    2
    72    17    18    1
    73    27    24    1
    74    95    96    1
    75    23    18   am
    76    23    24    1
    77    98    96   ar
    78    98   100   ar
    79    18    19    2
    80    96    97   ar
    81   100   101   ar
    82    24    25    1
    83    97    99   ar
    84   101    99   ar
    85   101   102    1
    86    25    26    2
    87    72    70    1
    88    65    63    1
    89    82    80   ar
    90    82    84   ar
    91    61    60    2
    92    42    40   am
    93    73    71    1
    94    70    71    1
    95    70    67    1
    96    85    84    1
    97    80    79   ar
    98    64    63    1
    99    84    83   ar
   100    49    47    1
   101    41    40    2
   102    62    63    1
   103    62    59    1
   104    40    39    1
   105    60    59    1
   106    67    66    1
   107    67    68    1
   108    34    35    1
   109    59    58    1
   110    37    36    2
   111    79    78    1
   112    79    81   ar
   113    48    47    1
   114    75    78    1
   115    75    74    1
   116    75    76    1
   117    47    44    1
   118    83    81   ar
   119    77    76    2
   120    68    69    2
   121    39    38    1
   122    35    36    1
   123    35    38    1
   124    44    43    1
   125    44    45    1
   126    58    52   am
   127    53    52    2
   128    52    51    1
   129    57    55    1
   130    45    46    2
   131    55    56    1
   132    55    54    1
   133    51    54    1
   134    51    50    1
