@<TRIPOS>MOLECULE
tmp/5nlmA00.pdb
 144 139 0 0 0
SMALL
GASTEIGER

@<TRIPOS>ATOM
      1  N        -27.9310   39.8390    6.3450 N.3    13  ALA13      -0.1245
      2  CA       -27.2750   40.0900    7.6200 C.3    13  ALA13       0.1562
      3  C        -26.0840   41.0250    7.4430 C.2    13  ALA13       0.2260
      4  O        -25.2700   40.8490    6.5320 O.2    13  ALA13      -0.2867
      5  CB       -26.8210   38.7720    8.2450 C.3    13  ALA13       0.0290
      6  N        -23.1090   46.4620    7.1850 N.3    16  GLY16      -0.1210
      7  CA       -22.6940   46.8640    5.8540 C.3    16  GLY16       0.1956
      8  C        -23.8200   46.8790    4.8430 C.2    16  GLY16       0.2611
      9  O        -23.7200   47.5730    3.8260 O.2    16  GLY16      -0.2717
     10  N        -24.8880   46.1250    5.0910 N.am   17  HIS17      -0.1975
     11  CA       -26.0500   46.1250    4.2120 C.3    17  HIS17       0.1656
     12  C        -27.1370   47.0870    4.6630 C.2    17  HIS17       0.2291
     13  O        -27.8530   47.6340    3.8190 O.2    17  HIS17      -0.2864
     14  CB       -26.6370   44.7150    4.1140 C.3    17  HIS17       0.0771
     15  CG       -25.7330   43.7330    3.4350 C.ar   17  HIS17       0.0820
     16  ND1      -26.1940   42.7950    2.5370 N.ar   17  HIS17      -0.2267
     17  CD2      -24.3950   43.5430    3.5230 C.ar   17  HIS17       0.1154
     18  CE1      -25.1790   42.0700    2.1010 C.ar   17  HIS17       0.1986
     19  NE2      -24.0770   42.5030    2.6860 N.ar   17  HIS17      -0.2212
     20  N        -21.0350   32.3190    5.5230 N.3    78  ILE78      -0.1231
     21  CA       -22.0080   33.3360    5.9050 C.3    78  ILE78       0.1692
     22  C        -23.1660   33.3930    4.9130 C.2    78  ILE78       0.2591
     23  O        -24.2970   33.7180    5.2930 O.2    78  ILE78      -0.2718
     24  CB       -21.3090   34.7010    6.0510 C.3    78  ILE78       0.0266
     25  CG1      -22.2620   35.7320    6.6590 C.3    78  ILE78       0.0019
     26  CG2      -20.7920   35.1890    4.7060 C.3    78  ILE78       0.0020
     27  CD1      -22.6990   35.4090    8.0780 C.3    78  ILE78       0.0001
     28  N        -22.9200   33.0800    3.6380 N.am   79  GLU79      -0.1979
     29  CA       -24.0090   33.0830    2.6640 C.3    79  GLU79       0.1602
     30  C        -25.0440   32.0190    3.0010 C.2    79  GLU79       0.2287
     31  O        -26.2500   32.2420    2.8480 O.2    79  GLU79      -0.2864
     32  CB       -23.4690   32.8570    1.2530 C.3    79  GLU79       0.0415
     33  CG       -22.5650   33.9590    0.7450 C.3    79  GLU79       0.1163
     34  CD       -21.1400   33.8380    1.2510 C.2    79  GLU79       0.3649
     35  OE1      -20.8340   32.8720    1.9820 O.co2  79  GLU79      -0.2457
     36  OE2      -20.3220   34.7130    0.9110 O.co2  79  GLU79      -0.2457
     37  N        -27.0720   33.1340    6.0090 N.3    82  MET82      -0.1245
     38  CA       -27.9510   34.2280    5.6110 C.3    82  MET82       0.1570
     39  C        -29.1650   33.7130    4.8500 C.2    82  MET82       0.2261
     40  O        -30.2920   34.1620    5.0900 O.2    82  MET82      -0.2867
     41  CB       -27.1750   35.2340    4.7650 C.3    82  MET82       0.0387
     42  CG       -26.5470   36.3550    5.5780 C.3    82  MET82       0.0595
     43  SD       -25.0810   37.0800    4.8160 S.3    82  MET82      -0.1393
     44  CE       -25.5970   37.2190    3.1210 C.3    82  MET82       0.0692
     45  N        -29.4040   41.0180   -1.5920 N.3   114  LEU114     -0.1231
     46  CA       -28.9170   40.1710   -2.6760 C.3   114  LEU114      0.1693
     47  C        -29.0180   38.6800   -2.3650 C.2   114  LEU114      0.2592
     48  O        -29.0790   37.8760   -3.3010 O.2   114  LEU114     -0.2718
     49  CB       -27.4730   40.5400   -3.0300 C.3   114  LEU114      0.0284
     50  CG       -26.3300   40.0860   -2.1200 C.3   114  LEU114      0.0019
     51  CD1      -25.0000   40.4450   -2.7620 C.3   114  LEU114      0.0001
     52  CD2      -26.4260   40.7040   -0.7400 C.3   114  LEU114      0.0001
     53  N        -29.0410   38.2850   -1.0900 N.am  115  PHE115     -0.1976
     54  CA       -29.1890   36.8800   -0.7240 C.3   115  PHE115      0.1639
     55  C        -30.5330   36.5910   -0.0600 C.2   115  PHE115      0.2290
     56  O        -30.6630   35.5960    0.6600 O.2   115  PHE115     -0.2864
     57  CB       -28.0400   36.4410    0.1880 C.3   115  PHE115      0.0560
     58  CG       -26.6880   36.4870   -0.4730 C.ar  115  PHE115     -0.0200
     59  CD1      -26.4150   35.7120   -1.5870 C.ar  115  PHE115     -0.0042
     60  CD2      -25.6860   37.3030    0.0260 C.ar  115  PHE115     -0.0042
     61  CE1      -25.1690   35.7560   -2.1940 C.ar  115  PHE115     -0.0003
     62  CE2      -24.4380   37.3490   -0.5720 C.ar  115  PHE115     -0.0003
     63  CZ       -24.1800   36.5750   -1.6830 C.ar  115  PHE115     -0.0000
     64  N        -26.0970   45.6850   -2.9900 N.3   135  PRO135     -0.2102
     65  CA       -25.2010   46.6660   -2.3680 C.3   135  PRO135      0.1504
     66  C        -23.7510   46.5320   -2.8040 C.2   135  PRO135      0.2576
     67  O        -22.8530   47.0300   -2.1170 O.2   135  PRO135     -0.2718
     68  CB       -25.3640   46.3690   -0.8740 C.3   135  PRO135      0.0282
     69  CG       -25.6030   44.8920   -0.8330 C.3   135  PRO135      0.0208
     70  CD       -26.3710   44.5480   -2.0910 C.3   135  PRO135      0.0893
     71  N        -23.5040   45.8730   -3.9360 N.am  136  SER136     -0.1953
     72  CA       -22.1400   45.6800   -4.4180 C.3   136  SER136      0.1924
     73  C        -21.9780   46.2260   -5.8330 C.2   136  SER136      0.2314
     74  O        -22.8130   47.0070   -6.3000 O.2   136  SER136     -0.2863
     75  CB       -21.7650   44.1980   -4.3680 C.3   136  SER136      0.2116
     76  OG       -20.4150   44.0070   -4.7470 O.3   136  SER136     -0.2180
     77  N        -20.0080   42.6890  -10.0260 N.3   140  THR140     -0.1218
     78  CA       -20.4480   41.5200   -9.2740 C.3   140  THR140      0.1862
     79  C        -21.8740   41.1230   -9.6360 C.2   140  THR140      0.2287
     80  O        -22.2020   39.9310   -9.6360 O.2   140  THR140     -0.2866
     81  CB       -20.3370   41.7930   -7.7730 C.3   140  THR140      0.1770
     82  OG1      -18.9710   42.0620   -7.4330 O.3   140  THR140     -0.2211
     83  CG2      -20.8230   40.5980   -6.9700 C.3   140  THR140      0.0375
     84  N        -23.1610   37.4610  -11.0160 N.3   144  PHE144     -0.1241
     85  CA       -24.3380   36.7300  -10.5560 C.3   144  PHE144      0.1605
     86  C        -25.2000   36.2900  -11.7320 C.2   144  PHE144      0.2264
     87  O        -25.5500   35.1110  -11.8540 O.2   144  PHE144     -0.2867
     88  CB       -25.1530   37.5960   -9.5950 C.3   144  PHE144      0.0534
     89  CG       -24.6580   37.5700   -8.1760 C.ar  144  PHE144     -0.0203
     90  CD1      -23.3080   37.6810   -7.8920 C.ar  144  PHE144     -0.0042
     91  CD2      -25.5510   37.4590   -7.1230 C.ar  144  PHE144     -0.0042
     92  CE1      -22.8550   37.6660   -6.5820 C.ar  144  PHE144     -0.0003
     93  CE2      -25.1040   37.4450   -5.8120 C.ar  144  PHE144     -0.0003
     94  CZ       -23.7520   37.5500   -5.5430 C.ar  144  PHE144     -0.0000
     95  N        -15.4690   35.7590   -6.1800 N.3   179  ILE179     -0.1245
     96  CA       -16.0440   35.9610   -4.8540 C.3   179  ILE179      0.1561
     97  C        -15.8640   34.7070   -4.0080 C.2   179  ILE179      0.2260
     98  O        -15.8770   33.5860   -4.5270 O.2   179  ILE179     -0.2867
     99  CB       -17.5290   36.3580   -4.9500 C.3   179  ILE179      0.0252
    100  CG1      -18.3600   35.2410   -5.5830 C.3   179  ILE179      0.0019
    101  CG2      -17.6780   37.6200   -5.7760 C.3   179  ILE179      0.0019
    102  CD1      -19.8380   35.5740   -5.6690 C.3   179  ILE179      0.0001
    103  N        -17.6400   32.7200   -2.0040 N.3   181  PRO181     -0.2116
    104  CA       -18.5080   31.5310   -1.9820 C.3   181  PRO181      0.1372
    105  C        -18.4660   30.6760   -3.2420 C.2   181  PRO181      0.2244
    106  O        -19.1190   29.6270   -3.2650 O.2   181  PRO181     -0.2868
    107  CB       -19.9120   32.1210   -1.7660 C.3   181  PRO181      0.0268
    108  CG       -19.8160   33.5430   -2.1720 C.3   181  PRO181      0.0207
    109  CD       -18.4100   33.9690   -1.8710 C.3   181  PRO181      0.0892
    110  N        -12.1170   39.5290    1.8190 N.3   375  TYR375     -0.1227
    111  CA       -13.1750   38.5240    1.7590 C.3   375  TYR375      0.1736
    112  C        -14.3120   39.0140    0.8670 C.2   375  TYR375      0.2595
    113  O        -14.2380   40.0810    0.2510 O.2   375  TYR375     -0.2718
    114  CB       -13.6790   38.1860    3.1670 C.3   375  TYR375      0.0548
    115  CG       -14.1760   39.3840    3.9490 C.ar  375  TYR375     -0.0200
    116  CD1      -13.3050   40.1480    4.7170 C.ar  375  TYR375     -0.0009
    117  CD2      -15.5160   39.7500    3.9210 C.ar  375  TYR375     -0.0009
    118  CE1      -13.7530   41.2450    5.4320 C.ar  375  TYR375      0.0417
    119  CE2      -15.9740   40.8460    4.6340 C.ar  375  TYR375      0.0417
    120  CZ       -15.0870   41.5890    5.3890 C.ar  375  TYR375      0.1957
    121  OH       -15.5320   42.6810    6.1020 O.3   375  TYR375     -0.2866
    122  N        -15.3690   38.2060    0.7930 N.am  376  ALA376     -0.1966
    123  CA       -16.5770   38.5190    0.0140 C.3   376  ALA376      0.1728
    124  C        -16.1440   38.7530   -1.4320 C.2   376  ALA376      0.2616
    125  O        -15.3820   37.9350   -1.9730 O.2   376  ALA376     -0.2715
    126  CB       -17.3160   39.6750    0.6800 C.3   376  ALA376      0.0334
    127  N        -16.5930   39.8220   -2.0910 N.am  377  GLU377     -0.1963
    128  CA       -16.2180   40.1150   -3.4670 C.3   377  GLU377      0.1733
    129  C        -15.0590   41.1010   -3.5570 C.2   377  GLU377      0.2616
    130  O        -14.7960   41.6390   -4.6360 O.2   377  GLU377     -0.2715
    131  CB       -17.4300   40.6540   -4.2400 C.3   377  GLU377      0.0429
    132  CG       -17.6600   42.1770   -4.1720 C.3   377  GLU377      0.1163
    133  CD       -18.0210   42.6920   -2.7840 C.2   377  GLU377      0.3649
    134  OE1      -17.8600   41.9450   -1.7950 O.co2 377  GLU377     -0.2457
    135  OE2      -18.4720   43.8560   -2.6840 O.co2 377  GLU377     -0.2457
    136  N        -14.3510   41.3370   -2.4520 N.am  378  GLN378     -0.1977
    137  CA       -13.3760   42.4220   -2.4140 C.3   378  GLN378      0.1601
    138  C        -12.2570   42.2230   -3.4270 C.2   378  GLN378      0.2287
    139  O        -11.7520   43.2020   -3.9880 O.2   378  GLN378     -0.2864
    140  CB       -12.8200   42.5590   -0.9970 C.3   378  GLN378      0.0394
    141  CG       -13.8520   43.1210   -0.0310 C.3   378  GLN378      0.0908
    142  CD       -13.6500   42.6580    1.3930 C.2   378  GLN378      0.2608
    143  OE1      -12.5550   42.2560    1.7810 O.2   378  GLN378     -0.2717
    144  NE2      -14.7170   42.7060    2.1810 N.am  378  GLN378     -0.0878
@<TRIPOS>BOND
     1    87    86    2
     2    86    85    1
     3    84    85    1
     4    85    88    1
     5    77    78    1
     6    80    79    2
     7    79    78    1
     8    88    89    1
     9    78    81    1
    10    89    90   ar
    11    89    91   ar
    12    90    92   ar
    13    81    82    1
    14    81    83    1
    15    91    93   ar
    16    92    94   ar
    17    74    73    2
    18    95    96    1
    19    73    72    1
    20    93    94   ar
    21   101    99    1
    22   102   100    1
    23   100    99    1
    24    99    96    1
    25    96    97    1
    26    76    75    1
    27   130   129    2
    28    98    97    2
    29    72    75    1
    30    72    71    1
    31   131   132    1
    32   131   128    1
    33   132   133    1
    34   139   138    2
    35    71    66   am
    36   129   128    1
    37   129   136   am
    38   128   127    1
    39   138   137    1
    40    48    47    2
    41   106   105    2
    42   105   104    1
    43    49    46    1
    44    49    50    1
    45    64    65    1
    46    64    70    1
    47    66    65    1
    48    66    67    2
    49   133   135   ar
    50   133   134   ar
    51    51    50    1
    52    46    47    1
    53    46    45    1
    54   136   137    1
    55   137   140    1
    56    65    68    1
    57    47    53   am
    58    61    63   ar
    59    61    59   ar
    60   108   109    1
    61   108   107    1
    62    50    52    1
    63   127   124   am
    64    70    69    1
    65   103   104    1
    66   103   109    1
    67   104   107    1
    68   125   124    2
    69    63    62   ar
    70    59    58   ar
    71   124   123    1
    72    53    54    1
    73   140   141    1
    74    68    69    1
    75    54    55    1
    76    54    57    1
    77    62    60   ar
    78    58    60   ar
    79    58    57    1
    80    55    56    2
    81   141   142    1
    82   123   126    1
    83   123   122    1
    84   113   112    2
    85    33    34    1
    86    33    32    1
    87   122   112   am
    88   112   111    1
    89    36    34   ar
    90    34    35   ar
    91    32    29    1
    92   142   143    2
    93   142   144   am
    94   111   110    1
    95   111   114    1
    96    18    16   ar
    97    18    19   ar
    98    16    15   ar
    99    29    30    1
   100    29    28    1
   101    19    17   ar
   102    31    30    2
   103    44    43    1
   104   114   115    1
   105    15    17   ar
   106    15    14    1
   107    28    22   am
   108    13    12    2
   109     9     8    2
   110   117   115   ar
   111   117   119   ar
   112   115   116   ar
   113    14    11    1
   114    11    12    1
   115    11    10    1
   116   119   120   ar
   117    26    24    1
   118   116   118   ar
   119    41    42    1
   120    41    38    1
   121    43    42    1
   122     8    10   am
   123     8     7    1
   124    39    40    2
   125    39    38    1
   126    22    23    2
   127    22    21    1
   128   120   118   ar
   129   120   121    1
   130    20    21    1
   131    38    37    1
   132     7     6    1
   133    21    24    1
   134    24    25    1
   135     1     2    1
   136     4     3    2
   137    25    27    1
   138     3     2    1
   139     2     5    1
