@<TRIPOS>MOLECULE
tmp/5nm4A01.pdb
 112 108 0 0 0
SMALL
GASTEIGER

@<TRIPOS>ATOM
      1  N          7.5110   67.0990   50.3000 N.3    44  TYR44      -0.1241
      2  CA         8.2990   68.0480   49.5160 C.3    44  TYR44       0.1605
      3  C          7.5810   69.3840   49.3480 C.2    44  TYR44       0.2264
      4  O          8.2220   70.4430   49.3330 O.2    44  TYR44      -0.2867
      5  CB         8.6520   67.4360   48.1730 C.3    44  TYR44       0.0534
      6  CG         9.3790   66.1310   48.3850 C.ar   44  TYR44      -0.0201
      7  CD1       10.1810   65.9310   49.5210 C.ar   44  TYR44      -0.0009
      8  CD2        9.2320   65.0890   47.5100 C.ar   44  TYR44      -0.0009
      9  CE1       10.8050   64.7590   49.7360 C.ar   44  TYR44       0.0417
     10  CE2        9.8680   63.8860   47.7290 C.ar   44  TYR44       0.0417
     11  CZ        10.6460   63.7310   48.8310 C.ar   44  TYR44       0.1957
     12  OH        11.2670   62.5330   49.0290 O.3    44  TYR44      -0.2866
     13  N          8.0550   71.1340   52.6640 N.3    47  VAL47      -0.1231
     14  CA         9.3660   71.7940   52.7500 C.3    47  VAL47       0.1692
     15  C          9.3960   73.0770   51.9360 C.2    47  VAL47       0.2592
     16  O          9.9930   74.0740   52.3600 O.2    47  VAL47      -0.2718
     17  CB        10.4810   70.8310   52.2910 C.3    47  VAL47       0.0266
     18  CG1       11.8080   71.5910   52.1280 C.3    47  VAL47       0.0020
     19  CG2       10.6110   69.6990   53.2600 C.3    47  VAL47       0.0020
     20  N          8.7850   73.0760   50.7400 N.am   48  SER48      -0.1952
     21  CA         8.7650   74.2990   49.9300 C.3    48  SER48       0.1924
     22  C          8.0520   75.4210   50.6830 C.2    48  SER48       0.2314
     23  O          8.4830   76.5930   50.6910 O.2    48  SER48      -0.2863
     24  CB         8.0780   74.0320   48.5830 C.3    48  SER48       0.2116
     25  OG         8.0510   75.2220   47.8060 O.3    48  SER48      -0.2180
     26  N         10.2070   76.6540   53.3870 N.3    51  ALA51      -0.1245
     27  CA        11.2800   77.4770   52.8400 C.3    51  ALA51       0.1562
     28  C         10.7660   78.8780   52.5960 C.2    51  ALA51       0.2260
     29  O         11.4690   79.8660   52.8240 O.2    51  ALA51      -0.2867
     30  CB        11.8370   76.8470   51.5570 C.3    51  ALA51       0.0290
     31  N         12.0620   82.3230   54.5650 N.3    55  LEU55      -0.1245
     32  CA        12.3970   83.5410   53.8250 C.3    55  LEU55       0.1561
     33  C         11.5040   84.7070   54.2290 C.2    55  LEU55       0.2260
     34  O         11.9150   85.8710   54.0780 O.2    55  LEU55      -0.2867
     35  CB        12.2910   83.2920   52.3180 C.3    55  LEU55       0.0270
     36  CG        13.3820   82.3870   51.7200 C.3    55  LEU55       0.0019
     37  CD1       13.1320   82.1970   50.2310 C.3    55  LEU55       0.0001
     38  CD2       14.7670   82.9550   51.9170 C.3    55  LEU55       0.0001
     39  N         14.0580   87.5900   55.0560 N.3    59  LEU59      -0.1245
     40  CA        13.9900   88.6980   54.1090 C.3    59  LEU59       0.1561
     41  C         12.7190   89.5200   54.2090 C.2    59  LEU59       0.2260
     42  O         12.8040   90.7570   54.2230 O.2    59  LEU59      -0.2867
     43  CB        14.1100   88.1810   52.6840 C.3    59  LEU59       0.0270
     44  CG        15.5260   87.7090   52.3390 C.3    59  LEU59       0.0019
     45  CD1       15.4680   87.0610   50.9550 C.3    59  LEU59       0.0001
     46  CD2       16.5080   88.8830   52.4020 C.3    59  LEU59       0.0001
     47  N         12.5650   93.3770   55.1910 N.3    63  PHE63      -0.1241
     48  CA        12.0650   94.3240   54.2020 C.3    63  PHE63       0.1605
     49  C         10.8860   95.1340   54.7480 C.2    63  PHE63       0.2264
     50  O         10.7690   96.3290   54.4810 O.2    63  PHE63      -0.2867
     51  CB        11.6300   93.6020   52.9340 C.3    63  PHE63       0.0534
     52  CG        12.7740   93.0740   52.0830 C.ar   63  PHE63      -0.0203
     53  CD1       14.0980   93.3340   52.3690 C.ar   63  PHE63      -0.0042
     54  CD2       12.4720   92.2950   50.9520 C.ar   63  PHE63      -0.0042
     55  CE1       15.1210   92.8290   51.5740 C.ar   63  PHE63      -0.0003
     56  CE2       13.4730   91.8050   50.1460 C.ar   63  PHE63      -0.0003
     57  CZ        14.7860   92.0670   50.4240 C.ar   63  PHE63      -0.0000
     58  N         10.9470   96.4270   44.8160 N.3    80  PHE80      -0.1241
     59  CA        11.3830   95.0750   45.1080 C.3    80  PHE80       0.1605
     60  C         11.1650   94.7580   46.5700 C.2    80  PHE80       0.2264
     61  O         10.6040   93.7280   46.9220 O.2    80  PHE80      -0.2867
     62  CB        12.8470   94.8920   44.7560 C.3    80  PHE80       0.0534
     63  CG        13.3400   93.5170   45.0640 C.ar   80  PHE80      -0.0203
     64  CD1       13.0890   92.4540   44.1820 C.ar   80  PHE80      -0.0042
     65  CD2       13.9880   93.2580   46.2620 C.ar   80  PHE80      -0.0042
     66  CE1       13.5660   91.1790   44.4660 C.ar   80  PHE80      -0.0003
     67  CE2       14.4570   92.0000   46.5560 C.ar   80  PHE80      -0.0003
     68  CZ        14.2290   90.9360   45.6520 C.ar   80  PHE80      -0.0000
     69  N          8.5380   91.7270   47.4060 N.3    84  PHE84      -0.1241
     70  CA         9.1290   90.4110   47.5820 C.3    84  PHE84       0.1605
     71  C          8.2330   89.4980   48.4330 C.2    84  PHE84       0.2264
     72  O          8.0700   88.3120   48.1450 O.2    84  PHE84      -0.2867
     73  CB        10.5030   90.5420   48.1910 C.3    84  PHE84       0.0534
     74  CG        11.1880   89.2060   48.2980 C.ar   84  PHE84      -0.0203
     75  CD1       11.6510   88.5540   47.1510 C.ar   84  PHE84      -0.0042
     76  CD2       11.3610   88.5790   49.5280 C.ar   84  PHE84      -0.0042
     77  CE1       12.2480   87.2940   47.2320 C.ar   84  PHE84      -0.0003
     78  CE2       11.9860   87.3370   49.5990 C.ar   84  PHE84      -0.0003
     79  CZ        12.3990   86.6880   48.4310 C.ar   84  PHE84      -0.0000
     80  N          7.5790   72.1450   41.8190 N.3   126  ILE126     -0.1245
     81  CA         7.9680   73.1250   42.8200 C.3   126  ILE126      0.1561
     82  C          8.8160   74.2210   42.1690 C.2   126  ILE126      0.2260
     83  O          8.6270   75.4080   42.4440 O.2   126  ILE126     -0.2867
     84  CB         8.7140   72.4310   43.9880 C.3   126  ILE126      0.0252
     85  CG1        7.7150   71.6060   44.8180 C.3   126  ILE126      0.0019
     86  CG2        9.4750   73.4790   44.9040 C.3   126  ILE126      0.0019
     87  CD1        8.3690   70.6200   45.7760 C.3   126  ILE126      0.0001
     88  N          7.7670   78.2160   41.9210 N.3   130  TRP130     -0.1241
     89  CA         8.6040   79.2940   42.4420 C.3   130  TRP130      0.1605
     90  C          8.8380   80.3440   41.3560 C.2   130  TRP130      0.2264
     91  O          8.7370   81.5450   41.6120 O.2   130  TRP130     -0.2867
     92  CB         9.9220   78.7200   42.9710 C.3   130  TRP130      0.0550
     93  CG         9.8170   78.2980   44.4360 C.ar  130  TRP130      0.0003
     94  CD1        9.6200   77.0530   44.9100 C.ar  130  TRP130      0.0946
     95  CD2        9.8500   79.1620   45.6000 C.ar  130  TRP130      0.0152
     96  NE1        9.5220   77.0710   46.2680 N.ar  130  TRP130     -0.2442
     97  CE2        9.6550   78.3520   46.7200 C.ar  130  TRP130      0.0810
     98  CE3       10.0220   80.5330   45.7820 C.ar  130  TRP130      0.0012
     99  CZ2        9.6720   78.8470   48.0240 C.ar  130  TRP130      0.0191
    100  CZ3       10.0220   81.0210   47.0630 C.ar  130  TRP130      0.0001
    101  CH2        9.8300   80.1650   48.1790 C.ar  130  TRP130      0.0015
    102  N          7.6000   84.2900   41.5190 N.3   134  PHE134     -0.1241
    103  CA         8.3940   85.4850   41.2400 C.3   134  PHE134      0.1605
    104  C          7.7080   86.3770   40.2010 C.2   134  PHE134      0.2264
    105  O          7.6130   87.5910   40.3780 O.2   134  PHE134     -0.2867
    106  CB         9.7860   85.0770   40.7900 C.3   134  PHE134      0.0534
    107  CG        10.7270   84.9130   41.9200 C.ar  134  PHE134     -0.0203
    108  CD1       11.4120   86.0210   42.4060 C.ar  134  PHE134     -0.0042
    109  CD2       10.8850   83.6840   42.5770 C.ar  134  PHE134     -0.0042
    110  CE1       12.2740   85.8860   43.4820 C.ar  134  PHE134     -0.0003
    111  CE2       11.7610   83.5690   43.6460 C.ar  134  PHE134     -0.0003
    112  CZ        12.4470   84.6690   44.0920 C.ar  134  PHE134     -0.0000
@<TRIPOS>BOND
     1   104   105    2
     2   104   103    1
     3   106   103    1
     4   106   107    1
     5   103   102    1
     6    90    91    2
     7    90    89    1
     8    80    81    1
     9   107   108   ar
    10   107   109   ar
    11    88    89    1
    12    82    83    2
    13    82    81    1
    14   108   110   ar
    15    89    92    1
    16   109   111   ar
    17    81    84    1
    18    92    93    1
    19   110   112   ar
    20   111   112   ar
    21    84    85    1
    22    84    86    1
    23    64    66   ar
    24    64    63   ar
    25    93    94   ar
    26    93    95   ar
    27    66    68   ar
    28    62    63    1
    29    62    59    1
    30    58    59    1
    31    85    87    1
    32    94    96   ar
    33    63    65   ar
    34    59    60    1
    35    95    98   ar
    36    95    97   ar
    37    68    67   ar
    38    98   100   ar
    39    65    67   ar
    40    96    97   ar
    41    60    61    2
    42    97    99   ar
    43   100   101   ar
    44    75    77   ar
    45    75    74   ar
    46    77    79   ar
    47    69    70    1
    48     8    10   ar
    49     8     6   ar
    50    70    73    1
    51    70    71    1
    52    10    11   ar
    53    25    24    1
    54    99   101   ar
    55    72    71    2
    56     5     6    1
    57     5     2    1
    58    73    74    1
    59    74    76   ar
    60     6     7   ar
    61    79    78   ar
    62    24    21    1
    63    11    12    1
    64    11     9   ar
    65     4     3    2
    66     3     2    1
    67     2     1    1
    68     7     9   ar
    69    76    78   ar
    70    21    22    1
    71    21    20    1
    72    56    57   ar
    73    56    54   ar
    74    37    36    1
    75    57    55   ar
    76    22    23    2
    77    20    15   am
    78    54    52   ar
    79    45    44    1
    80    30    27    1
    81    55    53   ar
    82    36    38    1
    83    36    35    1
    84    15    16    2
    85    15    14    1
    86    52    53   ar
    87    52    51    1
    88    18    17    1
    89    17    14    1
    90    17    19    1
    91    35    32    1
    92    44    46    1
    93    44    43    1
    94    28    29    2
    95    28    27    1
    96    13    14    1
    97    43    40    1
    98    27    26    1
    99    51    48    1
   100    32    33    1
   101    32    31    1
   102    34    33    2
   103    40    41    1
   104    40    39    1
   105    48    49    1
   106    48    47    1
   107    41    42    2
   108    50    49    2
