@<TRIPOS>MOLECULE
tmp/5nm7A00.pdb
 99 94 0 0 0
SMALL
GASTEIGER

@<TRIPOS>ATOM
      1  N        -67.3240  125.3750  142.5530 N.3   111  ARG111     -0.1245
      2  CA       -66.1070  124.9080  141.9090 C.3   111  ARG111      0.1563
      3  C        -65.8900  123.4720  142.3180 C.2   111  ARG111      0.2260
      4  O        -66.2850  123.0610  143.3990 O.2   111  ARG111     -0.2867
      5  CB       -64.9220  125.7470  142.3320 C.3   111  ARG111      0.0307
      6  CG       -65.0820  127.2030  141.8650 C.3   111  ARG111      0.0489
      7  CD       -63.9590  128.0570  142.3480 C.3   111  ARG111      0.2205
      8  NE       -63.9780  128.2360  143.7990 N.pl3 111  ARG111     -0.0865
      9  CZ       -63.0900  128.9570  144.4950 C.cat 111  ARG111      0.5346
     10  NH1      -62.1140  129.6190  143.8810 N.pl3 111  ARG111      0.1354
     11  NH2      -63.1830  129.0430  145.8130 N.pl3 111  ARG111      0.1354
     12  N        -58.1730  126.6560  146.5140 N.3   152  TYR152     -0.1241
     13  CA       -58.1300  127.4690  145.2950 C.3   152  TYR152      0.1605
     14  C        -57.1530  128.6260  145.4030 C.2   152  TYR152      0.2264
     15  O        -56.5970  129.0380  144.3850 O.2   152  TYR152     -0.2867
     16  CB       -59.4940  127.9520  144.8800 C.3   152  TYR152      0.0534
     17  CG       -60.1990  126.8940  144.0840 C.ar  152  TYR152     -0.0201
     18  CD1      -59.9440  126.7420  142.7400 C.ar  152  TYR152     -0.0009
     19  CD2      -61.0430  125.9870  144.7050 C.ar  152  TYR152     -0.0009
     20  CE1      -60.5540  125.7370  142.0040 C.ar  152  TYR152      0.0417
     21  CE2      -61.7010  124.9930  143.9820 C.ar  152  TYR152      0.0417
     22  CZ       -61.4250  124.8360  142.6450 C.ar  152  TYR152      0.1957
     23  OH       -62.0520  123.8680  141.8850 O.3   152  TYR152     -0.2866
     24  N        -53.8880  126.9020  144.6500 N.3   155  LEU155     -0.1231
     25  CA       -53.8740  126.6190  143.2140 C.3   155  LEU155      0.1693
     26  C        -53.5940  127.9250  142.4050 C.2   155  LEU155      0.2591
     27  O        -52.7350  127.9400  141.5210 O.2   155  LEU155     -0.2718
     28  CB       -55.1750  126.0100  142.7430 C.3   155  LEU155      0.0284
     29  CG       -55.2880  125.7060  141.2480 C.3   155  LEU155      0.0019
     30  CD1      -54.1770  124.8010  140.7830 C.3   155  LEU155      0.0001
     31  CD2      -56.6440  125.1200  140.9000 C.3   155  LEU155      0.0001
     32  N        -54.2870  129.0070  142.7760 N.am  156  ALA156     -0.1980
     33  CA       -54.1710  130.2970  142.1000 C.3   156  ALA156      0.1597
     34  C        -52.7140  130.7760  142.1570 C.2   156  ALA156      0.2287
     35  O        -52.2070  131.3070  141.1580 O.2   156  ALA156     -0.2864
     36  CB       -55.1190  131.3180  142.7040 C.3   156  ALA156      0.0319
     37  N        -50.5700  128.5390  140.0270 N.3   159  SER159     -0.1217
     38  CA       -50.8730  128.8020  138.6320 C.3   159  SER159      0.1889
     39  C        -50.0350  129.9640  138.0610 C.2   159  SER159      0.2288
     40  O        -49.7260  129.9900  136.8670 O.2   159  SER159     -0.2866
     41  CB       -52.3410  129.1020  138.4420 C.3   159  SER159      0.2089
     42  OG       -53.1020  127.9170  138.5810 O.3   159  SER159     -0.2183
     43  N        -52.2680  122.7610  137.5140 N.3   167  LEU167     -0.1245
     44  CA       -53.4860  121.9510  137.2930 C.3   167  LEU167      0.1561
     45  C        -53.1350  120.4770  137.3000 C.2   167  LEU167      0.2260
     46  O        -53.8670  119.6680  137.8610 O.2   167  LEU167     -0.2867
     47  CB       -54.1720  122.3220  136.0050 C.3   167  LEU167      0.0270
     48  CG       -54.6500  123.7950  135.8730 C.3   167  LEU167      0.0019
     49  CD1      -55.1760  124.0460  134.4750 C.3   167  LEU167      0.0001
     50  CD2      -55.6840  124.2020  136.9070 C.3   167  LEU167      0.0001
     51  N        -58.8480  116.4030  141.2910 N.3   172  TRP172     -0.1241
     52  CA       -60.1090  117.0360  140.9090 C.3   172  TRP172      0.1605
     53  C        -61.2980  116.1700  141.1040 C.2   172  TRP172      0.2264
     54  O        -61.2950  115.0000  140.7430 O.2   172  TRP172     -0.2867
     55  CB       -60.0530  117.3920  139.4260 C.3   172  TRP172      0.0550
     56  CG       -58.9830  118.3750  139.1610 C.ar  172  TRP172      0.0003
     57  CD1      -57.6580  118.1290  138.9220 C.ar  172  TRP172      0.0946
     58  CD2      -59.1310  119.7810  139.1420 C.ar  172  TRP172      0.0152
     59  NE1      -56.9760  119.2830  138.7830 N.ar  172  TRP172     -0.2442
     60  CE2      -57.8520  120.3260  138.9280 C.ar  172  TRP172      0.0810
     61  CE3      -60.2210  120.6340  139.3230 C.ar  172  TRP172      0.0012
     62  CZ2      -57.6270  121.6880  138.8340 C.ar  172  TRP172      0.0191
     63  CZ3      -59.9930  121.9840  139.2490 C.ar  172  TRP172      0.0001
     64  CH2      -58.7140  122.5010  139.0220 C.ar  172  TRP172      0.0015
     65  N        -56.1730  121.7230  130.4390 N.3   191  PHE191     -0.1241
     66  CA       -57.2410  122.7110  130.5560 C.3   191  PHE191      0.1605
     67  C        -58.5850  122.1360  130.2140 C.2   191  PHE191      0.2264
     68  O        -59.5650  122.4330  130.8840 O.2   191  PHE191     -0.2867
     69  CB       -56.9000  123.9730  129.7150 C.3   191  PHE191      0.0534
     70  CG       -55.6010  124.5830  130.1160 C.ar  191  PHE191     -0.0203
     71  CD1      -54.4240  124.2690  129.4300 C.ar  191  PHE191     -0.0042
     72  CD2      -55.5230  125.4040  131.2160 C.ar  191  PHE191     -0.0042
     73  CE1      -53.2130  124.7870  129.8280 C.ar  191  PHE191     -0.0003
     74  CE2      -54.3120  125.9400  131.6140 C.ar  191  PHE191     -0.0003
     75  CZ       -53.1510  125.6150  130.9290 C.ar  191  PHE191     -0.0000
     76  N        -59.6830  119.9090  133.1540 N.3   194  VAL194     -0.1231
     77  CA       -60.2070  120.7290  134.2350 C.3   194  VAL194      0.1692
     78  C        -61.5830  121.2990  133.8910 C.2   194  VAL194      0.2592
     79  O        -62.4770  121.2900  134.7300 O.2   194  VAL194     -0.2718
     80  CB       -59.1780  121.7960  134.6740 C.3   194  VAL194      0.0266
     81  CG1      -59.7800  122.8150  135.6520 C.3   194  VAL194      0.0020
     82  CG2      -57.9730  121.1340  135.3090 C.3   194  VAL194      0.0020
     83  N        -61.7590  121.8000  132.6660 N.am  195  ASP195     -0.1974
     84  CA       -63.0660  122.2580  132.2240 C.3   195  ASP195      0.1709
     85  C        -64.1280  121.1850  132.3880 C.2   195  ASP195      0.2293
     86  O        -65.2310  121.4730  132.8060 O.2   195  ASP195     -0.2864
     87  CB       -63.0470  122.7280  130.7650 C.3   195  ASP195      0.1436
     88  CG       -62.2780  124.0420  130.5570 C.2   195  ASP195      0.3671
     89  OD1      -62.0930  124.8280  131.4930 O.co2 195  ASP195     -0.2456
     90  OD2      -61.9030  124.3130  129.4070 O.co2 195  ASP195     -0.2456
     91  N        -65.1730  120.7730  135.9480 N.3   198  LYS198     -0.1245
     92  CA       -66.0720  121.8670  136.3760 C.3   198  LYS198      0.1561
     93  C        -67.5320  121.7260  135.9540 C.2   198  LYS198      0.2260
     94  O        -68.3860  122.4200  136.5140 O.2   198  LYS198     -0.2867
     95  CB       -65.4940  123.1800  135.8460 C.3   198  LYS198      0.0271
     96  CG       -64.1890  123.6050  136.4560 C.3   198  LYS198      0.0035
     97  CD       -63.6390  124.8530  135.7590 C.3   198  LYS198      0.0206
     98  CE       -62.4860  125.4140  136.5700 C.3   198  LYS198      0.1093
     99  NZ       -61.8320  126.5050  135.8130 N.3   198  LYS198     -0.1314
@<TRIPOS>BOND
     1    90    88   ar
     2    71    73   ar
     3    71    70   ar
     4    69    70    1
     5    69    66    1
     6    73    75   ar
     7    70    72   ar
     8    67    66    1
     9    67    68    2
    10    65    66    1
    11    88    87    1
    12    88    89   ar
    13    87    84    1
    14    75    74   ar
    15    72    74   ar
    16    84    85    1
    17    84    83    1
    18    85    86    2
    19    83    78   am
    20    76    77    1
    21    78    77    1
    22    78    79    2
    23    77    80    1
    24    49    48    1
    25    80    82    1
    26    80    81    1
    27    97    96    1
    28    97    98    1
    29    99    98    1
    30    95    92    1
    31    95    96    1
    32    48    47    1
    33    48    50    1
    34    91    92    1
    35    93    92    1
    36    93    94    2
    37    47    44    1
    38    40    39    2
    39    44    45    1
    40    44    43    1
    41    45    46    2
    42    39    38    1
    43    41    42    1
    44    41    38    1
    45    38    37    1
    46    59    57   ar
    47    59    60   ar
    48    62    60   ar
    49    62    64   ar
    50    57    56   ar
    51    60    58   ar
    52    64    63   ar
    53    58    56   ar
    54    58    61   ar
    55    56    55    1
    56    63    61   ar
    57    55    52    1
    58    54    53    2
    59    30    29    1
    60    31    29    1
    61    52    53    1
    62    52    51    1
    63    35    34    2
    64    29    28    1
    65    27    26    2
    66     6     5    1
    67     6     7    1
    68    23    22    1
    69     2     3    1
    70     2     5    1
    71     2     1    1
    72    20    22   ar
    73    20    18   ar
    74    33    34    1
    75    33    36    1
    76    33    32    1
    77     3     4    2
    78     7     8    1
    79    26    32   am
    80    26    25    1
    81    22    21   ar
    82    18    17   ar
    83    28    25    1
    84    25    24    1
    85     8     9    2
    86    10     9    1
    87    21    19   ar
    88    17    19   ar
    89    17    16    1
    90    15    14    2
    91     9    11    1
    92    16    13    1
    93    13    14    1
    94    13    12    1
