@<TRIPOS>MOLECULE
tmp/5nm8A00.pdb
 99 89 0 0 0
SMALL
GASTEIGER

@<TRIPOS>ATOM
      1  N        -22.1770  -17.9920   25.1000 N.3    22  VAL22      -0.1245
      2  CA       -22.0460  -19.2390   24.3850 C.3    22  VAL22       0.1561
      3  C        -22.8860  -20.2600   25.1350 C.2    22  VAL22       0.2260
      4  O        -22.4810  -20.7490   26.2050 O.2    22  VAL22      -0.2867
      5  CB       -20.5610  -19.6650   24.2800 C.3    22  VAL22       0.0252
      6  CG1      -20.4460  -21.0550   23.6700 C.3    22  VAL22       0.0019
      7  CG2      -19.8170  -18.6750   23.4240 C.3    22  VAL22       0.0019
      8  N        -23.9950  -23.3060   24.0690 N.3    24  LYS24      -0.1245
      9  CA       -23.8260  -24.7060   23.7440 C.3    24  LYS24       0.1561
     10  C        -23.7930  -25.5260   25.0510 C.2    24  LYS24       0.2260
     11  O        -23.1950  -25.0820   26.0240 O.2    24  LYS24      -0.2867
     12  CB       -22.5590  -24.9380   22.9030 C.3    24  LYS24       0.0271
     13  CG       -21.3240  -25.2310   23.7390 C.3    24  LYS24       0.0035
     14  CD       -20.0240  -25.4020   22.9630 C.3    24  LYS24       0.0206
     15  CE       -19.1100  -24.2330   23.2530 C.3    24  LYS24       0.1093
     16  NZ       -17.7070  -24.6420   23.2210 N.3    24  LYS24      -0.1314
     17  N        -22.4540  -24.2650   18.8160 N.3    45  ASN45      -0.1240
     18  CA       -21.5100  -24.9550   17.9240 C.3    45  ASN45       0.1653
     19  C        -22.1360  -25.9540   16.9760 C.2    45  ASN45       0.2266
     20  O        -21.4860  -26.3700   16.0370 O.2    45  ASN45      -0.2867
     21  CB       -20.3790  -25.6180   18.7030 C.3    45  ASN45       0.1155
     22  CG       -19.4250  -24.6160   19.2650 C.2    45  ASN45       0.2627
     23  OD1      -19.8550  -23.6320   19.8580 O.2    45  ASN45      -0.2716
     24  ND2      -18.1420  -24.8640   19.1230 N.am   45  ASN45      -0.0877
     25  N        -20.5230  -21.0950   15.9760 N.3    68  LEU68      -0.1245
     26  CA       -19.1150  -21.1180   16.4000 C.3    68  LEU68       0.1561
     27  C        -18.3850  -22.3990   16.0700 C.2    68  LEU68       0.2260
     28  O        -17.1600  -22.4300   16.1430 O.2    68  LEU68      -0.2867
     29  CB       -19.0070  -20.8600   17.8940 C.3    68  LEU68       0.0270
     30  CG       -19.7550  -19.5850   18.3710 C.3    68  LEU68       0.0019
     31  CD1      -19.6630  -19.4600   19.8190 C.3    68  LEU68       0.0001
     32  CD2      -19.2660  -18.3040   17.6720 C.3    68  LEU68       0.0001
     33  N         -8.6080  -28.0590   16.2390 N.3   123  LYS123     -0.1245
     34  CA        -9.4660  -27.1240   15.4750 C.3   123  LYS123      0.1561
     35  C         -8.9760  -26.9940   14.0540 C.2   123  LYS123      0.2260
     36  O         -7.7980  -27.0750   13.7880 O.2   123  LYS123     -0.2867
     37  CB        -9.4970  -25.7170   16.1010 C.3   123  LYS123      0.0271
     38  CG       -10.1350  -25.6500   17.4710 C.3   123  LYS123      0.0035
     39  CD       -11.6410  -25.8610   17.3970 C.3   123  LYS123      0.0206
     40  CE       -12.2610  -25.7450   18.7850 C.3   123  LYS123      0.1093
     41  NZ       -12.3720  -27.0480   19.4860 N.3   123  LYS123     -0.1314
     42  N        -11.7340  -14.9420   13.1290 N.3   150  MET150     -0.1245
     43  CA       -11.9240  -15.6830   14.3610 C.3   150  MET150      0.1570
     44  C        -10.6670  -16.4550   14.6700 C.2   150  MET150      0.2261
     45  O        -10.1750  -17.1990   13.8180 O.2   150  MET150     -0.2867
     46  CB       -13.0910  -16.6740   14.3060 C.3   150  MET150      0.0387
     47  CG       -13.2550  -17.4750   15.5930 C.3   150  MET150      0.0595
     48  SD       -14.3500  -18.9070   15.3610 S.3   150  MET150     -0.1393
     49  CE       -15.0460  -18.7680   16.9530 C.3   150  MET150      0.0692
     50  N         -8.9920  -19.0270   17.7550 N.3   152  ILE152     -0.1245
     51  CA        -9.2200  -19.8480   18.9390 C.3   152  ILE152      0.1561
     52  C         -7.8220  -20.3510   19.3840 C.2   152  ILE152      0.2260
     53  O         -7.0440  -20.8870   18.5530 O.2   152  ILE152     -0.2867
     54  CB       -10.0760  -21.0800   18.6160 C.3   152  ILE152      0.0252
     55  CG1      -11.4100  -20.7040   17.9490 C.3   152  ILE152      0.0019
     56  CG2      -10.3070  -21.9240   19.8570 C.3   152  ILE152      0.0019
     57  CD1      -12.0810  -21.8510   17.2050 C.3   152  ILE152      0.0001
     58  N        -12.3160  -16.3930   25.0790 N.3   192  MET192     -0.1230
     59  CA       -13.3050  -17.2430   25.6870 C.3   192  MET192      0.1702
     60  C        -13.1670  -17.1240   27.1990 C.2   192  MET192      0.2593
     61  O        -12.4840  -16.1990   27.6730 O.2   192  MET192     -0.2718
     62  CB       -13.1170  -18.6560   25.1820 C.3   192  MET192      0.0401
     63  CG       -13.2400  -18.7300   23.6630 C.3   192  MET192      0.0596
     64  SD       -12.4740  -20.1660   22.8370 S.3   192  MET192     -0.1393
     65  CE       -12.8710  -21.4790   23.9710 C.3   192  MET192      0.0692
     66  N        -13.8040  -18.0080   27.9640 N.am  193  SER193     -0.1938
     67  CA       -13.8860  -17.8230   29.4220 C.3   193  SER193      0.2055
     68  C        -12.5580  -17.5860   30.0790 C.2   193  SER193      0.2643
     69  O        -12.4270  -16.7140   30.9100 O.2   193  SER193     -0.2714
     70  CB       -14.5670  -18.9970   30.1150 C.3   193  SER193      0.2130
     71  OG       -15.9700  -18.9480   29.9250 O.3   193  SER193     -0.2179
     72  N        -11.5600  -18.3560   29.6970 N.am  194  SER194     -0.1949
     73  CA       -10.2940  -18.2490   30.3830 C.3   194  SER194      0.1924
     74  C         -9.4060  -17.0870   29.8870 C.2   194  SER194      0.2314
     75  O         -8.5430  -16.5950   30.6140 O.2   194  SER194     -0.2863
     76  CB        -9.5560  -19.6020   30.2840 C.3   194  SER194      0.2116
     77  OG        -9.0500  -19.8030   28.9520 O.3   194  SER194     -0.2180
     78  N        -16.4020  -14.5390   23.3500 N.3   208  ARG208     -0.1245
     79  CA       -17.2920  -15.7120   23.2700 C.3   208  ARG208      0.1563
     80  C        -17.1940  -16.4490   24.5560 C.2   208  ARG208      0.2260
     81  O        -16.2860  -17.2570   24.7510 O.2   208  ARG208     -0.2867
     82  CB       -16.9010  -16.6270   22.0670 C.3   208  ARG208      0.0307
     83  CG       -16.9730  -15.9420   20.7030 C.3   208  ARG208      0.0489
     84  CD       -16.5420  -16.8550   19.5150 C.3   208  ARG208      0.2205
     85  NE       -15.4510  -17.7350   19.9310 N.pl3 208  ARG208     -0.0865
     86  CZ       -14.1520  -17.5350   19.7480 C.cat 208  ARG208      0.5346
     87  NH1      -13.6920  -16.5450   19.0280 N.pl3 208  ARG208      0.1354
     88  NH2      -13.3220  -18.4240   20.2280 N.pl3 208  ARG208      0.1354
     89  N        -18.7120  -18.8310   27.5840 N.3   210  GLY210     -0.1210
     90  CA       -19.7160  -19.8440   27.9600 C.3   210  GLY210      0.1956
     91  C        -19.7190  -20.1460   29.4530 C.2   210  GLY210      0.2612
     92  O        -20.6060  -19.7010   30.2080 O.2   210  GLY210     -0.2717
     93  N        -18.7590  -20.9570   29.8550 N.am  211  THR211     -0.1952
     94  CA       -18.6520  -21.4430   31.2330 C.3   211  THR211      0.1897
     95  C        -18.6840  -20.3560   32.3060 C.2   211  THR211      0.2313
     96  O        -19.4400  -20.4530   33.2790 O.2   211  THR211     -0.2863
     97  CB       -17.3790  -22.2730   31.3520 C.3   211  THR211      0.1794
     98  OG1      -17.4190  -23.2970   30.3360 O.3   211  THR211     -0.2208
     99  CG2      -17.2580  -22.8850   32.7260 C.3   211  THR211      0.0378
@<TRIPOS>BOND
     1    42    43    1
     2    36    35    2
     3    45    44    2
     4    35    34    1
     5    46    43    1
     6    46    47    1
     7    43    44    1
     8    48    47    1
     9    48    49    1
    10    34    37    1
    11    34    33    1
    12    25    26    1
    13    20    19    2
    14    27    28    2
    15    27    26    1
    16    37    38    1
    17    26    29    1
    18    19    18    1
    19    57    55    1
    20    39    38    1
    21    39    40    1
    22    32    30    1
    23    50    51    1
    24    29    30    1
    25    18    21    1
    26    18    17    1
    27    55    54    1
    28    30    31    1
    29    53    52    2
    30    54    51    1
    31    54    56    1
    32    21    22    1
    33    40    41    1
    34    51    52    1
    35    87    86    1
    36    24    22   am
    37    22    23    2
    38    84    85    1
    39    84    83    1
    40    86    85    2
    41    86    88    1
    42    83    82    1
    43    82    79    1
    44    64    63    1
    45    64    65    1
    46    12    13    1
    47    12     9    1
    48    14    15    1
    49    14    13    1
    50    16    15    1
    51    79    78    1
    52    79    80    1
    53     7     5    1
    54    63    62    1
    55     6     5    1
    56     9     8    1
    57     9    10    1
    58     5     2    1
    59     2     1    1
    60     2     3    1
    61    80    81    2
    62    10    11    2
    63    58    59    1
    64     3     4    2
    65    62    59    1
    66    59    60    1
    67    60    61    2
    68    60    66   am
    69    89    90    1
    70    90    91    1
    71    66    67    1
    72    77    76    1
    73    67    68    1
    74    67    70    1
    75    91    93   am
    76    91    92    2
    77    72    68   am
    78    72    73    1
    79    93    94    1
    80    74    73    1
    81    74    75    2
    82    71    70    1
    83    68    69    2
    84    76    73    1
    85    98    97    1
    86    94    97    1
    87    94    95    1
    88    97    99    1
    89    95    96    2
