@<TRIPOS>MOLECULE
tmp/5nmiG02.pdb
 87 87 0 0 0
SMALL
GASTEIGER

@<TRIPOS>ATOM
      1  N         55.0320   -2.3290   12.1760 N.3    26  PHE26      -0.1228
      2  CA        54.0370   -3.2200   12.7870 C.3    26  PHE26       0.1721
      3  C         54.4790   -3.7680   14.1530 C.2    26  PHE26       0.2437
      4  O         54.7330   -4.9690   14.2840 O.2    26  PHE26      -0.2733
      5  CB        53.7480   -4.3870   11.8380 C.3    26  PHE26       0.0547
      6  CG        53.1990   -3.9700   10.5090 C.ar   26  PHE26      -0.0202
      7  CD1       51.8440   -3.7140   10.3570 C.ar   26  PHE26      -0.0042
      8  CD2       54.0310   -3.8480    9.3990 C.ar   26  PHE26      -0.0042
      9  CE1       51.3290   -3.3410    9.1270 C.ar   26  PHE26      -0.0003
     10  CE2       53.5220   -3.4710    8.1660 C.ar   26  PHE26      -0.0003
     11  CZ        52.1670   -3.2140    8.0300 C.ar   26  PHE26      -0.0000
     12  N         54.5510   -2.9000   15.1830 N.am   27  PRO27      -0.2718
     13  CA        54.9880   -3.3570   16.5090 C.3    27  PRO27       0.1535
     14  C         53.8950   -4.1050   17.2790 C.2    27  PRO27       0.2599
     15  O         52.8810   -3.5050   17.6440 O.2    27  PRO27      -0.2715
     16  CB        55.3550   -2.0530   17.2200 C.3    27  PRO27       0.0310
     17  CG        54.4670   -1.0310   16.6040 C.3    27  PRO27       0.0237
     18  CD        54.2590   -1.4540   15.1770 C.3    27  PRO27       0.0939
     19  N         54.1200   -5.3990   17.5210 N.am   28  HIS28      -0.1960
     20  CA        53.2000   -6.2600   18.2800 C.3    28  HIS28       0.1787
     21  C         51.7770   -6.2250   17.7060 C.2    28  HIS28       0.2620
     22  O         50.8060   -5.8840   18.4000 O.2    28  HIS28      -0.2715
     23  CB        53.2300   -5.8990   19.7730 C.3    28  HIS28       0.0785
     24  CG        54.5700   -6.1030   20.4140 C.ar   28  HIS28       0.0821
     25  ND1       55.0910   -5.2360   21.3510 N.ar   28  HIS28      -0.2267
     26  CD2       55.5040   -7.0660   20.2330 C.ar   28  HIS28       0.1154
     27  CE1       56.2820   -5.6640   21.7300 C.ar   28  HIS28       0.1986
     28  NE2       56.5560   -6.7730   21.0670 N.ar   28  HIS28      -0.2212
     29  N         51.6850   -6.5950   16.4280 N.am   29  TYR29      -0.1974
     30  CA        50.4420   -6.5180   15.6600 C.3    29  TYR29       0.1639
     31  C         49.4520   -7.6110   16.0730 C.2    29  TYR29       0.2290
     32  O         48.3750   -7.3070   16.5770 O.2    29  TYR29      -0.2864
     33  CB        50.7460   -6.5860   14.1580 C.3    29  TYR29       0.0560
     34  CG        49.5410   -6.3880   13.2700 C.ar   29  TYR29      -0.0198
     35  CD1       49.0010   -5.1180   13.0700 C.ar   29  TYR29      -0.0009
     36  CD2       48.9400   -7.4690   12.6210 C.ar   29  TYR29      -0.0009
     37  CE1       47.8950   -4.9280   12.2560 C.ar   29  TYR29       0.0417
     38  CE2       47.8340   -7.2900   11.8050 C.ar   29  TYR29       0.0417
     39  CZ        47.3150   -6.0190   11.6250 C.ar   29  TYR29       0.1957
     40  OH        46.2190   -5.8360   10.8170 O.3    29  TYR29      -0.2866
     41  N         49.5090   -7.8210   20.5800 N.3    32  LYS32      -0.1231
     42  CA        48.6350   -6.9030   21.3270 C.3    32  LYS32       0.1693
     43  C         47.3230   -6.5720   20.6130 C.2    32  LYS32       0.2593
     44  O         46.3430   -6.2080   21.2720 O.2    32  LYS32      -0.2718
     45  CB        49.3670   -5.5960   21.6370 C.3    32  LYS32       0.0285
     46  CG        50.5160   -5.7440   22.6170 C.3    32  LYS32       0.0035
     47  CD        51.0460   -4.3810   23.0330 C.3    32  LYS32       0.0206
     48  CE        52.3800   -4.4880   23.7530 C.3    32  LYS32       0.1093
     49  NZ        52.2880   -5.2430   25.0330 N.3    32  LYS32      -0.1314
     50  N         47.2980   -6.6970   19.2880 N.am   33  GLY33      -0.1942
     51  CA        46.1450   -6.2670   18.4930 C.3    33  GLY33       0.2014
     52  C         44.9100   -7.1350   18.6340 C.2    33  GLY33       0.2638
     53  O         43.8420   -6.6300   18.9860 O.2    33  GLY33      -0.2714
     54  N         45.0610   -8.4380   18.3910 N.am   34  ILE34      -0.1977
     55  CA        43.9110   -9.3700   18.3710 C.3    34  ILE34       0.1596
     56  C         43.0910   -9.3130   19.6740 C.2    34  ILE34       0.2287
     57  O         41.8600   -9.3340   19.6120 O.2    34  ILE34      -0.2864
     58  CB        44.3070  -10.8420   18.0330 C.3    34  ILE34       0.0276
     59  CG1       45.1530  -10.9320   16.7450 C.3    34  ILE34       0.0022
     60  CG2       43.0660  -11.7280   17.9080 C.3    34  ILE34       0.0022
     61  CD1       44.5630  -10.2490   15.5270 C.3    34  ILE34       0.0001
     62  N         43.0020   -6.5360   21.6340 N.3    36  ASN36      -0.1225
     63  CA        42.4160   -5.1910   21.5550 C.3    36  ASN36       0.1785
     64  C         41.2160   -5.1540   20.6040 C.2    36  ASN36       0.2597
     65  O         40.2090   -4.5070   20.8970 O.2    36  ASN36      -0.2718
     66  CB        43.4630   -4.1610   21.1110 C.3    36  ASN36       0.1169
     67  CG        43.1140   -2.7500   21.5460 C.2    36  ASN36       0.2627
     68  OD1       43.1690   -2.4280   22.7320 O.2    36  ASN36      -0.2716
     69  ND2       42.7650   -1.8980   20.5890 N.am   36  ASN36      -0.0877
     70  N         41.3400   -5.8520   19.4730 N.am   37  VAL37      -0.1980
     71  CA        40.2490   -6.0040   18.5040 C.3    37  VAL37       0.1595
     72  C         39.0590   -6.6970   19.1590 C.2    37  VAL37       0.2287
     73  O         37.9230   -6.2450   19.0180 O.2    37  VAL37      -0.2864
     74  CB        40.6910   -6.8130   17.2560 C.3    37  VAL37       0.0276
     75  CG1       39.4990   -7.1770   16.3690 C.3    37  VAL37       0.0022
     76  CG2       41.7240   -6.0350   16.4460 C.3    37  VAL37       0.0022
     77  N         37.3100   -4.3990   21.7410 N.3    40  ARG40      -0.1245
     78  CA        36.4800   -3.4500   20.9920 C.3    40  ARG40       0.1563
     79  C         35.1930   -4.0930   20.4710 C.2    40  ARG40       0.2260
     80  O         34.1310   -3.4640   20.4920 O.2    40  ARG40      -0.2867
     81  CB        37.2650   -2.8540   19.8190 C.3    40  ARG40       0.0307
     82  CG        38.3820   -1.9070   20.2290 C.3    40  ARG40       0.0489
     83  CD        39.4340   -1.7840   19.1390 C.3    40  ARG40       0.2205
     84  NE        38.8650   -1.3440   17.8670 N.pl3  40  ARG40      -0.0865
     85  CZ        39.5200   -1.3080   16.7040 C.cat  40  ARG40       0.5346
     86  NH1       40.7970   -1.6830   16.6160 N.pl3  40  ARG40       0.1354
     87  NH2       38.8910   -0.8900   15.6090 N.pl3  40  ARG40       0.1354
@<TRIPOS>BOND
     1    11    10   ar
     2    11     9   ar
     3    10     8   ar
     4     9     7   ar
     5     8     6   ar
     6     7     6   ar
     7     6     5    1
     8    40    39    1
     9    39    38   ar
    10    39    37   ar
    11    38    36   ar
    12     5     2    1
    13     1     2    1
    14    37    35   ar
    15    36    34   ar
    16     2     3    1
    17    35    34   ar
    18    34    33    1
    19     3     4    2
    20     3    12   am
    21    33    30    1
    22    18    12    1
    23    18    17    1
    24    12    13    1
    25    61    59    1
    26    87    85    1
    27    30    31    1
    28    30    29    1
    29    31    32    2
    30    75    74    1
    31    29    21   am
    32    76    74    1
    33    13    16    1
    34    13    14    1
    35    17    16    1
    36    86    85    1
    37    85    84    2
    38    59    58    1
    39    74    71    1
    40    14    19   am
    41    14    15    2
    42    19    20    1
    43    21    20    1
    44    21    22    2
    45    84    83    1
    46    60    58    1
    47    58    55    1
    48    20    23    1
    49    55    54    1
    50    55    56    1
    51    54    52   am
    52    51    52    1
    53    51    50    1
    54    71    72    1
    55    71    70    1
    56    52    53    2
    57    73    72    2
    58    83    82    1
    59    50    43   am
    60    70    64   am
    61    57    56    2
    62    23    24    1
    63    81    82    1
    64    81    78    1
    65    26    24   ar
    66    26    28   ar
    67    24    25   ar
    68    79    80    2
    69    79    78    1
    70    41    42    1
    71    69    67   am
    72    64    65    2
    73    64    63    1
    74    43    44    2
    75    43    42    1
    76    78    77    1
    77    28    27   ar
    78    66    67    1
    79    66    63    1
    80    42    45    1
    81    25    27   ar
    82    67    68    2
    83    63    62    1
    84    45    46    1
    85    46    47    1
    86    47    48    1
    87    48    49    1
