@<TRIPOS>MOLECULE
tmp/5nmiC07.pdb
 97 89 0 0 0
SMALL
GASTEIGER

@<TRIPOS>ATOM
      1  N         38.2790    5.5140   10.0750 N.3    22  SER22      -0.1217
      2  CA        38.0680    5.2810    8.6380 C.3    22  SER22       0.1889
      3  C         36.6780    5.6740    8.1170 C.2    22  SER22       0.2288
      4  O         36.4340    5.5840    6.9110 O.2    22  SER22      -0.2866
      5  CB        38.3420    3.8270    8.2600 C.3    22  SER22       0.2089
      6  OG        39.5430    3.3370    8.8340 O.3    22  SER22      -0.2183
      7  N         36.9960    8.6130    5.6890 N.3    25  ASN25      -0.1225
      8  CA        37.5700    8.3160    4.3710 C.3    25  ASN25       0.1785
      9  C         36.5520    8.3680    3.2260 C.2    25  ASN25       0.2597
     10  O         36.9490    8.5590    2.0850 O.2    25  ASN25      -0.2718
     11  CB        38.2860    6.9570    4.3640 C.3    25  ASN25       0.1169
     12  CG        39.6280    7.0020    5.0710 C.2    25  ASN25       0.2627
     13  OD1       39.7110    7.2790    6.2690 O.2    25  ASN25      -0.2716
     14  ND2       40.6930    6.7340    4.3250 N.am   25  ASN25      -0.0877
     15  N         35.2620    8.2060    3.5270 N.am   26  PHE26      -0.1976
     16  CA        34.2170    8.1850    2.4910 C.3    26  PHE26       0.1639
     17  C         34.0200    9.4910    1.7190 C.2    26  PHE26       0.2290
     18  O         33.6010    9.4520    0.5610 O.2    26  PHE26      -0.2864
     19  CB        32.8810    7.7070    3.0770 C.3    26  PHE26       0.0560
     20  CG        32.8810    6.2520    3.4380 C.ar   26  PHE26      -0.0200
     21  CD1       32.8490    5.2840    2.4400 C.ar   26  PHE26      -0.0042
     22  CD2       32.9420    5.8430    4.7680 C.ar   26  PHE26      -0.0042
     23  CE1       32.8690    3.9340    2.7590 C.ar   26  PHE26      -0.0003
     24  CE2       32.9540    4.4930    5.0940 C.ar   26  PHE26      -0.0003
     25  CZ        32.9180    3.5370    4.0880 C.ar   26  PHE26      -0.0000
     26  N         36.4430    9.3800   -1.0970 N.3    29  LEU29      -0.1245
     27  CA        35.9690    8.3130   -1.9860 C.3    29  LEU29       0.1561
     28  C         34.7900    8.7610   -2.8430 C.2    29  LEU29       0.2260
     29  O         34.7200    8.4040   -4.0190 O.2    29  LEU29      -0.2867
     30  CB        35.5680    7.0680   -1.1840 C.3    29  LEU29       0.0270
     31  CG        36.6600    6.3580   -0.3760 C.3    29  LEU29       0.0019
     32  CD1       36.0570    5.1610    0.3430 C.3    29  LEU29       0.0001
     33  CD2       37.8540    5.9350   -1.2190 C.3    29  LEU29       0.0001
     34  N         28.5850    1.9700   -6.0540 N.3    82  MET82      -0.1245
     35  CA        29.6620    2.2560   -5.0930 C.3    82  MET82       0.1570
     36  C         29.6160    3.6980   -4.5770 C.2    82  MET82       0.2261
     37  O         29.8970    3.9480   -3.4020 O.2    82  MET82      -0.2867
     38  CB        31.0400    1.9790   -5.7140 C.3    82  MET82       0.0387
     39  CG        31.3340    0.5150   -6.0210 C.3    82  MET82       0.0595
     40  SD        31.1960   -0.6150   -4.6190 S.3    82  MET82      -0.1393
     41  CE        32.4110    0.0650   -3.4900 C.3    82  MET82       0.0692
     42  N         26.7330    3.4840   -2.0410 N.3    85  ILE85      -0.1231
     43  CA        27.1850    2.8250   -0.8040 C.3    85  ILE85       0.1692
     44  C         27.9600    3.8570    0.0160 C.2    85  ILE85       0.2592
     45  O         27.6120    4.1250    1.1680 O.2    85  ILE85      -0.2718
     46  CB        28.0660    1.5740   -1.0620 C.3    85  ILE85       0.0266
     47  CG1       27.2450    0.4560   -1.7200 C.3    85  ILE85       0.0019
     48  CG2       28.6740    1.0520    0.2430 C.3    85  ILE85       0.0020
     49  CD1       28.0820   -0.6150   -2.3870 C.3    85  ILE85       0.0001
     50  N         28.9780    4.4470   -0.6130 N.am   86  CYS86      -0.1970
     51  CA        29.7900    5.5100   -0.0090 C.3    86  CYS86       0.1712
     52  C         28.9650    6.6710    0.5540 C.2    86  CYS86       0.2296
     53  O         29.2860    7.1840    1.6240 O.2    86  CYS86      -0.2864
     54  CB        30.8110    6.0500   -1.0200 C.3    86  CYS86       0.0983
     55  SG        32.2150    4.9500   -1.3190 S.3    86  CYS86      -0.0798
     56  N         46.4950    7.7900    4.0220 N.3   220  LYS220     -0.1245
     57  CA        45.3150    7.0680    4.5180 C.3   220  LYS220      0.1561
     58  C         44.1780    7.0520    3.4930 C.2   220  LYS220      0.2260
     59  O         43.5540    6.0110    3.2820 O.2   220  LYS220     -0.2867
     60  CB        44.8090    7.6440    5.8460 C.3   220  LYS220      0.0271
     61  CG        43.9240    6.6670    6.6070 C.3   220  LYS220      0.0035
     62  CD        43.4420    7.2210    7.9380 C.3   220  LYS220      0.0206
     63  CE        42.8350    6.1180    8.7910 C.3   220  LYS220      0.1093
     64  NZ        42.5470    6.5580   10.1820 N.3   220  LYS220     -0.1314
     65  N         45.1730    4.6680    0.6820 N.3   223  LEU223     -0.1231
     66  CA        44.8700    3.3020    1.1270 C.3   223  LEU223      0.1693
     67  C         43.3910    2.9610    0.9370 C.2   223  LEU223      0.2592
     68  O         43.0520    1.9080    0.3870 O.2   223  LEU223     -0.2718
     69  CB        45.2610    3.1360    2.5990 C.3   223  LEU223      0.0284
     70  CG        44.9590    1.8170    3.3150 C.3   223  LEU223      0.0019
     71  CD1       45.6670    0.6400    2.6600 C.3   223  LEU223      0.0001
     72  CD2       45.3720    1.9260    4.7760 C.3   223  LEU223      0.0001
     73  N         42.5260    3.8650    1.3950 N.am  224  GLY224     -0.1957
     74  CA        41.0760    3.7280    1.2420 C.3   224  GLY224      0.1869
     75  C         40.5890    3.7270   -0.1980 C.2   224  GLY224      0.2309
     76  O         39.6110    3.0480   -0.5210 O.2   224  GLY224     -0.2863
     77  N         40.8790    0.2480   -1.5970 N.3   227  LEU227     -0.1231
     78  CA        39.7920   -0.5960   -1.0900 C.3   227  LEU227      0.1693
     79  C         38.4780   -0.3380   -1.8350 C.2   227  LEU227      0.2591
     80  O         37.7190   -1.2740   -2.0920 O.2   227  LEU227     -0.2718
     81  CB        39.6120   -0.4000    0.4190 C.3   227  LEU227      0.0284
     82  CG        40.7920   -0.9020    1.2660 C.3   227  LEU227      0.0019
     83  CD1       40.8020   -0.2510    2.6370 C.3   227  LEU227      0.0001
     84  CD2       40.7740   -2.4190    1.3990 C.3   227  LEU227      0.0001
     85  N         38.2180    0.9240   -2.1770 N.am  228  LEU228     -0.1980
     86  CA        37.1020    1.2810   -3.0610 C.3   228  LEU228      0.1596
     87  C         37.2930    0.7070   -4.4660 C.2   228  LEU228      0.2287
     88  O         36.3420    0.1870   -5.0570 O.2   228  LEU228     -0.2864
     89  CB        36.9490    2.8010   -3.1590 C.3   228  LEU228      0.0297
     90  CG        35.7750    3.3190   -4.0020 C.3   228  LEU228      0.0022
     91  CD1       34.4620    3.1030   -3.2620 C.3   228  LEU228      0.0001
     92  CD2       35.9650    4.7830   -4.3710 C.3   228  LEU228      0.0001
     93  N         36.7850   -3.0770   -4.2870 N.3   231  ALA231     -0.1245
     94  CA        35.3350   -3.2960   -4.2180 C.3   231  ALA231      0.1562
     95  C         34.6210   -3.0510   -5.5520 C.2   231  ALA231      0.2260
     96  O         33.6750   -3.7680   -5.8840 O.2   231  ALA231     -0.2867
     97  CB        34.7240   -2.4250   -3.1310 C.3   231  ALA231      0.0290
@<TRIPOS>BOND
     1    34    35    1
     2    39    38    1
     3    39    40    1
     4    96    95    2
     5    38    35    1
     6    95    94    1
     7    35    36    1
     8    88    87    2
     9    40    41    1
    10    36    37    2
    11    87    86    1
    12    92    90    1
    13    93    94    1
    14    94    97    1
    15    29    28    2
    16    90    91    1
    17    90    89    1
    18    89    86    1
    19    86    85    1
    20    28    27    1
    21    49    47    1
    22    85    79   am
    23    80    79    2
    24    42    43    1
    25    27    30    1
    26    27    26    1
    27    79    78    1
    28    47    46    1
    29    77    78    1
    30    55    54    1
    31    33    31    1
    32    30    31    1
    33    78    81    1
    34    46    43    1
    35    46    48    1
    36    54    51    1
    37    43    44    1
    38    50    51    1
    39    50    44   am
    40    76    75    2
    41    31    32    1
    42    75    74    1
    43    51    52    1
    44    44    45    2
    45    68    67    2
    46    81    82    1
    47    52    53    2
    48    18    17    2
    49    65    66    1
    50    67    66    1
    51    67    73   am
    52    66    69    1
    53    74    73    1
    54    82    84    1
    55    82    83    1
    56    17    16    1
    57    10     9    2
    58    21    23   ar
    59    21    20   ar
    60    16    19    1
    61    16    15    1
    62    69    70    1
    63    71    70    1
    64    23    25   ar
    65    19    20    1
    66     9    15   am
    67     9     8    1
    68    59    58    2
    69    70    72    1
    70    20    22   ar
    71    58    57    1
    72    56    57    1
    73    25    24   ar
    74    14    12   am
    75    11     8    1
    76    11    12    1
    77     8     7    1
    78    57    60    1
    79    22    24   ar
    80    12    13    2
    81    60    61    1
    82    61    62    1
    83     4     3    2
    84    62    63    1
    85     3     2    1
    86     5     2    1
    87     5     6    1
    88     2     1    1
    89    63    64    1
