@<TRIPOS>MOLECULE
tmp/5nmiC03.pdb
 152 151 0 0 0
SMALL
GASTEIGER

@<TRIPOS>ATOM
      1  N         35.7730    6.0930    9.0020 N.3    23  TRP23      -0.1241
      2  CA        34.4680    6.6290    8.5870 C.3    23  TRP23       0.1605
      3  C         34.5430    8.0030    7.8870 C.2    23  TRP23       0.2264
      4  O         33.6040    8.3880    7.1860 O.2    23  TRP23      -0.2867
      5  CB        33.5120    6.6820    9.7840 C.3    23  TRP23       0.0550
      6  CG        33.1980    5.3270   10.3300 C.ar   23  TRP23       0.0003
      7  CD1       33.6510    4.7810   11.4940 C.ar   23  TRP23       0.0946
      8  CD2       32.3740    4.3350    9.7150 C.ar   23  TRP23       0.0152
      9  NE1       33.1510    3.5100   11.6490 N.ar   23  TRP23      -0.2442
     10  CE2       32.3660    3.2100   10.5690 C.ar   23  TRP23       0.0810
     11  CE3       31.6350    4.2880    8.5260 C.ar   23  TRP23       0.0012
     12  CZ2       31.6440    2.0480   10.2720 C.ar   23  TRP23       0.0191
     13  CZ3       30.9190    3.1340    8.2290 C.ar   23  TRP23       0.0001
     14  CH2       30.9270    2.0300    9.1020 C.ar   23  TRP23       0.0015
     15  N         25.6960    6.5800    1.6200 N.3    88  TYR88      -0.1227
     16  CA        24.9810    6.1010    2.8050 C.3    88  TYR88       0.1736
     17  C         25.8950    5.8740    4.0190 C.2    88  TYR88       0.2595
     18  O         25.4410    6.0020    5.1550 O.2    88  TYR88      -0.2718
     19  CB        24.1510    4.8500    2.4800 C.3    88  TYR88       0.0548
     20  CG        22.9820    5.1390    1.5560 C.ar   88  TYR88      -0.0200
     21  CD1       22.0210    6.0950    1.8950 C.ar   88  TYR88      -0.0009
     22  CD2       22.8340    4.4630    0.3430 C.ar   88  TYR88      -0.0009
     23  CE1       20.9530    6.3740    1.0560 C.ar   88  TYR88       0.0417
     24  CE2       21.7650    4.7340   -0.5050 C.ar   88  TYR88       0.0417
     25  CZ        20.8250    5.6900   -0.1420 C.ar   88  TYR88       0.1957
     26  OH        19.7600    5.9730   -0.9650 O.3    88  TYR88      -0.2866
     27  N         27.1750    5.5830    3.7780 N.am   89  MET89      -0.1979
     28  CA        28.1870    5.5790    4.8430 C.3    89  MET89       0.1605
     29  C         28.4730    7.0150    5.3010 C.2    89  MET89       0.2287
     30  O         28.4680    7.3060    6.4970 O.2    89  MET89      -0.2864
     31  CB        29.4960    4.9340    4.3670 C.3    89  MET89       0.0413
     32  CG        29.3960    3.4930    3.8690 C.3    89  MET89       0.0598
     33  SD        29.0310    2.2550    5.1270 S.3    89  MET89      -0.1393
     34  CE        27.2480    2.1260    4.9950 C.3    89  MET89       0.0692
     35  N         26.6880    9.7590    5.0030 N.3    91  VAL91      -0.1231
     36  CA        25.5390   10.3880    5.6720 C.3    91  VAL91       0.1692
     37  C         25.3920    9.8540    7.0950 C.2    91  VAL91       0.2593
     38  O         25.2000   10.6320    8.0360 O.2    91  VAL91      -0.2718
     39  CB        24.2230   10.1680    4.8820 C.3    91  VAL91       0.0266
     40  CG1       23.0090   10.6890    5.6550 C.3    91  VAL91       0.0020
     41  CG2       24.3010   10.8460    3.5180 C.3    91  VAL91       0.0020
     42  N         25.4710    8.5310    7.2390 N.am   92  GLY92      -0.1942
     43  CA        25.3420    7.8650    8.5380 C.3    92  GLY92       0.2014
     44  C         26.4110    8.2480    9.5470 C.2    92  GLY92       0.2638
     45  O         26.1140    8.4250   10.7310 O.2    92  GLY92      -0.2714
     46  N         27.6510    8.3670    9.0710 N.am   93  ARG93      -0.1977
     47  CA        28.7740    8.8630    9.8740 C.3    93  ARG93       0.1597
     48  C         28.3970   10.1710   10.5680 C.2    93  ARG93       0.2287
     49  O         28.5610   10.3060   11.7790 O.2    93  ARG93      -0.2864
     50  CB        30.0110    9.0570    8.9830 C.3    93  ARG93       0.0334
     51  CG        31.2980    9.4910    9.6950 C.3    93  ARG93       0.0492
     52  CD        31.3980   10.9840   10.0090 C.3    93  ARG93       0.2205
     53  NE        30.8820   11.7940    8.9040 N.pl3  93  ARG93      -0.0865
     54  CZ        31.5500   12.0980    7.7880 C.cat  93  ARG93       0.5346
     55  NH1       32.8110   11.7200    7.6000 N.pl3  93  ARG93       0.1354
     56  NH2       30.9510   12.8260    6.8500 N.pl3  93  ARG93       0.1354
     57  N         25.3580   11.4470   11.0320 N.3    95  LEU95      -0.1231
     58  CA        24.2630   11.1460   11.9700 C.3    95  LEU95       0.1693
     59  C         24.7680   10.6170   13.3120 C.2    95  LEU95       0.2592
     60  O         24.2630   11.0070   14.3670 O.2    95  LEU95      -0.2718
     61  CB        23.2750   10.1340   11.3670 C.3    95  LEU95       0.0284
     62  CG        22.0040   10.7530   10.7840 C.3    95  LEU95       0.0019
     63  CD1       21.3510    9.8280    9.7670 C.3    95  LEU95       0.0001
     64  CD2       21.0340   11.1030   11.9020 C.3    95  LEU95       0.0001
     65  N         25.7570    9.7280   13.2540 N.am   96  TYR96      -0.1962
     66  CA        26.3220    9.0940   14.4440 C.3    96  TYR96       0.1771
     67  C         27.1740   10.0770   15.2420 C.2    96  TYR96       0.2619
     68  O         26.9160   10.3090   16.4200 O.2    96  TYR96      -0.2715
     69  CB        27.1550    7.8740   14.0330 C.3    96  TYR96       0.0574
     70  CG        27.6370    7.0150   15.1760 C.ar   96  TYR96      -0.0198
     71  CD1       28.8700    7.2610   15.7860 C.ar   96  TYR96      -0.0009
     72  CD2       26.8740    5.9410   15.6360 C.ar   96  TYR96      -0.0009
     73  CE1       29.3200    6.4720   16.8340 C.ar   96  TYR96       0.0417
     74  CE2       27.3140    5.1440   16.6810 C.ar   96  TYR96       0.0417
     75  CZ        28.5330    5.4120   17.2780 C.ar   96  TYR96       0.1957
     76  OH        28.9590    4.6130   18.3030 O.3    96  TYR96      -0.2866
     77  N         28.1700   10.6680   14.5890 N.am   97  TYR97      -0.1974
     78  CA        29.1340   11.5500   15.2590 C.3    97  TYR97       0.1639
     79  C         28.6810   13.0130   15.4160 C.2    97  TYR97       0.2290
     80  O         29.4550   13.8500   15.8850 O.2    97  TYR97      -0.2864
     81  CB        30.4840   11.4710   14.5420 C.3    97  TYR97       0.0560
     82  CG        31.0980   10.0900   14.6060 C.ar   97  TYR97      -0.0198
     83  CD1       31.6050    9.5960   15.8030 C.ar   97  TYR97      -0.0009
     84  CD2       31.1620    9.2710   13.4800 C.ar   97  TYR97      -0.0009
     85  CE1       32.1680    8.3310   15.8820 C.ar   97  TYR97       0.0417
     86  CE2       31.7230    8.0010   13.5470 C.ar   97  TYR97       0.0417
     87  CZ        32.2240    7.5360   14.7520 C.ar   97  TYR97       0.1957
     88  OH        32.7900    6.2840   14.8280 O.3    97  TYR97      -0.2866
     89  N         35.7970   11.5140   16.1480 N.3   201  PRO201     -0.2116
     90  CA        34.8470   10.5510   16.7390 C.3   201  PRO201      0.1372
     91  C         34.3560   10.8230   18.1680 C.2   201  PRO201      0.2244
     92  O         33.2590   10.3870   18.5180 O.2   201  PRO201     -0.2868
     93  CB        35.6190    9.2250   16.7020 C.3   201  PRO201      0.0268
     94  CG        36.6020    9.3890   15.6010 C.3   201  PRO201      0.0207
     95  CD        37.0100   10.8290   15.6560 C.3   201  PRO201      0.0892
     96  N         29.4350    8.4560   20.5730 N.3   309  MET309     -0.1245
     97  CA        30.4540    7.6000   21.2150 C.3   309  MET309      0.1570
     98  C         30.1760    7.3370   22.6990 C.2   309  MET309      0.2261
     99  O         30.3680    6.2150   23.1690 O.2   309  MET309     -0.2867
    100  CB        31.8620    8.2000   21.0600 C.3   309  MET309      0.0387
    101  CG        32.9850    7.3280   21.6200 C.3   309  MET309      0.0595
    102  SD        34.6320    8.0490   21.4630 S.3   309  MET309     -0.1393
    103  CE        35.1930    7.3320   19.9210 C.3   309  MET309      0.0692
    104  N         23.0590    5.1460   20.5050 N.3   315  GLN315     -0.1245
    105  CA        23.7680    4.1410   19.6910 C.3   315  GLN315      0.1566
    106  C         22.8610    2.9850   19.2790 C.2   315  GLN315      0.2260
    107  O         22.8650    2.5730   18.1180 O.2   315  GLN315     -0.2867
    108  CB        25.0040    3.5860   20.4190 C.3   315  GLN315      0.0367
    109  CG        26.2470    4.4460   20.2700 C.3   315  GLN315      0.0905
    110  CD        27.5000    3.7780   20.8090 C.2   315  GLN315      0.2608
    111  OE1       27.7860    2.6230   20.4930 O.2   315  GLN315     -0.2717
    112  NE2       28.2690    4.5140   21.6040 N.am  315  GLN315     -0.0878
    113  N         20.2580    4.3090   16.8510 N.3   318  PHE318     -0.1227
    114  CA        20.9450    4.5530   15.5770 C.3   318  PHE318      0.1736
    115  C         21.0920    3.2410   14.8190 C.2   318  PHE318      0.2595
    116  O         20.6920    3.1440   13.6630 O.2   318  PHE318     -0.2718
    117  CB        22.3220    5.1970   15.7960 C.3   318  PHE318      0.0547
    118  CG        23.1630    5.2780   14.5510 C.ar  318  PHE318     -0.0202
    119  CD1       23.9880    4.2150   14.1790 C.ar  318  PHE318     -0.0042
    120  CD2       23.1310    6.4110   13.7430 C.ar  318  PHE318     -0.0042
    121  CE1       24.7630    4.2860   13.0300 C.ar  318  PHE318     -0.0003
    122  CE2       23.9060    6.4880   12.5920 C.ar  318  PHE318     -0.0003
    123  CZ        24.7220    5.4230   12.2340 C.ar  318  PHE318     -0.0000
    124  N         21.6690    2.2400   15.4800 N.am  319  TRP319     -0.1976
    125  CA        21.8320    0.9070   14.8900 C.3   319  TRP319      0.1640
    126  C         20.4980    0.2060   14.6040 C.2   319  TRP319      0.2290
    127  O         20.4410   -0.6860   13.7550 O.2   319  TRP319     -0.2864
    128  CB        22.7350    0.0220   15.7600 C.3   319  TRP319      0.0576
    129  CG        24.1840    0.3860   15.6640 C.ar  319  TRP319      0.0006
    130  CD1       25.0010    0.7940   16.6790 C.ar  319  TRP319      0.0946
    131  CD2       24.9870    0.3850   14.4810 C.ar  319  TRP319      0.0152
    132  NE1       26.2640    1.0430   16.2010 N.ar  319  TRP319     -0.2442
    133  CE2       26.2850    0.7970   14.8560 C.ar  319  TRP319      0.0810
    134  CE3       24.7380    0.0680   13.1380 C.ar  319  TRP319      0.0012
    135  CZ2       27.3340    0.9050   13.9340 C.ar  319  TRP319      0.0191
    136  CZ3       25.7820    0.1760   12.2190 C.ar  319  TRP319      0.0001
    137  CH2       27.0650    0.5900   12.6250 C.ar  319  TRP319      0.0015
    138  N         19.4960    1.8810   11.1960 N.3   322  VAL322     -0.1245
    139  CA        20.2390    1.2320   10.1090 C.3   322  VAL322      0.1561
    140  C         19.5510   -0.0760    9.7130 C.2   322  VAL322      0.2260
    141  O         19.2940   -0.3160    8.5300 O.2   322  VAL322     -0.2867
    142  CB        21.7110    0.9440   10.5050 C.3   322  VAL322      0.0252
    143  CG1       22.4290    0.1270    9.4310 C.3   322  VAL322      0.0019
    144  CG2       22.4580    2.2460   10.7650 C.3   322  VAL322      0.0019
    145  N         16.2700    0.5790    8.0450 N.3   325  LEU325     -0.1245
    146  CA        16.5010    0.9510    6.6420 C.3   325  LEU325      0.1561
    147  C         16.8130   -0.2690    5.7770 C.2   325  LEU325      0.2260
    148  O         16.2890   -0.3890    4.6690 O.2   325  LEU325     -0.2867
    149  CB        17.6110    2.0000    6.5210 C.3   325  LEU325      0.0270
    150  CG        17.1260    3.4210    6.8300 C.3   325  LEU325      0.0019
    151  CD1       18.2800    4.3250    7.2370 C.3   325  LEU325      0.0001
    152  CD2       16.3720    4.0100    5.6440 C.3   325  LEU325      0.0001
@<TRIPOS>BOND
     1    26    25    1
     2    24    25   ar
     3    24    22   ar
     4    25    23   ar
     5    22    20   ar
     6    23    21   ar
     7    20    21   ar
     8    20    19    1
     9    15    16    1
    10    19    16    1
    11    16    17    1
    12    41    39    1
    13    27    17   am
    14    27    28    1
    15    32    31    1
    16    32    33    1
    17    17    18    2
    18    31    28    1
    19   148   147    2
    20    28    29    1
    21    39    40    1
    22    39    36    1
    23    34    33    1
    24    35    36    1
    25    29    30    2
    26   152   150    1
    27    36    37    1
    28   147   146    1
    29   149   146    1
    30   149   150    1
    31   146   145    1
    32   150   151    1
    33    56    54    1
    34    37    42   am
    35    37    38    2
    36     4     3    2
    37    42    43    1
    38    55    54    1
    39    54    53    2
    40     3     2    1
    41    13    11   ar
    42    13    14   ar
    43    11     8   ar
    44   141   140    2
    45    43    44    1
    46     2     1    1
    47     2     5    1
    48    53    52    1
    49    50    51    1
    50    50    47    1
    51    46    44   am
    52    46    47    1
    53    14    12   ar
    54   143   142    1
    55    44    45    2
    56    51    52    1
    57   140   139    1
    58     8     6   ar
    59     8    10   ar
    60    63    62    1
    61     5     6    1
    62    47    48    1
    63   139   142    1
    64   139   138    1
    65    12    10   ar
    66     6     7   ar
    67   142   144    1
    68    48    49    2
    69    10     9   ar
    70    62    61    1
    71    62    64    1
    72    57    58    1
    73    61    58    1
    74     7     9   ar
    75    58    59    1
    76   136   137   ar
    77   136   134   ar
    78   123   122   ar
    79   123   121   ar
    80   122   120   ar
    81   137   135   ar
    82   121   119   ar
    83   134   131   ar
    84    65    59   am
    85    65    66    1
    86    59    60    2
    87    84    86   ar
    88    84    82   ar
    89    86    87   ar
    90   116   115    2
    91   120   118   ar
    92   127   126    2
    93   135   133   ar
    94    69    66    1
    95    69    70    1
    96   119   118   ar
    97    66    67    1
    98   131   133   ar
    99   131   129   ar
   100    81    82    1
   101    81    78    1
   102   118   117    1
   103    77    67   am
   104    77    78    1
   105   126   125    1
   106    82    83   ar
   107    87    88    1
   108    87    85   ar
   109   115   124   am
   110   115   114    1
   111   133   132   ar
   112   125   124    1
   113   125   128    1
   114    70    72   ar
   115    70    71   ar
   116    67    68    2
   117    78    79    1
   118    79    80    2
   119   114   117    1
   120   114   113    1
   121    94    95    1
   122    94    93    1
   123    72    74   ar
   124    95    89    1
   125   129   128    1
   126   129   130   ar
   127    71    73   ar
   128    83    85   ar
   129    89    90    1
   130   132   130   ar
   131    74    75   ar
   132    93    90    1
   133    90    91    1
   134    73    75   ar
   135    75    76    1
   136   107   106    2
   137    91    92    2
   138   106   105    1
   139   105   108    1
   140   105   104    1
   141   103   102    1
   142   109   108    1
   143   109   110    1
   144   111   110    2
   145    96    97    1
   146   110   112   am
   147   100    97    1
   148   100   101    1
   149    97    98    1
   150   102   101    1
   151    98    99    2
