@<TRIPOS>MOLECULE
tmp/5nmiC04.pdb
 91 87 0 0 0
SMALL
GASTEIGER

@<TRIPOS>ATOM
      1  N         51.6770   32.1320   -6.8560 N.3     1  HIS1       -0.1241
      2  CA        51.1990   31.0780   -5.9180 C.3     1  HIS1        0.1621
      3  C         49.8090   31.2520   -5.2380 C.2     1  HIS1        0.2264
      4  O         49.5970   30.6510   -4.1870 O.2     1  HIS1       -0.2867
      5  CB        52.2670   30.8420   -4.8210 C.3     1  HIS1        0.0745
      6  CG        52.4630   32.0070   -3.8940 C.ar    1  HIS1        0.0817
      7  ND1       52.4040   31.8950   -2.5180 N.ar    1  HIS1       -0.2268
      8  CD2       52.6570   33.3180   -4.1540 C.ar    1  HIS1        0.1154
      9  CE1       52.5940   33.0850   -1.9770 C.ar    1  HIS1        0.1986
     10  NE2       52.7520   33.9650   -2.9460 N.ar    1  HIS1       -0.2212
     11  N         48.4040   27.3840   -5.4010 N.3     4  MET4       -0.1230
     12  CA        49.1230   26.5090   -4.4730 C.3     4  MET4        0.1702
     13  C         48.7310   26.7680   -3.0140 C.2     4  MET4        0.2592
     14  O         48.5860   25.8220   -2.2380 O.2     4  MET4       -0.2718
     15  CB        50.6370   26.6710   -4.6460 C.3     4  MET4        0.0401
     16  CG        51.4690   25.7280   -3.7840 C.3     4  MET4        0.0596
     17  SD        53.2270   25.7260   -4.2090 S.3     4  MET4       -0.1393
     18  CE        53.3770   24.2100   -5.1590 C.3     4  MET4        0.0692
     19  N         48.5600   28.0390   -2.6490 N.am    5  LYS5       -0.1980
     20  CA        48.1150   28.4090   -1.2990 C.3     5  LYS5        0.1596
     21  C         46.7100   27.8970   -0.9710 C.2     5  LYS5        0.2287
     22  O         46.4470   27.5060    0.1700 O.2     5  LYS5       -0.2864
     23  CB        48.1970   29.9260   -1.0840 C.3     5  LYS5        0.0298
     24  CG        49.6200   30.4610   -1.0370 C.3     5  LYS5        0.0038
     25  CD        50.3250   30.1330    0.2790 C.3     5  LYS5        0.0206
     26  CE        51.8290   30.3390    0.1770 C.3     5  LYS5        0.1093
     27  NZ        52.6040   29.6200    1.2260 N.3     5  LYS5       -0.1314
     28  N         47.3470   24.2200   -0.5190 N.3     8  ASN8       -0.1240
     29  CA        48.0010   24.0380    0.7850 C.3     8  ASN8        0.1653
     30  C         46.9830   23.9940    1.9140 C.2     8  ASN8        0.2266
     31  O         46.9030   23.0080    2.6530 O.2     8  ASN8       -0.2867
     32  CB        49.0120   25.1570    1.0800 C.3     8  ASN8        0.1155
     33  CG        50.3560   24.9350    0.4070 C.2     8  ASN8        0.2627
     34  OD1       50.8020   23.8060    0.2300 O.2     8  ASN8       -0.2716
     35  ND2       51.0190   26.0210    0.0520 N.am    8  ASN8       -0.0877
     36  N         47.3710   20.1580    1.8120 N.3    12  ILE12      -0.1231
     37  CA        48.7430   19.9050    2.2910 C.3    12  ILE12       0.1692
     38  C         48.8490   20.0510    3.8140 C.2    12  ILE12       0.2592
     39  O         48.9680   19.0410    4.5120 O.2    12  ILE12      -0.2718
     40  CB        49.8020   20.7630    1.5570 C.3    12  ILE12       0.0266
     41  CG1       49.7350   20.5280    0.0330 C.3    12  ILE12       0.0019
     42  CG2       51.2040   20.4780    2.0890 C.3    12  ILE12       0.0020
     43  CD1       50.0530   19.1170   -0.4320 C.3    12  ILE12       0.0001
     44  N         48.7990   21.2790    4.3290 N.am   13  ASP13      -0.1974
     45  CA        48.9120   21.5050    5.7840 C.3    13  ASP13       0.1709
     46  C         47.6330   22.0870    6.4020 C.2    13  ASP13       0.2293
     47  O         47.6720   23.0100    7.2200 O.2    13  ASP13      -0.2864
     48  CB        50.1750   22.3190    6.1370 C.3    13  ASP13       0.1436
     49  CG        50.2280   23.6810    5.4640 C.2    13  ASP13       0.3671
     50  OD1       49.3680   23.9770    4.6110 O.co2  13  ASP13      -0.2456
     51  OD2       51.1460   24.4620    5.7960 O.co2  13  ASP13      -0.2456
     52  N         48.6560   16.2520    5.0820 N.3   214  HIS214     -0.1227
     53  CA        49.7900   15.5750    4.4720 C.3   214  HIS214      0.1737
     54  C         50.9230   15.5400    5.5100 C.2   214  HIS214      0.2438
     55  O         51.2110   16.5760    6.1130 O.2   214  HIS214     -0.2733
     56  CB        50.2330   16.3180    3.2090 C.3   214  HIS214      0.0758
     57  CG        51.4480   15.7340    2.5610 C.ar  214  HIS214      0.0818
     58  ND1       51.3900   14.6460    1.7210 N.ar  214  HIS214     -0.2268
     59  CD2       52.7540   16.0800    2.6410 C.ar  214  HIS214      0.1154
     60  CE1       52.6060   14.3490    1.3050 C.ar  214  HIS214      0.1986
     61  NE2       53.4530   15.2020    1.8510 N.ar  214  HIS214     -0.2212
     62  N         51.5860   14.3950    5.7190 N.am  215  PRO215     -0.2729
     63  CA        51.4340   13.1760    4.9260 C.3   215  PRO215      0.1401
     64  C         50.4410   12.1470    5.4860 C.2   215  PRO215      0.2269
     65  O         50.2700   11.0910    4.8760 O.2   215  PRO215     -0.2865
     66  CB        52.8530   12.5980    4.9570 C.3   215  PRO215      0.0296
     67  CG        53.4280   13.0670    6.2620 C.3   215  PRO215      0.0237
     68  CD        52.5690   14.1870    6.7920 C.3   215  PRO215      0.0939
     69  N         46.7190   11.9060    3.6280 N.3   218  THR218     -0.1203
     70  CA        46.9490   11.6780    2.2010 C.3   218  THR218      0.1994
     71  C         47.1550   10.1870    1.9570 C.2   218  THR218      0.2617
     72  O         46.4080    9.5780    1.1920 O.2   218  THR218     -0.2717
     73  CB        48.1620   12.4590    1.6640 C.3   218  THR218      0.1784
     74  OG1       49.3160   12.1600    2.4500 O.3   218  THR218     -0.2211
     75  CG2       47.9040   13.9510    1.7060 C.3   218  THR218      0.0376
     76  N         48.1460    9.6040    2.6300 N.am  219  ILE219     -0.1979
     77  CA        48.4150    8.1600    2.5210 C.3   219  ILE219      0.1595
     78  C         47.2450    7.2990    3.0310 C.2   219  ILE219      0.2287
     79  O         47.0240    6.2050    2.5080 O.2   219  ILE219     -0.2864
     80  CB        49.7630    7.7500    3.1880 C.3   219  ILE219      0.0276
     81  CG1       50.1830    6.3220    2.8010 C.3   219  ILE219      0.0022
     82  CG2       49.7080    7.8510    4.7060 C.3   219  ILE219      0.0022
     83  CD1       50.4260    6.1060    1.3230 C.3   219  ILE219      0.0001
     84  N         44.6180    7.4240    0.2970 N.3   222  ILE222     -0.1245
     85  CA        45.1600    6.5990   -0.7930 C.3   222  ILE222      0.1561
     86  C         44.8910    5.1130   -0.5410 C.2   222  ILE222      0.2260
     87  O         44.4560    4.3940   -1.4430 O.2   222  ILE222     -0.2867
     88  CB        46.6760    6.8570   -0.9980 C.3   222  ILE222      0.0252
     89  CG1       46.8820    8.2410   -1.6280 C.3   222  ILE222      0.0019
     90  CG2       47.3160    5.7950   -1.8970 C.3   222  ILE222      0.0019
     91  CD1       48.2490    8.8430   -1.3930 C.3   222  ILE222      0.0001
@<TRIPOS>BOND
     1     1     2    1
     2     2     3    1
     3     2     5    1
     4    11    12    1
     5     3     4    2
     6    18    17    1
     7     5     6    1
     8    15    12    1
     9    15    16    1
    10    12    13    1
    11    17    16    1
    12     8     6   ar
    13     8    10   ar
    14     6     7   ar
    15    13    19   am
    16    13    14    2
    17    10     9   ar
    18    19    20    1
    19     7     9   ar
    20    90    88    1
    21    89    91    1
    22    89    88    1
    23    87    86    2
    24    20    23    1
    25    20    21    1
    26    23    24    1
    27    24    25    1
    28    88    85    1
    29    21    22    2
    30    85    86    1
    31    85    84    1
    32    28    29    1
    33    43    41    1
    34    41    40    1
    35    35    33   am
    36    26    25    1
    37    26    27    1
    38    34    33    2
    39    33    32    1
    40    29    32    1
    41    29    30    1
    42    72    71    2
    43    60    58   ar
    44    60    61   ar
    45    83    81    1
    46    40    42    1
    47    40    37    1
    48    73    75    1
    49    73    70    1
    50    73    74    1
    51    58    57   ar
    52    36    37    1
    53    61    59   ar
    54    30    31    2
    55    71    70    1
    56    71    76   am
    57    70    69    1
    58    37    38    1
    59    79    78    2
    60    77    76    1
    61    77    78    1
    62    77    80    1
    63    57    59   ar
    64    57    56    1
    65    81    80    1
    66    80    82    1
    67    56    53    1
    68    38    44   am
    69    38    39    2
    70    44    45    1
    71    53    52    1
    72    53    54    1
    73    50    49   ar
    74    65    64    2
    75    63    66    1
    76    63    64    1
    77    63    62    1
    78    66    67    1
    79    49    51   ar
    80    49    48    1
    81    54    62   am
    82    54    55    2
    83    62    68    1
    84    45    48    1
    85    45    46    1
    86    67    68    1
    87    46    47    2
