@<TRIPOS>MOLECULE
tmp/5nmiE00.pdb
 75 73 0 0 0
SMALL
GASTEIGER

@<TRIPOS>ATOM
      1  N         54.1160   -1.1770   -8.7780 N.3    46  GLY46      -0.1210
      2  CA        52.8440   -1.8980   -8.8520 C.3    46  GLY46       0.1956
      3  C         51.6830   -1.0450   -9.3340 C.2    46  GLY46       0.2611
      4  O         50.8280   -1.5240  -10.0840 O.2    46  GLY46      -0.2717
      5  N         51.6550    0.2140   -8.8950 N.am   47  VAL47      -0.1979
      6  CA        50.6640    1.1920   -9.3630 C.3    47  VAL47       0.1595
      7  C         50.9400    1.5710  -10.8160 C.2    47  VAL47       0.2287
      8  O         50.0090    1.6640  -11.6170 O.2    47  VAL47      -0.2864
      9  CB        50.6500    2.4630   -8.4760 C.3    47  VAL47       0.0276
     10  CG1       49.7800    3.5640   -9.0800 C.3    47  VAL47       0.0022
     11  CG2       50.1580    2.1250   -7.0760 C.3    47  VAL47       0.0022
     12  N         52.2840   -0.1920  -13.1470 N.3    49  TYR49      -0.1227
     13  CA        51.7670   -1.2840  -13.9790 C.3    49  TYR49       0.1736
     14  C         50.2690   -1.1210  -14.2190 C.2    49  TYR49       0.2595
     15  O         49.8050   -1.2220  -15.3510 O.2    49  TYR49      -0.2718
     16  CB        52.0510   -2.6480  -13.3330 C.3    49  TYR49       0.0548
     17  CG        51.2810   -3.7990  -13.9480 C.ar   49  TYR49      -0.0200
     18  CD1       51.6820   -4.3720  -15.1560 C.ar   49  TYR49      -0.0009
     19  CD2       50.1470   -4.3110  -13.3220 C.ar   49  TYR49      -0.0009
     20  CE1       50.9710   -5.4240  -15.7190 C.ar   49  TYR49       0.0417
     21  CE2       49.4360   -5.3630  -13.8750 C.ar   49  TYR49       0.0417
     22  CZ        49.8460   -5.9150  -15.0720 C.ar   49  TYR49       0.1957
     23  OH        49.1240   -6.9560  -15.6030 O.3    49  TYR49      -0.2866
     24  N         49.5300   -0.8660  -13.1450 N.am   50  ALA50      -0.1966
     25  CA        48.0890   -0.6750  -13.2290 C.3    50  ALA50       0.1728
     26  C         47.7340    0.5500  -14.0700 C.2    50  ALA50       0.2616
     27  O         47.0490    0.4280  -15.0840 O.2    50  ALA50      -0.2715
     28  CB        47.4930   -0.5550  -11.8390 C.3    50  ALA50       0.0334
     29  N         48.2410    1.7100  -13.6550 N.am   51  ALA51      -0.1977
     30  CA        47.9820    2.9960  -14.3200 C.3    51  ALA51       0.1597
     31  C         48.1670    2.9360  -15.8310 C.2    51  ALA51       0.2287
     32  O         47.3580    3.4890  -16.5760 O.2    51  ALA51      -0.2864
     33  CB        48.8790    4.0750  -13.7350 C.3    51  ALA51       0.0319
     34  N         47.8890    0.2730  -17.7920 N.3    53  ASN53      -0.1225
     35  CA        46.8060   -0.5320  -18.3640 C.3    53  ASN53       0.1785
     36  C         45.4770    0.2250  -18.3790 C.2    53  ASN53       0.2597
     37  O         44.7960    0.2330  -19.4000 O.2    53  ASN53      -0.2718
     38  CB        46.6520   -1.8610  -17.6150 C.3    53  ASN53       0.1169
     39  CG        47.8640   -2.7640  -17.7740 C.2    53  ASN53       0.2627
     40  OD1       48.2520   -3.1150  -18.8870 O.2    53  ASN53      -0.2716
     41  ND2       48.4720   -3.1360  -16.6570 N.am   53  ASN53      -0.0877
     42  N         45.1340    0.8780  -17.2630 N.am   54  VAL54      -0.1966
     43  CA        43.8660    1.6360  -17.1510 C.3    54  VAL54       0.1727
     44  C         43.7830    2.7000  -18.2400 C.2    54  VAL54       0.2616
     45  O         42.7810    2.7890  -18.9500 O.2    54  VAL54      -0.2715
     46  CB        43.6830    2.3720  -15.7940 C.3    54  VAL54       0.0290
     47  CG1       42.2420    2.8590  -15.6420 C.3    54  VAL54       0.0023
     48  CG2       44.0770    1.4990  -14.6100 C.3    54  VAL54       0.0023
     49  N         44.8460    3.4990  -18.3460 N.am   55  VAL55      -0.1977
     50  CA        44.9410    4.5810  -19.3290 C.3    55  VAL55       0.1596
     51  C         44.8540    4.0170  -20.7440 C.2    55  VAL55       0.2287
     52  O         44.0400    4.4790  -21.5460 O.2    55  VAL55      -0.2864
     53  CB        46.2480    5.3980  -19.1470 C.3    55  VAL55       0.0276
     54  CG1       46.4980    6.3420  -20.3200 C.3    55  VAL55       0.0022
     55  CG2       46.1980    6.1940  -17.8470 C.3    55  VAL55       0.0022
     56  N         43.5570    1.3490  -21.9150 N.3    57  GLN57      -0.1231
     57  CA        42.2140    0.8470  -22.2310 C.3    57  GLN57       0.1698
     58  C         41.2540    1.9550  -22.6460 C.2    57  GLN57       0.2592
     59  O         40.5150    1.8070  -23.6230 O.2    57  GLN57      -0.2718
     60  CB        41.6380    0.0860  -21.0380 C.3    57  GLN57       0.0381
     61  CG        42.3660   -1.2280  -20.7960 C.3    57  GLN57       0.0905
     62  CD        41.9700   -1.9250  -19.5140 C.2    57  GLN57       0.2608
     63  OE1       40.9170   -1.6560  -18.9310 O.2    57  GLN57      -0.2717
     64  NE2       42.8180   -2.8410  -19.0760 N.am   57  GLN57      -0.0878
     65  N         41.2720    3.0540  -21.8950 N.am   58  PHE58      -0.1976
     66  CA        40.4640    4.2350  -22.2210 C.3    58  PHE58       0.1639
     67  C         40.9030    4.8220  -23.5610 C.2    58  PHE58       0.2290
     68  O         40.0680    5.1740  -24.3870 O.2    58  PHE58      -0.2864
     69  CB        40.5460    5.2930  -21.1090 C.3    58  PHE58       0.0560
     70  CG        39.5910    5.0520  -19.9660 C.ar   58  PHE58      -0.0200
     71  CD1       39.6590    3.8840  -19.2100 C.ar   58  PHE58      -0.0042
     72  CD2       38.6210    5.9980  -19.6410 C.ar   58  PHE58      -0.0042
     73  CE1       38.7800    3.6640  -18.1590 C.ar   58  PHE58      -0.0003
     74  CE2       37.7390    5.7820  -18.5920 C.ar   58  PHE58      -0.0003
     75  CZ        37.8180    4.6130  -17.8490 C.ar   58  PHE58      -0.0000
@<TRIPOS>BOND
     1    68    67    2
     2    59    58    2
     3    67    66    1
     4    58    57    1
     5    58    65   am
     6    57    56    1
     7    57    60    1
     8    66    65    1
     9    66    69    1
    10    52    51    2
    11    69    70    1
    12    60    61    1
    13    61    62    1
    14    51    50    1
    15    54    53    1
    16    70    72   ar
    17    70    71   ar
    18    72    74   ar
    19    62    64   am
    20    62    63    2
    21    37    36    2
    22    50    53    1
    23    50    49    1
    24    71    73   ar
    25    53    55    1
    26    45    44    2
    27    40    39    2
    28    74    75   ar
    29    36    35    1
    30    36    42   am
    31    35    34    1
    32    35    38    1
    33    49    44   am
    34    44    43    1
    35    73    75   ar
    36    39    38    1
    37    39    41   am
    38    42    43    1
    39    43    46    1
    40    32    31    2
    41    31    30    1
    42    46    47    1
    43    46    48    1
    44    20    18   ar
    45    20    22   ar
    46    23    22    1
    47    15    14    2
    48    18    17   ar
    49    27    26    2
    50    22    21   ar
    51    30    33    1
    52    30    29    1
    53    14    13    1
    54    14    24   am
    55    26    29   am
    56    26    25    1
    57    13    16    1
    58    13    12    1
    59    17    16    1
    60    17    19   ar
    61    21    19   ar
    62    25    24    1
    63    25    28    1
    64     8     7    2
    65     7     6    1
    66     4     3    2
    67     6     5    1
    68     6     9    1
    69     3     5   am
    70     3     2    1
    71    10     9    1
    72     2     1    1
    73     9    11    1
