@<TRIPOS>MOLECULE
tmp/5nmiN05.pdb
 91 87 0 0 0
SMALL
GASTEIGER

@<TRIPOS>ATOM
      1  N         27.9700   33.3720    5.0760 N.3     1  HIS1       -0.1241
      2  CA        28.9100   34.5560    5.0900 C.3     1  HIS1        0.1621
      3  C         30.2930   34.3020    4.3770 C.2     1  HIS1        0.2264
      4  O         30.8660   35.2310    3.7830 O.2     1  HIS1       -0.2867
      5  CB        28.9940   35.1440    6.5400 C.3     1  HIS1        0.0745
      6  CG        29.9400   36.2980    6.6980 C.ar    1  HIS1        0.0817
      7  ND1       30.6480   36.5140    7.8630 N.ar    1  HIS1       -0.2268
      8  CD2       30.2850   37.3070    5.8620 C.ar    1  HIS1        0.1154
      9  CE1       31.3930   37.5970    7.7300 C.ar    1  HIS1        0.1986
     10  NE2       31.1850   38.0960    6.5280 N.ar    1  HIS1       -0.2212
     11  N         29.2890   35.1140    0.4550 N.3     4  MET4       -0.1230
     12  CA        29.0350   36.5450    0.2690 C.3     4  MET4        0.1702
     13  C         30.3260   37.3680    0.2720 C.2     4  MET4        0.2592
     14  O         30.4620   38.2930   -0.5280 O.2     4  MET4       -0.2718
     15  CB        28.0780   37.0670    1.3480 C.3     4  MET4        0.0401
     16  CG        27.6870   38.5310    1.1850 C.3     4  MET4        0.0596
     17  SD        26.4860   39.1110    2.3970 S.3     4  MET4       -0.1393
     18  CE        24.9650   39.0970    1.4480 C.3     4  MET4        0.0692
     19  N         31.2640   37.0250    1.1600 N.am    5  LYS5       -0.1980
     20  CA        32.5700   37.6980    1.2130 C.3     5  LYS5        0.1596
     21  C         33.3950   37.5070   -0.0650 C.2     5  LYS5        0.2287
     22  O         34.0930   38.4310   -0.4970 O.2     5  LYS5       -0.2864
     23  CB        33.3710   37.2450    2.4410 C.3     5  LYS5        0.0298
     24  CG        32.7760   37.7360    3.7590 C.3     5  LYS5        0.0038
     25  CD        33.0830   39.2040    4.0080 C.3     5  LYS5        0.0206
     26  CE        32.1630   39.8550    5.0240 C.3     5  LYS5        0.1093
     27  NZ        32.2340   41.3320    4.9910 N.3     5  LYS5       -0.1314
     28  N         31.5510   39.7040   -2.4940 N.3     8  ASN8       -0.1240
     29  CA        31.8870   41.0990   -2.1790 C.3     8  ASN8        0.1653
     30  C         33.2020   41.5090   -2.8200 C.2     8  ASN8        0.2266
     31  O         33.2490   42.4600   -3.6100 O.2     8  ASN8       -0.2867
     32  CB        31.9870   41.3360   -0.6640 C.3     8  ASN8        0.1155
     33  CG        30.6410   41.5480   -0.0050 C.2     8  ASN8        0.2627
     34  OD1       29.7090   42.0970   -0.6020 O.2     8  ASN8       -0.2716
     35  ND2       30.5400   41.1370    1.2510 N.am    8  ASN8       -0.0877
     36  N         31.0750   43.2170   -5.5500 N.3    12  ILE12      -0.1231
     37  CA        30.4080   44.3370   -4.8610 C.3    12  ILE12       0.1692
     38  C         31.3660   45.5120   -4.6260 C.2    12  ILE12       0.2592
     39  O         31.2490   46.5340   -5.3080 O.2    12  ILE12      -0.2718
     40  CB        29.6950   43.9080   -3.5560 C.3    12  ILE12       0.0266
     41  CG1       28.6750   42.7870   -3.8310 C.3    12  ILE12       0.0019
     42  CG2       29.0160   45.1050   -2.8930 C.3    12  ILE12       0.0020
     43  CD1       27.5210   43.1460   -4.7550 C.3    12  ILE12       0.0001
     44  N         32.3020   45.3760   -3.6850 N.am   13  ASP13      -0.1974
     45  CA        33.2550   46.4660   -3.3910 C.3    13  ASP13       0.1709
     46  C         34.7100   46.1020   -3.7330 C.2    13  ASP13       0.2293
     47  O         35.6400   46.3720   -2.9680 O.2    13  ASP13      -0.2864
     48  CB        33.0910   46.9910   -1.9520 C.3    13  ASP13       0.1436
     49  CG        33.2850   45.9220   -0.8890 C.2    13  ASP13       0.3671
     50  OD1       33.4240   44.7360   -1.2320 O.co2  13  ASP13      -0.2456
     51  OD2       33.2880   46.2780    0.3070 O.co2  13  ASP13      -0.2456
     52  N         30.4550   47.9980   -7.6340 N.3   214  HIS214     -0.1227
     53  CA        29.0530   48.3350   -7.4550 C.3   214  HIS214      0.1737
     54  C         28.9910   49.6870   -6.7260 C.2   214  HIS214      0.2438
     55  O         29.6870   49.8590   -5.7260 O.2   214  HIS214     -0.2733
     56  CB        28.3500   47.2460   -6.6420 C.3   214  HIS214      0.0758
     57  CG        26.9190   47.5520   -6.3380 C.ar  214  HIS214      0.0818
     58  ND1       25.9010   47.3230   -7.2360 N.ar  214  HIS214     -0.2268
     59  CD2       26.3380   48.0790   -5.2350 C.ar  214  HIS214      0.1154
     60  CE1       24.7530   47.6930   -6.6980 C.ar  214  HIS214      0.1986
     61  NE2       24.9920   48.1580   -5.4860 N.ar  214  HIS214     -0.2212
     62  N         28.1640   50.6370   -7.1810 N.am  215  PRO215     -0.2729
     63  CA        27.1750   50.4580   -8.2420 C.3   215  PRO215      0.1401
     64  C         27.6410   50.8620   -9.6490 C.2   215  PRO215      0.2269
     65  O         26.8550   50.7510  -10.5930 O.2   215  PRO215     -0.2865
     66  CB        26.0440   51.3840   -7.7840 C.3   215  PRO215      0.0296
     67  CG        26.7350   52.4760   -7.0150 C.3   215  PRO215      0.0237
     68  CD        28.1340   52.0210   -6.6790 C.3   215  PRO215      0.0939
     69  N         28.6490   47.7790  -12.2620 N.3   218  THR218     -0.1203
     70  CA        27.5050   46.8700  -12.3390 C.3   218  THR218      0.1994
     71  C         26.5090   47.3980  -13.3670 C.2   218  THR218      0.2617
     72  O         26.1980   46.7070  -14.3360 O.2   218  THR218     -0.2717
     73  CB        26.7960   46.6900  -10.9820 C.3   218  THR218      0.1784
     74  OG1       26.4330   47.9680  -10.4530 O.3   218  THR218     -0.2211
     75  CG2       27.7010   45.9770   -9.9960 C.3   218  THR218      0.0376
     76  N         26.0430   48.6310  -13.1650 N.am  219  ILE219     -0.1979
     77  CA        25.1180   49.2750  -14.1130 C.3   219  ILE219      0.1595
     78  C         25.7450   49.4840  -15.5020 C.2   219  ILE219      0.2287
     79  O         25.0290   49.4320  -16.5050 O.2   219  ILE219     -0.2864
     80  CB        24.5090   50.5980  -13.5520 C.3   219  ILE219      0.0276
     81  CG1       23.3250   51.0890  -14.4030 C.3   219  ILE219      0.0022
     82  CG2       25.5420   51.7120  -13.4570 C.3   219  ILE219      0.0022
     83  CD1       22.1450   50.1420  -14.4640 C.3   219  ILE219      0.0001
     84  N         25.7040   46.0740  -17.1630 N.3   222  ILE222     -0.1245
     85  CA        24.2920   45.8250  -17.4930 C.3   222  ILE222      0.1561
     86  C         23.9040   46.5180  -18.8020 C.2   222  ILE222      0.2260
     87  O         23.2610   45.9140  -19.6600 O.2   222  ILE222     -0.2867
     88  CB        23.3560   46.2660  -16.3370 C.3   222  ILE222      0.0252
     89  CG1       23.5010   45.2910  -15.1610 C.3   222  ILE222      0.0019
     90  CG2       21.8910   46.3060  -16.7810 C.3   222  ILE222      0.0019
     91  CD1       23.0950   45.8610  -13.8230 C.3   222  ILE222      0.0001
@<TRIPOS>BOND
     1    87    86    2
     2    86    85    1
     3    85    84    1
     4    85    88    1
     5    90    88    1
     6    79    78    2
     7    88    89    1
     8    78    77    1
     9    89    91    1
    10    83    81    1
    11    81    80    1
    12    72    71    2
    13    77    80    1
    14    77    76    1
    15    80    82    1
    16    71    76   am
    17    71    70    1
    18    70    69    1
    19    70    73    1
    20    73    74    1
    21    73    75    1
    22    65    64    2
    23    64    63    1
    24    63    66    1
    25    63    62    1
    26    66    67    1
    27    52    53    1
    28    53    54    1
    29    53    56    1
    30    58    60   ar
    31    58    57   ar
    32    62    54   am
    33    62    68    1
    34    67    68    1
    35    54    55    2
    36    60    61   ar
    37    56    57    1
    38    57    59   ar
    39    36    37    1
    40    61    59   ar
    41    39    38    2
    42    37    38    1
    43    37    40    1
    44    43    41    1
    45    38    44   am
    46    41    40    1
    47    46    45    1
    48    46    47    2
    49    44    45    1
    50    31    30    2
    51    40    42    1
    52    45    48    1
    53    30    29    1
    54    28    29    1
    55    29    32    1
    56    48    49    1
    57    50    49   ar
    58    49    51   ar
    59    32    33    1
    60    34    33    2
    61    14    13    2
    62    22    21    2
    63    21    20    1
    64    33    35   am
    65    12    13    1
    66    12    11    1
    67    12    15    1
    68    13    19   am
    69    19    20    1
    70    16    15    1
    71    16    17    1
    72    20    23    1
    73    18    17    1
    74    23    24    1
    75    24    25    1
    76     4     3    2
    77    25    26    1
    78     3     2    1
    79    27    26    1
    80     1     2    1
    81     2     5    1
    82     8    10   ar
    83     8     6   ar
    84    10     9   ar
    85     5     6    1
    86     6     7   ar
    87     9     7   ar
