@<TRIPOS>MOLECULE
tmp/5nmiL00.pdb
 98 91 0 0 0
SMALL
GASTEIGER

@<TRIPOS>ATOM
      1  N         28.0660   47.8950   19.7620 N.3   296  ILE296     -0.1245
      2  CA        28.7920   47.2940   18.6380 C.3   296  ILE296      0.1561
      3  C         30.1660   47.9470   18.4680 C.2   296  ILE296      0.2260
      4  O         31.1650   47.2480   18.2760 O.2   296  ILE296     -0.2867
      5  CB        27.9810   47.3940   17.3140 C.3   296  ILE296      0.0252
      6  CG1       26.7010   46.5380   17.3850 C.3   296  ILE296      0.0019
      7  CG2       28.8230   46.9830   16.1030 C.3   296  ILE296      0.0019
      8  CD1       26.9180   45.0420   17.2890 C.3   296  ILE296      0.0001
      9  N         33.5670   45.5270   19.2470 N.3   300  ASN300     -0.1240
     10  CA        34.4830   45.3500   18.1160 C.3   300  ASN300      0.1653
     11  C         35.6160   46.3850   18.0980 C.2   300  ASN300      0.2266
     12  O         36.6220   46.1820   17.4140 O.2   300  ASN300     -0.2867
     13  CB        33.7100   45.4090   16.7910 C.3   300  ASN300      0.1155
     14  CG        32.6380   44.3330   16.6800 C.2   300  ASN300      0.2627
     15  OD1       32.6120   43.3700   17.4500 O.2   300  ASN300     -0.2716
     16  ND2       31.7410   44.4970   15.7140 N.am  300  ASN300     -0.0877
     17  N         35.3180   49.6610   16.9530 N.3   302  LEU302     -0.1245
     18  CA        35.2170   50.2770   15.6330 C.3   302  LEU302      0.1561
     19  C         35.7730   51.6990   15.6480 C.2   302  LEU302      0.2260
     20  O         36.5890   52.0510   14.8000 O.2   302  LEU302     -0.2867
     21  CB        33.7640   50.2810   15.1350 C.3   302  LEU302      0.0270
     22  CG        33.1630   48.9180   14.7690 C.3   302  LEU302      0.0019
     23  CD1       31.6470   49.0030   14.6240 C.3   302  LEU302      0.0001
     24  CD2       33.7830   48.3670   13.4900 C.3   302  LEU302      0.0001
     25  N         33.8910   52.1480    6.8610 N.3   331  ASP331     -0.1225
     26  CA        32.7730   51.4490    6.2100 C.3   331  ASP331      0.1805
     27  C         31.8480   50.7950    7.2390 C.2   331  ASP331      0.2597
     28  O         30.6230   50.9180    7.1440 O.2   331  ASP331     -0.2718
     29  CB        33.2990   50.3860    5.2280 C.3   331  ASP331      0.1424
     30  CG        32.2530   49.9350    4.2030 C.2   331  ASP331      0.3668
     31  OD1       31.0410   50.1830    4.3800 O.co2 331  ASP331     -0.2456
     32  OD2       32.6600   49.3140    3.1970 O.co2 331  ASP331     -0.2456
     33  N         32.4450   50.1240    8.2240 N.am  332  ASP332     -0.1974
     34  CA        31.6850   49.4510    9.2850 C.3   332  ASP332      0.1709
     35  C         30.9060   50.4430   10.1560 C.2   332  ASP332      0.2293
     36  O         29.6940   50.2920   10.3200 O.2   332  ASP332     -0.2864
     37  CB        32.6010   48.5780   10.1520 C.3   332  ASP332      0.1436
     38  CG        33.1210   47.3620    9.4070 C.2   332  ASP332      0.3671
     39  OD1       32.3080   46.4830    9.0520 O.co2 332  ASP332     -0.2456
     40  OD2       34.3440   47.2820    9.1780 O.co2 332  ASP332     -0.2456
     41  N         28.1130   51.7970    8.2450 N.3   335  PHE335     -0.1227
     42  CA        27.0920   50.7540    8.1010 C.3   335  PHE335      0.1736
     43  C         26.2330   50.5760    9.3600 C.2   335  PHE335      0.2595
     44  O         25.0180   50.3970    9.2510 O.2   335  PHE335     -0.2718
     45  CB        27.7260   49.4150    7.7010 C.3   335  PHE335      0.0547
     46  CG        26.7280   48.3020    7.5220 C.ar  335  PHE335     -0.0202
     47  CD1       25.9480   48.2250    6.3720 C.ar  335  PHE335     -0.0042
     48  CD2       26.5510   47.3390    8.5140 C.ar  335  PHE335     -0.0042
     49  CE1       25.0180   47.2080    6.2120 C.ar  335  PHE335     -0.0003
     50  CE2       25.6250   46.3170    8.3560 C.ar  335  PHE335     -0.0003
     51  CZ        24.8570   46.2520    7.2030 C.ar  335  PHE335     -0.0000
     52  N         26.8590   50.6190   10.5390 N.am  336  VAL336     -0.1980
     53  CA        26.1190   50.4910   11.8030 C.3   336  VAL336      0.1595
     54  C         25.2740   51.7480   12.0390 C.2   336  VAL336      0.2287
     55  O         24.1070   51.6420   12.4180 O.2   336  VAL336     -0.2864
     56  CB        27.0360   50.2340   13.0310 C.3   336  VAL336      0.0276
     57  CG1       26.1960   49.9440   14.2720 C.3   336  VAL336      0.0022
     58  CG2       27.9900   49.0650   12.7880 C.3   336  VAL336      0.0022
     59  N         26.8290   54.6520   -2.5100 N.3   435  ARG435     -0.1245
     60  CA        26.6710   53.6060   -1.4970 C.3   435  ARG435      0.1563
     61  C         26.1370   54.1700   -0.1770 C.2   435  ARG435      0.2260
     62  O         25.3410   53.5130    0.4970 O.2   435  ARG435     -0.2867
     63  CB        27.9910   52.8620   -1.2630 C.3   435  ARG435      0.0307
     64  CG        28.5560   52.1660   -2.4950 C.3   435  ARG435      0.0489
     65  CD        27.7790   50.9080   -2.8560 C.3   435  ARG435      0.2205
     66  NE        28.0840   49.7920   -1.9620 N.pl3 435  ARG435     -0.0865
     67  CZ        29.2010   49.0640   -1.9900 C.cat 435  ARG435      0.5346
     68  NH1       30.1710   49.3160   -2.8700 N.pl3 435  ARG435      0.1354
     69  NH2       29.3530   48.0740   -1.1140 N.pl3 435  ARG435      0.1354
     70  N         22.5670   54.9480   -1.0210 N.3   438  SER438     -0.1202
     71  CA        21.8580   53.6650   -0.9940 C.3   438  SER438      0.2020
     72  C         21.5360   53.2140    0.4360 C.2   438  SER438      0.2619
     73  O         20.5140   52.5820    0.6790 O.2   438  SER438     -0.2717
     74  CB        22.6710   52.5820   -1.7070 C.3   438  SER438      0.2103
     75  OG        22.8490   52.9040   -3.0730 O.3   438  SER438     -0.2182
     76  N         22.4380   53.5170    1.3700 N.am  439  GLY439     -0.1956
     77  CA        22.2180   53.2620    2.7940 C.3   439  GLY439      0.1869
     78  C         21.2170   54.1690    3.4960 C.2   439  GLY439      0.2309
     79  O         20.7970   53.8570    4.6070 O.2   439  GLY439     -0.2863
     80  N         18.1300   54.7480    2.5830 N.3   441  PHE441     -0.1241
     81  CA        16.8510   54.0210    2.6120 C.3   441  PHE441      0.1605
     82  C         17.2190   52.5630    2.8840 C.2   441  PHE441      0.2264
     83  O         18.3740   52.2790    3.1690 O.2   441  PHE441     -0.2867
     84  CB        16.0700   54.1910    1.3080 C.3   441  PHE441      0.0534
     85  CG        16.8550   53.8430    0.0730 C.ar  441  PHE441     -0.0203
     86  CD1       17.6410   54.8160   -0.5700 C.ar  441  PHE441     -0.0042
     87  CD2       16.7980   52.5640   -0.4640 C.ar  441  PHE441     -0.0042
     88  CE1       18.3820   54.4970   -1.6990 C.ar  441  PHE441     -0.0003
     89  CE2       17.5070   52.2450   -1.6070 C.ar  441  PHE441     -0.0003
     90  CZ        18.3000   53.2090   -2.2270 C.ar  441  PHE441     -0.0000
     91  N         16.4020   47.9980    2.5550 N.3   443  LEU443     -0.1245
     92  CA        16.0290   46.8630    1.7360 C.3   443  LEU443      0.1561
     93  C         14.5250   46.7330    1.8820 C.2   443  LEU443      0.2260
     94  O         13.8190   46.4590    0.9060 O.2   443  LEU443     -0.2867
     95  CB        16.7160   45.5780    2.2060 C.3   443  LEU443      0.0270
     96  CG        18.2480   45.5360    2.1760 C.3   443  LEU443      0.0019
     97  CD1       18.8940   46.5090    3.1700 C.3   443  LEU443      0.0001
     98  CD2       18.7120   44.1170    2.4490 C.3   443  LEU443      0.0001
@<TRIPOS>BOND
     1    75    74    1
     2    68    67    1
     3    65    64    1
     4    65    66    1
     5    59    60    1
     6    64    63    1
     7    90    88   ar
     8    90    89   ar
     9    67    66    2
    10    67    69    1
    11    74    71    1
    12    88    86   ar
    13    89    87   ar
    14    60    63    1
    15    60    61    1
    16    70    71    1
    17    71    72    1
    18    86    85   ar
    19    87    85   ar
    20    61    62    2
    21    85    84    1
    22    72    73    2
    23    72    76   am
    24    94    93    2
    25    84    81    1
    26    76    77    1
    27    92    93    1
    28    92    95    1
    29    92    91    1
    30    96    95    1
    31    96    98    1
    32    96    97    1
    33    80    81    1
    34    81    82    1
    35    77    78    1
    36    82    83    2
    37    32    30   ar
    38    78    79    2
    39    30    31   ar
    40    30    29    1
    41    29    26    1
    42    26    25    1
    43    26    27    1
    44    49    47   ar
    45    49    51   ar
    46    47    46   ar
    47    28    27    2
    48    51    50   ar
    49    27    33   am
    50    46    45    1
    51    46    48   ar
    52    45    42    1
    53    42    41    1
    54    42    43    1
    55    33    34    1
    56    50    48   ar
    57    39    38   ar
    58    40    38   ar
    59    44    43    2
    60    34    37    1
    61    34    35    1
    62    43    52   am
    63    38    37    1
    64    35    36    2
    65    52    53    1
    66    53    54    1
    67    53    56    1
    68    54    55    2
    69    58    56    1
    70    56    57    1
    71    24    22    1
    72    23    22    1
    73    22    21    1
    74    20    19    2
    75    21    18    1
    76    18    19    1
    77    18    17    1
    78    16    14   am
    79     7     5    1
    80    14    13    1
    81    14    15    2
    82    13    10    1
    83     8     6    1
    84     5     6    1
    85     5     2    1
    86    12    11    2
    87    11    10    1
    88    10     9    1
    89     4     3    2
    90     3     2    1
    91     2     1    1
