@<TRIPOS>MOLECULE
tmp/5nmiN07.pdb
 100 91 0 0 0
SMALL
GASTEIGER

@<TRIPOS>ATOM
      1  N         28.6440   36.2160  -20.2410 N.3    32  ILE32      -0.1245
      2  CA        27.2440   36.2290  -20.6880 C.3    32  ILE32       0.1561
      3  C         27.0680   35.3840  -21.9560 C.2    32  ILE32       0.2260
      4  O         26.0750   34.6650  -22.0810 O.2    32  ILE32      -0.2867
      5  CB        26.7220   37.6780  -20.8920 C.3    32  ILE32       0.0252
      6  CG1       26.5560   38.3640  -19.5310 C.3    32  ILE32       0.0019
      7  CG2       25.3900   37.7030  -21.6440 C.3    32  ILE32       0.0019
      8  CD1       26.5590   39.8740  -19.5890 C.3    32  ILE32       0.0001
      9  N         27.5340   31.6680  -20.7420 N.3    35  ILE35      -0.1231
     10  CA        26.2940   31.2530  -20.0760 C.3    35  ILE35       0.1692
     11  C         25.1440   31.1160  -21.0880 C.2    35  ILE35       0.2591
     12  O         24.3290   30.1960  -20.9760 O.2    35  ILE35      -0.2718
     13  CB        25.9120   32.2250  -18.9300 C.3    35  ILE35       0.0266
     14  CG1       26.9470   32.1400  -17.8020 C.3    35  ILE35       0.0019
     15  CG2       24.5270   31.9080  -18.3670 C.3    35  ILE35       0.0020
     16  CD1       26.9760   33.3570  -16.9000 C.3    35  ILE35       0.0001
     17  N         25.0810   32.0250  -22.0630 N.am   36  LEU36      -0.1980
     18  CA        24.0700   31.9480  -23.1220 C.3    36  LEU36       0.1596
     19  C         24.2460   30.6860  -23.9620 C.2    36  LEU36       0.2287
     20  O         23.2720   29.9760  -24.2100 O.2    36  LEU36      -0.2864
     21  CB        24.0990   33.1960  -24.0070 C.3    36  LEU36       0.0297
     22  CG        23.1070   33.2370  -25.1820 C.3    36  LEU36       0.0022
     23  CD1       22.4050   34.5840  -25.2520 C.3    36  LEU36       0.0001
     24  CD2       23.7750   32.9110  -26.5150 C.3    36  LEU36       0.0001
     25  N         23.1660   27.6750  -21.7160 N.3    39  LEU39      -0.1245
     26  CA        21.7160   27.5580  -21.5180 C.3    39  LEU39       0.1561
     27  C         20.9720   27.2150  -22.8090 C.2    39  LEU39       0.2260
     28  O         20.1070   26.3400  -22.8050 O.2    39  LEU39      -0.2867
     29  CB        21.1390   28.8290  -20.8890 C.3    39  LEU39       0.0270
     30  CG        21.5840   29.0880  -19.4450 C.3    39  LEU39       0.0019
     31  CD1       21.2150   30.5000  -19.0210 C.3    39  LEU39       0.0001
     32  CD2       20.9910   28.0680  -18.4840 C.3    39  LEU39       0.0001
     33  N          9.3230   26.9400  -30.1210 N.3    68  TYR68      -0.1241
     34  CA        10.4080   27.9280  -30.0260 C.3    68  TYR68       0.1605
     35  C         11.8120   27.2990  -30.1170 C.2    68  TYR68       0.2264
     36  O         12.7560   27.7770  -29.4880 O.2    68  TYR68      -0.2867
     37  CB        10.2830   28.7610  -28.7410 C.3    68  TYR68       0.0534
     38  CG         8.9790   29.5000  -28.5930 C.ar   68  TYR68      -0.0201
     39  CD1        7.8880   28.9080  -27.9600 C.ar   68  TYR68      -0.0009
     40  CD2        8.8330   30.7990  -29.0750 C.ar   68  TYR68      -0.0009
     41  CE1        6.6870   29.5860  -27.8130 C.ar   68  TYR68       0.0417
     42  CE2        7.6370   31.4860  -28.9280 C.ar   68  TYR68       0.0417
     43  CZ         6.5670   30.8770  -28.2980 C.ar   68  TYR68       0.1957
     44  OH         5.3820   31.5570  -28.1570 O.3    68  TYR68      -0.2866
     45  N         14.3810   29.6420  -32.3180 N.3    71  ILE71      -0.1245
     46  CA        14.9610   30.8150  -31.6430 C.3    71  ILE71       0.1561
     47  C         16.1120   30.4170  -30.7130 C.2    71  ILE71       0.2260
     48  O         17.0860   31.1570  -30.5850 O.2    71  ILE71      -0.2867
     49  CB        13.8990   31.6820  -30.9060 C.3    71  ILE71       0.0252
     50  CG1       14.5000   33.0300  -30.4880 C.3    71  ILE71       0.0019
     51  CG2       13.3160   30.9710  -29.6880 C.3    71  ILE71       0.0019
     52  CD1       13.4750   34.1140  -30.2480 C.3    71  ILE71       0.0001
     53  N         20.0410   31.5510  -31.5680 N.3    75  MET75      -0.1245
     54  CA        20.7210   32.1660  -30.4230 C.3    75  MET75       0.1570
     55  C         22.0280   31.4380  -30.0970 C.2    75  MET75       0.2261
     56  O         23.0170   32.0800  -29.7490 O.2    75  MET75      -0.2867
     57  CB        19.8150   32.2070  -29.1870 C.3    75  MET75       0.0387
     58  CG        18.7980   33.3360  -29.2120 C.3    75  MET75       0.0595
     59  SD        17.4990   33.1280  -27.9800 S.3    75  MET75      -0.1393
     60  CE        18.3900   33.5320  -26.4800 C.3    75  MET75       0.0692
     61  N         22.8690   44.6490  -22.6200 N.3   226  LEU226     -0.1245
     62  CA        21.7580   44.9600  -23.5420 C.3   226  LEU226      0.1561
     63  C         22.2200   45.2120  -24.9770 C.2   226  LEU226      0.2260
     64  O         21.5200   44.8480  -25.9240 O.2   226  LEU226     -0.2867
     65  CB        20.9340   46.1630  -23.0580 C.3   226  LEU226      0.0270
     66  CG        19.7340   45.8270  -22.1710 C.3   226  LEU226      0.0019
     67  CD1       20.1760   45.3250  -20.8020 C.3   226  LEU226      0.0001
     68  CD2       18.8260   47.0420  -22.0410 C.3   226  LEU226      0.0001
     69  N         22.9700   41.8430  -26.2940 N.3   229  ILE229     -0.1245
     70  CA        21.6710   41.2050  -26.5490 C.3   229  ILE229      0.1561
     71  C         21.0410   41.7700  -27.8230 C.2   229  ILE229      0.2260
     72  O         20.5440   41.0130  -28.6520 O.2   229  ILE229     -0.2867
     73  CB        20.6970   41.3620  -25.3540 C.3   229  ILE229      0.0252
     74  CG1       21.1960   40.5630  -24.1410 C.3   229  ILE229      0.0019
     75  CG2       19.3070   40.8420  -25.7090 C.3   229  ILE229      0.0019
     76  CD1       20.6830   41.0780  -22.8140 C.3   229  ILE229      0.0001
     77  N         22.8880   40.4070  -30.7310 N.3   232  LEU232     -0.1231
     78  CA        22.4700   39.0130  -30.9090 C.3   232  LEU232      0.1693
     79  C         21.1040   38.9450  -31.5800 C.2   232  LEU232      0.2591
     80  O         20.9620   38.3230  -32.6270 O.2   232  LEU232     -0.2718
     81  CB        22.4150   38.2700  -29.5690 C.3   232  LEU232      0.0284
     82  CG        22.0400   36.7820  -29.6330 C.3   232  LEU232      0.0019
     83  CD1       23.2010   35.9600  -30.1740 C.3   232  LEU232      0.0001
     84  CD2       21.6080   36.2740  -28.2660 C.3   232  LEU232      0.0001
     85  N         20.1110   39.5920  -30.9730 N.am  233  MET233     -0.1979
     86  CA        18.7230   39.4990  -31.4430 C.3   233  MET233      0.1605
     87  C         18.4690   40.1560  -32.8000 C.2   233  MET233      0.2287
     88  O         17.5320   39.7660  -33.4990 O.2   233  MET233     -0.2864
     89  CB        17.7470   40.0510  -30.3940 C.3   233  MET233      0.0413
     90  CG        17.7340   39.3120  -29.0560 C.3   233  MET233      0.0598
     91  SD        18.0160   37.5270  -29.1220 S.3   233  MET233     -0.1393
     92  CE        16.5660   36.9820  -30.0220 C.3   233  MET233      0.0692
     93  N         16.8130   37.4990  -35.2280 N.3   237  LEU237     -0.1245
     94  CA        15.4620   37.7970  -35.7270 C.3   237  LEU237      0.1561
     95  C         15.4120   38.3660  -37.1500 C.2   237  LEU237      0.2260
     96  O         14.4270   38.1480  -37.8600 O.2   237  LEU237     -0.2867
     97  CB        14.7430   38.7430  -34.7560 C.3   237  LEU237      0.0270
     98  CG        14.6510   38.2480  -33.3050 C.3   237  LEU237      0.0019
     99  CD1       14.1770   39.3540  -32.3760 C.3   237  LEU237      0.0001
    100  CD2       13.7380   37.0340  -33.1940 C.3   237  LEU237      0.0001
@<TRIPOS>BOND
     1    96    95    2
     2    95    94    1
     3    94    93    1
     4    94    97    1
     5    97    98    1
     6    88    87    2
     7    98   100    1
     8    98    99    1
     9    87    86    1
    10    80    79    2
    11    45    46    1
    12    46    49    1
    13    46    47    1
    14    79    85   am
    15    79    78    1
    16    53    54    1
    17    86    85    1
    18    86    89    1
    19    78    77    1
    20    78    81    1
    21    49    50    1
    22    49    51    1
    23    47    48    2
    24    50    52    1
    25    54    55    1
    26    54    57    1
    27    89    90    1
    28    83    82    1
    29    33    34    1
    30    35    34    1
    31    35    36    2
    32    55    56    2
    33    34    37    1
    34    92    91    1
    35    82    81    1
    36    82    84    1
    37    58    57    1
    38    58    59    1
    39    91    90    1
    40    40    42   ar
    41    40    38   ar
    42    42    43   ar
    43    37    38    1
    44    72    71    2
    45    38    39   ar
    46    43    44    1
    47    43    41   ar
    48    59    60    1
    49    39    41   ar
    50    71    70    1
    51    70    69    1
    52    70    73    1
    53    24    22    1
    54    64    63    2
    55    75    73    1
    56    73    74    1
    57    23    22    1
    58    22    21    1
    59    63    62    1
    60    20    19    2
    61    74    76    1
    62    21    18    1
    63    19    18    1
    64    62    65    1
    65    62    61    1
    66    18    17    1
    67    65    66    1
    68    27    28    2
    69    27    26    1
    70    66    68    1
    71    66    67    1
    72     4     3    2
    73    17    11   am
    74     3     2    1
    75    25    26    1
    76     7     5    1
    77    26    29    1
    78    11    12    2
    79    11    10    1
    80     5     2    1
    81     5     6    1
    82    29    30    1
    83     9    10    1
    84     2     1    1
    85    10    13    1
    86     8     6    1
    87    30    31    1
    88    30    32    1
    89    13    15    1
    90    13    14    1
    91    14    16    1
