@<TRIPOS>MOLECULE
tmp/5nmiN00.pdb
 113 104 0 0 0
SMALL
GASTEIGER

@<TRIPOS>ATOM
      1  N         34.8170   51.5140  -22.3420 N.3    22  SER22      -0.1217
      2  CA        33.9370   50.4030  -22.7230 C.3    22  SER22       0.1889
      3  C         34.6530   49.1740  -23.3020 C.2    22  SER22       0.2288
      4  O         34.0010   48.1630  -23.5630 O.2    22  SER22      -0.2866
      5  CB        32.8930   50.8850  -23.7350 C.3    22  SER22       0.2089
      6  OG        32.1980   52.0190  -23.2460 O.3    22  SER22      -0.2183
      7  N         34.3330   46.2010  -20.9080 N.3    25  ASN25      -0.1225
      8  CA        33.0130   45.5670  -20.8160 C.3    25  ASN25       0.1785
      9  C         32.9450   44.1750  -21.4550 C.2    25  ASN25       0.2597
     10  O         32.0770   43.3910  -21.0910 O.2    25  ASN25      -0.2718
     11  CB        31.9180   46.4650  -21.4160 C.3    25  ASN25       0.1169
     12  CG        31.5560   47.6280  -20.5080 C.2    25  ASN25       0.2627
     13  OD1       32.3880   48.4860  -20.2080 O.2    25  ASN25      -0.2716
     14  ND2       30.3050   47.6570  -20.0610 N.am   25  ASN25      -0.0877
     15  N         33.8510   43.8700  -22.3860 N.am   26  PHE26      -0.1976
     16  CA        33.8290   42.5840  -23.1020 C.3    26  PHE26       0.1639
     17  C         34.0920   41.3420  -22.2440 C.2    26  PHE26       0.2290
     18  O         33.6040   40.2590  -22.5770 O.2    26  PHE26      -0.2864
     19  CB        34.7860   42.6170  -24.2960 C.3    26  PHE26       0.0560
     20  CG        34.3140   43.5080  -25.4060 C.ar   26  PHE26      -0.0200
     21  CD1       33.2420   43.1210  -26.2060 C.ar   26  PHE26      -0.0042
     22  CD2       34.9130   44.7420  -25.6400 C.ar   26  PHE26      -0.0042
     23  CE1       32.7840   43.9430  -27.2250 C.ar   26  PHE26      -0.0003
     24  CE2       34.4630   45.5670  -26.6630 C.ar   26  PHE26      -0.0003
     25  CZ        33.3960   45.1670  -27.4560 C.ar   26  PHE26      -0.0000
     26  N         30.7840   40.3340  -20.8780 N.3    29  LEU29      -0.1245
     27  CA        30.0080   39.8640  -22.0310 C.3    29  LEU29       0.1561
     28  C         30.4080   38.4540  -22.4590 C.2    29  LEU29       0.2260
     29  O         29.5420   37.6550  -22.8150 O.2    29  LEU29      -0.2867
     30  CB        30.1590   40.8200  -23.2190 C.3    29  LEU29       0.0270
     31  CG        29.6550   42.2570  -23.0490 C.3    29  LEU29       0.0019
     32  CD1       29.9010   43.0370  -24.3280 C.3    29  LEU29       0.0001
     33  CD2       28.1920   42.3370  -22.6450 C.3    29  LEU29       0.0001
     34  N         28.9470   35.8920  -31.7340 N.3    82  MET82      -0.1245
     35  CA        29.0240   37.0250  -30.7980 C.3    82  MET82       0.1570
     36  C         30.0670   36.8040  -29.6990 C.2    82  MET82       0.2261
     37  O         30.7500   37.7460  -29.2880 O.2    82  MET82      -0.2867
     38  CB        27.6570   37.3040  -30.1580 C.3    82  MET82       0.0387
     39  CG        26.5850   37.8190  -31.1140 C.3    82  MET82       0.0595
     40  SD        27.0130   39.3160  -32.0320 S.3    82  MET82      -0.1393
     41  CE        27.3150   40.4820  -30.7040 C.3    82  MET82       0.0692
     42  N         33.3250   37.5200  -31.6150 N.3    85  ILE85      -0.1231
     43  CA        33.5070   38.9710  -31.7950 C.3    85  ILE85       0.1692
     44  C         34.0400   39.5410  -30.4800 C.2    85  ILE85       0.2592
     45  O         35.1040   40.1630  -30.4570 O.2    85  ILE85      -0.2718
     46  CB        32.2030   39.7060  -32.2080 C.3    85  ILE85       0.0266
     47  CG1       31.7610   39.2770  -33.6120 C.3    85  ILE85       0.0019
     48  CG2       32.3970   41.2230  -32.1830 C.3    85  ILE85       0.0020
     49  CD1       30.3180   39.5950  -33.9370 C.3    85  ILE85       0.0001
     50  N         33.3050   39.2790  -29.3980 N.am   86  CYS86      -0.1970
     51  CA        33.6950   39.6840  -28.0420 C.3    86  CYS86       0.1712
     52  C         35.1130   39.2510  -27.6560 C.2    86  CYS86       0.2296
     53  O         35.8330   40.0200  -27.0200 O.2    86  CYS86      -0.2864
     54  CB        32.6950   39.1490  -27.0080 C.3    86  CYS86       0.0983
     55  SG        31.1160   40.0300  -26.9810 S.3    86  CYS86      -0.0798
     56  N         27.0610   49.7010  -15.5670 N.3   220  LYS220     -0.1245
     57  CA        27.7510   49.8370  -16.8590 C.3   220  LYS220      0.1561
     58  C         27.8000   48.5130  -17.6270 C.2   220  LYS220      0.2260
     59  O         27.5540   48.4900  -18.8330 O.2   220  LYS220     -0.2867
     60  CB        29.1690   50.3940  -16.6930 C.3   220  LYS220      0.0271
     61  CG        29.7260   50.9750  -17.9850 C.3   220  LYS220      0.0035
     62  CD        31.1200   51.5560  -17.8230 C.3   220  LYS220      0.0206
     63  CE        31.4970   52.3970  -19.0350 C.3   220  LYS220      0.1093
     64  NZ        32.7590   53.1560  -18.8320 N.3   220  LYS220     -0.1314
     65  N         24.2840   47.7870  -18.9270 N.3   223  LEU223     -0.1231
     66  CA        24.0980   48.5620  -20.1590 C.3   223  LEU223      0.1693
     67  C         24.7260   47.8600  -21.3670 C.2   223  LEU223      0.2592
     68  O         24.0860   47.7150  -22.4130 O.2   223  LEU223     -0.2718
     69  CB        24.7040   49.9620  -19.9920 C.3   223  LEU223      0.0284
     70  CG        24.7220   50.9220  -21.1870 C.3   223  LEU223      0.0019
     71  CD1       23.3150   51.2460  -21.6630 C.3   223  LEU223      0.0001
     72  CD2       25.4710   52.1920  -20.8180 C.3   223  LEU223      0.0001
     73  N         25.9760   47.4310  -21.2020 N.am  224  GLY224     -0.1957
     74  CA        26.7050   46.6890  -22.2320 C.3   224  GLY224      0.1869
     75  C         26.1000   45.3400  -22.5860 C.2   224  GLY224      0.2309
     76  O         26.1730   44.9120  -23.7380 O.2   224  GLY224     -0.2863
     77  N         23.3810   45.8440  -25.1330 N.3   227  LEU227     -0.1231
     78  CA        23.9630   46.0800  -26.4570 C.3   227  LEU227      0.1693
     79  C         24.4240   44.7740  -27.1150 C.2   227  LEU227      0.2591
     80  O         24.2810   44.6080  -28.3260 O.2   227  LEU227     -0.2718
     81  CB        25.1170   47.0830  -26.3720 C.3   227  LEU227      0.0284
     82  CG        24.6970   48.5050  -25.9810 C.3   227  LEU227      0.0019
     83  CD1       25.8670   49.3010  -25.4310 C.3   227  LEU227      0.0001
     84  CD2       24.0750   49.2380  -27.1610 C.3   227  LEU227      0.0001
     85  N         24.9700   43.8570  -26.3150 N.am  228  LEU228     -0.1980
     86  CA        25.2690   42.4950  -26.7750 C.3   228  LEU228      0.1596
     87  C         23.9940   41.7330  -27.1420 C.2   228  LEU228      0.2287
     88  O         23.9580   41.0440  -28.1610 O.2   228  LEU228     -0.2864
     89  CB        26.0290   41.7120  -25.7020 C.3   228  LEU228      0.0297
     90  CG        26.4690   40.2890  -26.0740 C.3   228  LEU228      0.0022
     91  CD1       27.6350   40.3390  -27.0490 C.3   228  LEU228      0.0001
     92  CD2       26.8250   39.4810  -24.8340 C.3   228  LEU228      0.0001
     93  N         21.0600   43.0950  -27.9610 N.3   230  LEU230     -0.1231
     94  CA        20.5930   43.7750  -29.1740 C.3   230  LEU230      0.1693
     95  C         21.2790   43.2050  -30.4080 C.2   230  LEU230      0.2591
     96  O         20.6140   42.7490  -31.3380 O.2   230  LEU230     -0.2718
     97  CB        20.8520   45.2850  -29.0740 C.3   230  LEU230      0.0284
     98  CG        20.5790   46.1770  -30.2920 C.3   230  LEU230      0.0019
     99  CD1       19.1150   46.1380  -30.7070 C.3   230  LEU230      0.0001
    100  CD2       21.0140   47.6020  -29.9900 C.3   230  LEU230      0.0001
    101  N         22.6110   43.2110  -30.3790 N.am  231  ALA231     -0.1980
    102  CA        23.4380   42.6770  -31.4660 C.3   231  ALA231      0.1597
    103  C         23.1540   41.2020  -31.7700 C.2   231  ALA231      0.2287
    104  O         23.1840   40.7990  -32.9320 O.2   231  ALA231     -0.2864
    105  CB        24.9120   42.8700  -31.1460 C.3   231  ALA231      0.0319
    106  N         19.2850   41.1440  -33.1720 N.3   234  LEU234     -0.1245
    107  CA        19.2910   41.6530  -34.5480 C.3   234  LEU234      0.1561
    108  C         19.6690   40.5330  -35.5150 C.2   234  LEU234      0.2260
    109  O         18.9800   40.3070  -36.5110 O.2   234  LEU234     -0.2867
    110  CB        20.2610   42.8270  -34.7040 C.3   234  LEU234      0.0270
    111  CG        19.8250   44.1560  -34.0790 C.3   234  LEU234      0.0019
    112  CD1       21.0190   45.0840  -33.9090 C.3   234  LEU234      0.0001
    113  CD2       18.7400   44.8220  -34.9110 C.3   234  LEU234      0.0001
@<TRIPOS>BOND
     1   109   108    2
     2   108   107    1
     3   113   111    1
     4   110   107    1
     5   110   111    1
     6   107   106    1
     7   111   112    1
     8    49    47    1
     9    47    46    1
    10   104   103    2
    11    46    48    1
    12    46    43    1
    13    40    39    1
    14    40    41    1
    15    43    42    1
    16    43    44    1
    17   103   102    1
    18    34    35    1
    19   102   105    1
    20   102   101    1
    21    96    95    2
    22    39    38    1
    23    35    38    1
    24    35    36    1
    25    99    98    1
    26    44    45    2
    27    44    50   am
    28    95   101   am
    29    95    94    1
    30    98   100    1
    31    98    97    1
    32    36    37    2
    33    50    51    1
    34    94    97    1
    35    94    93    1
    36    80    79    2
    37    88    87    2
    38    51    52    1
    39    51    54    1
    40    52    53    2
    41    25    23   ar
    42    25    24   ar
    43    23    21   ar
    44    84    82    1
    45    87    86    1
    46    79    78    1
    47    79    85   am
    48    91    90    1
    49    54    55    1
    50    86    85    1
    51    86    89    1
    52    24    22   ar
    53    78    81    1
    54    78    77    1
    55    81    82    1
    56    21    20   ar
    57    90    89    1
    58    90    92    1
    59    82    83    1
    60    22    20   ar
    61    20    19    1
    62    32    31    1
    63    19    16    1
    64    76    75    2
    65     5     6    1
    66     5     2    1
    67     4     3    2
    68     3     2    1
    69    30    31    1
    70    30    27    1
    71    16    15    1
    72    16    17    1
    73    31    33    1
    74    29    28    2
    75     2     1    1
    76    75    74    1
    77    18    17    2
    78    28    27    1
    79    68    67    2
    80    15     9   am
    81    74    73    1
    82    27    26    1
    83    71    70    1
    84     9    10    2
    85     9     8    1
    86    11     8    1
    87    11    12    1
    88    67    73   am
    89    67    66    1
    90    70    72    1
    91    70    69    1
    92     7     8    1
    93    12    13    2
    94    12    14   am
    95    66    69    1
    96    66    65    1
    97    63    64    1
    98    63    62    1
    99    59    58    2
   100    61    62    1
   101    61    60    1
   102    58    57    1
   103    57    60    1
   104    57    56    1
