@<TRIPOS>MOLECULE
tmp/5nmiC02.pdb
 152 144 0 0 0
SMALL
GASTEIGER

@<TRIPOS>ATOM
      1  N         43.8740   23.6470    1.6570 N.3    10  ALA10      -0.1231
      2  CA        42.9420   22.5540    1.3980 C.3    10  ALA10       0.1694
      3  C         43.5290   21.2070    1.8020 C.2    10  ALA10       0.2592
      4  O         43.0120   20.5610    2.7090 O.2    10  ALA10      -0.2718
      5  CB        42.5310   22.5320   -0.0680 C.3    10  ALA10       0.0304
      6  N         44.6070   20.8000    1.1280 N.am   11  PHE11      -0.1976
      7  CA        45.0860   19.4080    1.1840 C.3    11  PHE11       0.1639
      8  C         46.4840   19.1630    1.7710 C.2    11  PHE11       0.2290
      9  O         46.7590   18.0410    2.1780 O.2    11  PHE11      -0.2864
     10  CB        45.0190   18.7580   -0.2120 C.3    11  PHE11       0.0560
     11  CG        43.7150   18.9840   -0.9490 C.ar   11  PHE11      -0.0200
     12  CD1       42.4830   18.9120   -0.2900 C.ar   11  PHE11      -0.0042
     13  CD2       43.7180   19.2420   -2.3200 C.ar   11  PHE11      -0.0042
     14  CE1       41.2940   19.1160   -0.9790 C.ar   11  PHE11      -0.0003
     15  CE2       42.5290   19.4440   -3.0110 C.ar   11  PHE11      -0.0003
     16  CZ        41.3160   19.3790   -2.3390 C.ar   11  PHE11      -0.0000
     17  N         46.4980   21.5210    5.9970 N.3    14  LEU14      -0.1245
     18  CA        45.2320   21.7050    6.7000 C.3    14  LEU14       0.1561
     19  C         45.3520   20.9790    8.0370 C.2    14  LEU14       0.2260
     20  O         45.6850   19.7950    8.0430 O.2    14  LEU14      -0.2867
     21  CB        44.0770   21.0970    5.8940 C.3    14  LEU14       0.0270
     22  CG        42.6970   20.9660    6.5530 C.3    14  LEU14       0.0019
     23  CD1       42.0710   22.3300    6.7850 C.3    14  LEU14       0.0001
     24  CD2       41.7760   20.0900    5.7150 C.3    14  LEU14       0.0001
     25  N         44.1490   18.7230   10.4200 N.3    16  ALA16      -0.1245
     26  CA        43.1560   17.6970   10.6930 C.3    16  ALA16       0.1562
     27  C         43.2730   17.2980   12.1570 C.2    16  ALA16       0.2260
     28  O         44.3290   17.4860   12.7610 O.2    16  ALA16      -0.2867
     29  CB        43.3920   16.4870    9.8060 C.3    16  ALA16       0.0290
     30  N         41.0010   10.5470   13.7740 N.3    20  ILE20      -0.1245
     31  CA        39.8990   10.3510   12.8440 C.3    20  ILE20       0.1561
     32  C         39.9040    8.9240   12.3030 C.2    20  ILE20       0.2260
     33  O         40.8690    8.4880   11.6740 O.2    20  ILE20      -0.2867
     34  CB        39.9290   11.3960   11.7110 C.3    20  ILE20       0.0252
     35  CG1       39.4680   12.7410   12.2740 C.3    20  ILE20       0.0019
     36  CG2       39.0350   10.9740   10.5580 C.3    20  ILE20       0.0019
     37  CD1       39.7250   13.9240   11.3750 C.3    20  ILE20       0.0001
     38  N         35.6510    8.7250    8.0700 N.3    24  TRP24      -0.1227
     39  CA        35.8960   10.0060    7.3810 C.3    24  TRP24       0.1737
     40  C         36.5410    9.8280    6.0010 C.2    24  TRP24       0.2595
     41  O         36.6430   10.7910    5.2370 O.2    24  TRP24      -0.2718
     42  CB        36.7880   10.9130    8.2330 C.3    24  TRP24       0.0564
     43  CG        36.0960   11.7190    9.3080 C.ar   24  TRP24       0.0003
     44  CD1       35.9710   13.0760    9.3420 C.ar   24  TRP24       0.0946
     45  CD2       35.4850   11.2330   10.5150 C.ar   24  TRP24       0.0152
     46  NE1       35.3070   13.4670   10.4760 N.ar   24  TRP24      -0.2442
     47  CE2       34.9960   12.3590   11.2140 C.ar   24  TRP24       0.0810
     48  CE3       35.2920    9.9590   11.0670 C.ar   24  TRP24       0.0012
     49  CZ2       34.3260   12.2530   12.4380 C.ar   24  TRP24       0.0191
     50  CZ3       34.6210    9.8540   12.2880 C.ar   24  TRP24       0.0001
     51  CH2       34.1470   10.9960   12.9580 C.ar   24  TRP24       0.0015
     52  N         36.9960    8.6130    5.6890 N.am   25  ASN25      -0.1974
     53  CA        37.5700    8.3160    4.3710 C.3    25  ASN25       0.1688
     54  C         36.5520    8.3680    3.2260 C.2    25  ASN25       0.2292
     55  O         36.9490    8.5590    2.0850 O.2    25  ASN25      -0.2864
     56  CB        38.2860    6.9570    4.3640 C.3    25  ASN25       0.1181
     57  CG        39.6280    7.0020    5.0710 C.2    25  ASN25       0.2629
     58  OD1       39.7110    7.2790    6.2690 O.2    25  ASN25      -0.2716
     59  ND2       40.6930    6.7340    4.3250 N.am   25  ASN25      -0.0877
     60  N         34.3190   10.6340    2.3390 N.3    27  GLY27      -0.1210
     61  CA        34.2580   11.9300    1.6540 C.3    27  GLY27       0.1956
     62  C         35.1380   11.9710    0.4130 C.2    27  GLY27       0.2612
     63  O         34.6760   12.3150   -0.6760 O.2    27  GLY27      -0.2717
     64  N         36.4090   11.6120    0.5900 N.am   28  SER28      -0.1952
     65  CA        37.3710   11.5570   -0.5180 C.3    28  SER28       0.1924
     66  C         37.0010   10.4990   -1.5600 C.2    28  SER28       0.2314
     67  O         37.2200   10.7010   -2.7520 O.2    28  SER28      -0.2863
     68  CB        38.7860   11.2950    0.0080 C.3    28  SER28       0.2116
     69  OG        38.8160   10.1640    0.8610 O.3    28  SER28      -0.2180
     70  N         34.2740   11.7290   -3.9610 N.3    31  GLY31      -0.1210
     71  CA        34.9070   12.5040   -5.0270 C.3    31  GLY31       0.1956
     72  C         35.5310   11.6050   -6.0800 C.2    31  GLY31       0.2611
     73  O         35.3930   11.8560   -7.2760 O.2    31  GLY31      -0.2717
     74  N         36.2270   10.5620   -5.6220 N.am   32  ILE32      -0.1979
     75  CA        36.8100    9.5410   -6.5030 C.3    32  ILE32       0.1595
     76  C         35.7190    8.8290   -7.3090 C.2    32  ILE32       0.2287
     77  O         35.9110    8.5570   -8.4940 O.2    32  ILE32      -0.2864
     78  CB        37.6860    8.5350   -5.7110 C.3    32  ILE32       0.0276
     79  CG1       38.9760    9.2270   -5.2510 C.3    32  ILE32       0.0022
     80  CG2       38.0400    7.3060   -6.5450 C.3    32  ILE32       0.0022
     81  CD1       39.6540    8.5620   -4.0720 C.3    32  ILE32       0.0001
     82  N         34.4580   11.5430   -9.8680 N.3    35  ILE35      -0.1245
     83  CA        35.4490   11.6350  -10.9460 C.3    35  ILE35       0.1561
     84  C         35.4490   10.3610  -11.8040 C.2    35  ILE35       0.2260
     85  O         35.5890   10.4430  -13.0270 O.2    35  ILE35      -0.2867
     86  CB        36.8660   11.9350  -10.3920 C.3    35  ILE35       0.0252
     87  CG1       36.9010   13.3420   -9.7800 C.3    35  ILE35       0.0019
     88  CG2       37.9340   11.8260  -11.4780 C.3    35  ILE35       0.0019
     89  CD1       38.0200   13.5550   -8.7830 C.3    35  ILE35       0.0001
     90  N         32.9120   21.5150    0.6670 N.3   190  LEU190     -0.1245
     91  CA        34.2600   21.6330    1.2500 C.3   190  LEU190      0.1561
     92  C         34.5700   23.0320    1.7910 C.2   190  LEU190      0.2260
     93  O         35.2350   23.1570    2.8160 O.2   190  LEU190     -0.2867
     94  CB        35.3330   21.2640    0.2210 C.3   190  LEU190      0.0270
     95  CG        35.3480   19.8190   -0.2800 C.3   190  LEU190      0.0019
     96  CD1       36.2530   19.6720   -1.4950 C.3   190  LEU190      0.0001
     97  CD2       35.7750   18.8650    0.8220 C.3   190  LEU190      0.0001
     98  N         33.2700   23.5260    5.1510 N.3   193  LEU193     -0.1231
     99  CA        33.9740   22.6260    6.0610 C.3   193  LEU193      0.1693
    100  C         35.2940   23.1950    6.5980 C.2   193  LEU193      0.2592
    101  O         35.6170   22.9650    7.7620 O.2   193  LEU193     -0.2718
    102  CB        34.2220   21.2770    5.3920 C.3   193  LEU193      0.0284
    103  CG        34.8170   20.1760    6.2700 C.3   193  LEU193      0.0019
    104  CD1       33.8990   19.8080    7.4280 C.3   193  LEU193      0.0001
    105  CD2       35.1080   18.9700    5.4020 C.3   193  LEU193      0.0001
    106  N         36.0480   23.9180    5.7690 N.am  194  HIS194     -0.1976
    107  CA        37.3040   24.5520    6.2180 C.3   194  HIS194      0.1656
    108  C         37.0500   25.7140    7.1710 C.2   194  HIS194      0.2291
    109  O         37.8200   25.9240    8.1100 O.2   194  HIS194     -0.2864
    110  CB        38.1470   25.0400    5.0380 C.3   194  HIS194      0.0771
    111  CG        38.6500   23.9400    4.1590 C.ar  194  HIS194      0.0820
    112  ND1       39.0910   24.1600    2.8720 N.ar  194  HIS194     -0.2267
    113  CD2       38.7620   22.6080    4.3740 C.ar  194  HIS194      0.1154
    114  CE1       39.4650   23.0120    2.3370 C.ar  194  HIS194      0.1986
    115  NE2       39.2770   22.0540    3.2270 N.ar  194  HIS194     -0.2212
    116  N         37.2290   20.2390   10.8130 N.3   198  SER198     -0.1217
    117  CA        36.7010   18.8690   10.7490 C.3   198  SER198      0.1889
    118  C         36.4100   18.2780   12.1220 C.2   198  SER198      0.2288
    119  O         37.0940   18.5790   13.1060 O.2   198  SER198     -0.2866
    120  CB        37.6580   17.9470   10.0030 C.3   198  SER198      0.2089
    121  OG        37.5660   18.1640    8.6130 O.3   198  SER198     -0.2183
    122  N         47.3080   17.3970    7.3500 N.3   213  PHE213     -0.1241
    123  CA        46.6590   16.4610    6.4250 C.3   213  PHE213      0.1605
    124  C         47.6770   15.5940    5.6900 C.2   213  PHE213      0.2264
    125  O         47.5610   14.3660    5.6680 O.2   213  PHE213     -0.2867
    126  CB        45.8090   17.2270    5.4060 C.3   213  PHE213      0.0534
    127  CG        44.9470   16.3430    4.5570 C.ar  213  PHE213     -0.0203
    128  CD1       45.4600   15.7190    3.4240 C.ar  213  PHE213     -0.0042
    129  CD2       43.6250   16.1200    4.8950 C.ar  213  PHE213     -0.0042
    130  CE1       44.6670   14.8980    2.6410 C.ar  213  PHE213     -0.0003
    131  CE2       42.8340   15.2990    4.1160 C.ar  213  PHE213     -0.0003
    132  CZ        43.3500   14.6860    2.9910 C.ar  213  PHE213     -0.0000
    133  N         46.8140   11.9070    6.3980 N.3   217  TYR217     -0.1241
    134  CA        45.5380   11.5770    5.7560 C.3   217  TYR217      0.1605
    135  C         45.6190   11.4500    4.2320 C.2   217  TYR217      0.2264
    136  O         44.6840   10.9320    3.6140 O.2   217  TYR217     -0.2867
    137  CB        44.4580   12.5770    6.1700 C.3   217  TYR217      0.0534
    138  CG        44.1240   12.4480    7.6310 C.ar  217  TYR217     -0.0201
    139  CD1       43.2350   11.4710    8.0780 C.ar  217  TYR217     -0.0009
    140  CD2       44.7270   13.2710    8.5770 C.ar  217  TYR217     -0.0009
    141  CE1       42.9360   11.3340    9.4240 C.ar  217  TYR217      0.0417
    142  CE2       44.4340   13.1450    9.9280 C.ar  217  TYR217      0.0417
    143  CZ        43.5380   12.1760   10.3480 C.ar  217  TYR217      0.1957
    144  OH        43.2460   12.0440   11.6830 O.3   217  TYR217     -0.2866
    145  N         43.9070    8.2010    2.8730 N.3   221  ASP221     -0.1239
    146  CA        42.8970    8.2860    1.8090 C.3   221  ASP221      0.1674
    147  C         43.3100    7.5120    0.5490 C.2   221  ASP221      0.2266
    148  O         42.4490    7.0120   -0.1790 O.2   221  ASP221     -0.2867
    149  CB        42.5830    9.7490    1.4520 C.3   221  ASP221      0.1410
    150  CG        41.7850   10.4690    2.5330 C.2   221  ASP221      0.3668
    151  OD1       40.9770    9.8270    3.2390 O.co2 221  ASP221     -0.2456
    152  OD2       41.9610   11.6960    2.6710 O.co2 221  ASP221     -0.2456
@<TRIPOS>BOND
     1    85    84    2
     2    84    83    1
     3    88    86    1
     4    83    86    1
     5    83    82    1
     6    86    87    1
     7    87    89    1
     8    77    76    2
     9    76    75    1
    10    73    72    2
    11    80    78    1
    12    75    78    1
    13    75    74    1
    14    72    74   am
    15    72    71    1
    16    78    79    1
    17    79    81    1
    18    71    70    1
    19    15    16   ar
    20    15    13   ar
    21    67    66    2
    22    16    14   ar
    23    13    11   ar
    24    66    65    1
    25    96    95    1
    26    14    12   ar
    27    11    12   ar
    28    11    10    1
    29    63    62    2
    30    65    68    1
    31    65    64    1
    32    95    94    1
    33    95    97    1
    34    10     7    1
    35   148   147    2
    36     5     2    1
    37    68    69    1
    38    94    91    1
    39    62    64   am
    40    62    61    1
    41   147   146    1
    42    90    91    1
    43     6     7    1
    44     6     3   am
    45     7     8    1
    46    91    92    1
    47     2     1    1
    48     2     3    1
    49   149   146    1
    50   149   150    1
    51    61    60    1
    52     8     9    2
    53    92    93    2
    54     3     4    2
    55   146   145    1
    56    55    54    2
    57   114   112   ar
    58   114   115   ar
    59   150   152   ar
    60   150   151   ar
    61   130   132   ar
    62   130   128   ar
    63   112   111   ar
    64   132   131   ar
    65    54    53    1
    66   115   113   ar
    67   128   127   ar
    68   136   135    2
    69   131   129   ar
    70   111   113   ar
    71   111   110    1
    72   135   134    1
    73    59    57   am
    74    56    53    1
    75    56    57    1
    76    53    52    1
    77   127   129   ar
    78   127   126    1
    79   110   107    1
    80    57    58    2
    81    98    99    1
    82    41    40    2
    83   102    99    1
    84   102   103    1
    85   105   103    1
    86   126   123    1
    87   125   124    2
    88    52    40   am
    89   124   123    1
    90    24    22    1
    91   134   137    1
    92   134   133    1
    93   106   107    1
    94   106   100   am
    95    21    22    1
    96    21    18    1
    97    17    18    1
    98    40    39    1
    99    99   100    1
   100   137   138    1
   101   107   108    1
   102   103   104    1
   103   123   122    1
   104    22    23    1
   105   100   101    2
   106    18    19    1
   107   108   109    2
   108    39    38    1
   109    39    42    1
   110   138   139   ar
   111   138   140   ar
   112    19    20    2
   113   139   141   ar
   114    42    43    1
   115   140   142   ar
   116   121   120    1
   117    43    44   ar
   118    43    45   ar
   119    44    46   ar
   120   141   143   ar
   121    29    26    1
   122   142   143   ar
   123   120   117    1
   124   143   144    1
   125    25    26    1
   126    46    47   ar
   127    45    48   ar
   128    45    47   ar
   129    36    34    1
   130    26    27    1
   131   117   116    1
   132   117   118    1
   133    48    50   ar
   134    47    49   ar
   135    37    35    1
   136    33    32    2
   137    34    35    1
   138    34    31    1
   139   118   119    2
   140    27    28    2
   141    50    51   ar
   142    32    31    1
   143    49    51   ar
   144    31    30    1
