@<TRIPOS>MOLECULE
tmp/5nmpA00.pdb
 115 112 0 0 0
SMALL
GASTEIGER

@<TRIPOS>ATOM
      1  N        180.5270   70.9810  270.6140 N.3    39  LEU39      -0.1245
      2  CA       180.0900   69.5920  270.6570 C.3    39  LEU39       0.1561
      3  C        180.2570   68.9840  272.0460 C.2    39  LEU39       0.2260
      4  O        181.3160   69.1060  272.6630 O.2    39  LEU39      -0.2867
      5  CB       180.8680   68.7680  269.6330 C.3    39  LEU39       0.0270
      6  CG       180.6650   67.2580  269.6970 C.3    39  LEU39       0.0019
      7  CD1      179.2340   66.8930  269.3380 C.3    39  LEU39       0.0001
      8  CD2      181.6560   66.5630  268.7810 C.3    39  LEU39       0.0001
      9  N        179.8450   65.3060  274.1520 N.3    41  LEU41      -0.1245
     10  CA       179.6570   63.8600  274.1450 C.3    41  LEU41       0.1561
     11  C        179.1450   63.4050  275.5060 C.2    41  LEU41       0.2260
     12  O        179.2120   64.1700  276.4700 O.2    41  LEU41      -0.2867
     13  CB       180.9730   63.1530  273.8100 C.3    41  LEU41       0.0270
     14  CG       181.7130   63.5950  272.5520 C.3    41  LEU41       0.0019
     15  CD1      182.9310   62.7160  272.3390 C.3    41  LEU41       0.0001
     16  CD2      180.7930   63.5490  271.3480 C.3    41  LEU41       0.0001
     17  N        188.7420   69.9920  266.4100 N.3    76  HIS76      -0.1241
     18  CA       187.4260   69.8760  265.8000 C.3    76  HIS76       0.1621
     19  C        186.4820   70.9610  266.3130 C.2    76  HIS76       0.2264
     20  O        185.4350   70.6770  266.8980 O.2    76  HIS76      -0.2867
     21  CB       186.8570   68.4810  266.0560 C.3    76  HIS76       0.0745
     22  CG       187.6840   67.3850  265.4600 C.ar   76  HIS76       0.0817
     23  ND1      187.3130   66.7070  264.3190 N.ar   76  HIS76      -0.2268
     24  CD2      188.8780   66.8660  265.8340 C.ar   76  HIS76       0.1154
     25  CE1      188.2350   65.8080  264.0220 C.ar   76  HIS76       0.1986
     26  NE2      189.1960   65.8850  264.9260 N.ar   76  HIS76      -0.2212
     27  N        185.8300   73.0350  260.3850 N.3    80  HIS80      -0.1241
     28  CA       187.0860   72.3030  260.4810 C.3    80  HIS80       0.1621
     29  C        187.1970   71.1170  259.5270 C.2    80  HIS80       0.2264
     30  O        186.2490   70.7630  258.8260 O.2    80  HIS80      -0.2867
     31  CB       187.3090   71.8300  261.9180 C.3    80  HIS80       0.0745
     32  CG       186.3920   70.7300  262.3490 C.ar   80  HIS80       0.0817
     33  ND1      185.2350   70.9620  263.0610 N.ar   80  HIS80      -0.2268
     34  CD2      186.4750   69.3870  262.1940 C.ar   80  HIS80       0.1154
     35  CE1      184.6390   69.8110  263.3170 C.ar   80  HIS80       0.1986
     36  NE2      185.3710   68.8400  262.8000 N.ar   80  HIS80      -0.2212
     37  N        188.4980   67.0600  258.8500 N.3    82  ASP82      -0.1239
     38  CA       188.7210   65.7540  259.4750 C.3    82  ASP82       0.1674
     39  C        189.7620   64.9460  258.7050 C.2    82  ASP82       0.2266
     40  O        189.5510   64.5980  257.5440 O.2    82  ASP82      -0.2867
     41  CB       187.4150   64.9540  259.5620 C.3    82  ASP82       0.1410
     42  CG       186.4310   65.5300  260.5730 C.2    82  ASP82       0.3668
     43  OD1      186.8580   65.9660  261.6650 O.co2  82  ASP82      -0.2456
     44  OD2      185.2180   65.5390  260.2760 O.co2  82  ASP82      -0.2456
     45  N        191.8070   60.6280  262.5260 N.3    86  HIS86      -0.1226
     46  CA       190.7760   60.9560  263.5040 C.3    86  HIS86       0.1752
     47  C        189.9780   59.7230  263.9200 C.2    86  HIS86       0.2596
     48  O        189.4730   59.6520  265.0400 O.2    86  HIS86      -0.2718
     49  CB       189.8440   62.0280  262.9350 C.3    86  HIS86       0.0759
     50  CG       188.6910   62.3740  263.8240 C.ar   86  HIS86       0.0818
     51  ND1      188.8360   62.6130  265.1740 N.ar   86  HIS86      -0.2268
     52  CD2      187.3750   62.5390  263.5520 C.ar   86  HIS86       0.1154
     53  CE1      187.6560   62.9020  265.6960 C.ar   86  HIS86       0.1986
     54  NE2      186.7530   62.8630  264.7330 N.ar   86  HIS86      -0.2212
     55  N        189.8770   58.7500  263.0180 N.am   87  TRP87      -0.1976
     56  CA       189.1070   57.5410  263.2900 C.3    87  TRP87       0.1640
     57  C        189.9880   56.2970  263.3170 C.2    87  TRP87       0.2290
     58  O        191.0150   56.2350  262.6410 O.2    87  TRP87      -0.2864
     59  CB       187.9980   57.3690  262.2530 C.3    87  TRP87       0.0576
     60  CG       186.7890   56.6880  262.8060 C.ar   87  TRP87       0.0006
     61  CD1      186.4430   55.3780  262.6550 C.ar   87  TRP87       0.0946
     62  CD2      185.7710   57.2830  263.6160 C.ar   87  TRP87       0.0152
     63  NE1      185.2660   55.1220  263.3140 N.ar   87  TRP87      -0.2442
     64  CE2      184.8330   56.2750  263.9140 C.ar   87  TRP87       0.0810
     65  CE3      185.5580   58.5700  264.1160 C.ar   87  TRP87       0.0012
     66  CZ2      183.7000   56.5150  264.6880 C.ar   87  TRP87       0.0191
     67  CZ3      184.4340   58.8070  264.8850 C.ar   87  TRP87       0.0001
     68  CH2      183.5190   57.7850  265.1640 C.ar   87  TRP87       0.0015
     69  N        177.5840   69.7910  262.7180 N.3   199  ILE199     -0.1231
     70  CA       178.7490   69.5270  263.5540 C.3   199  ILE199      0.1692
     71  C        179.1960   68.0680  263.4050 C.2   199  ILE199      0.2592
     72  O        180.1390   67.6220  264.0560 O.2   199  ILE199     -0.2718
     73  CB       178.4450   69.8430  265.0420 C.3   199  ILE199      0.0266
     74  CG1      179.7290   70.0290  265.8570 C.3   199  ILE199      0.0019
     75  CG2      177.5840   68.7490  265.6510 C.3   199  ILE199      0.0020
     76  CD1      180.6290   71.1240  265.3610 C.3   199  ILE199      0.0001
     77  N        178.5180   67.3260  262.5360 N.am  200  ASN200     -0.1974
     78  CA       178.8500   65.9220  262.3030 C.3   200  ASN200      0.1688
     79  C        178.6040   65.5400  260.8420 C.2   200  ASN200      0.2292
     80  O        177.5690   65.8910  260.2780 O.2   200  ASN200     -0.2864
     81  CB       178.0320   65.0270  263.2410 C.3   200  ASN200      0.1181
     82  CG       178.5570   63.5990  263.3110 C.2   200  ASN200      0.2629
     83  OD1      179.3380   63.1630  262.4640 O.2   200  ASN200     -0.2716
     84  ND2      178.1140   62.8580  264.3230 N.am  200  ASN200     -0.0877
     85  N        178.1050   55.3440  262.7810 N.3   213  TYR213     -0.1241
     86  CA       178.7720   56.4490  262.0920 C.3   213  TYR213      0.1605
     87  C        179.4760   55.9920  260.8200 C.2   213  TYR213      0.2264
     88  O        180.7010   56.0560  260.7340 O.2   213  TYR213     -0.2867
     89  CB       179.7770   57.1260  263.0240 C.3   213  TYR213      0.0534
     90  CG       179.1410   57.8860  264.1610 C.ar  213  TYR213     -0.0201
     91  CD1      177.9330   58.5470  263.9900 C.ar  213  TYR213     -0.0009
     92  CD2      179.7470   57.9430  265.4080 C.ar  213  TYR213     -0.0009
     93  CE1      177.3470   59.2460  265.0270 C.ar  213  TYR213      0.0417
     94  CE2      179.1680   58.6400  266.4530 C.ar  213  TYR213      0.0417
     95  CZ       177.9690   59.2890  266.2560 C.ar  213  TYR213      0.1957
     96  OH       177.3880   59.9850  267.2930 O.3   213  TYR213     -0.2866
     97  N        182.1430   58.5100  258.9510 N.3   216  HIS216     -0.1241
     98  CA       183.4360   58.5410  259.6300 C.3   216  HIS216      0.1621
     99  C        184.2110   57.2380  259.4400 C.2   216  HIS216      0.2264
    100  O        185.3870   57.2540  259.0770 O.2   216  HIS216     -0.2867
    101  CB       183.2580   58.8140  261.1250 C.3   216  HIS216      0.0745
    102  CG       183.1570   60.2670  261.4660 C.ar  216  HIS216      0.0817
    103  ND1      181.9570   60.9440  261.4970 N.ar  216  HIS216     -0.2268
    104  CD2      184.1090   61.1730  261.7920 C.ar  216  HIS216      0.1154
    105  CE1      182.1750   62.2040  261.8280 C.ar  216  HIS216      0.1986
    106  NE2      183.4720   62.3700  262.0120 N.ar  216  HIS216     -0.2212
    107  N        183.3300   70.0950  258.0790 N.3   228  GLN228     -0.1245
    108  CA       182.1810   70.3330  258.9440 C.3   228  GLN228      0.1566
    109  C        181.9310   71.8200  259.1760 C.2   228  GLN228      0.2260
    110  O        182.8470   72.6370  259.0720 O.2   228  GLN228     -0.2867
    111  CB       182.3740   69.6120  260.2790 C.3   228  GLN228      0.0367
    112  CG       182.5190   68.1010  260.1300 C.3   228  GLN228      0.0905
    113  CD       182.7180   67.3880  261.4510 C.2   228  GLN228      0.2608
    114  OE1      182.4720   67.9490  262.5180 O.2   228  GLN228     -0.2717
    115  NE2      183.1680   66.1400  261.3860 N.am  228  GLN228     -0.0878
@<TRIPOS>BOND
     1    40    39    2
     2   107   108    1
     3    39    38    1
     4    30    29    2
     5    37    38    1
     6   108   109    1
     7   108   111    1
     8    97    98    1
     9   110   109    2
    10   100    99    2
    11    99    98    1
    12    38    41    1
    13    29    28    1
    14    41    42    1
    15    98   101    1
    16   112   111    1
    17   112   113    1
    18    44    42   ar
    19    80    79    2
    20    27    28    1
    21    28    31    1
    22    42    43   ar
    23    88    87    2
    24    87    86    1
    25    79    78    1
    26   101   102    1
    27   115   113   am
    28   113   114    2
    29   102   103   ar
    30   102   104   ar
    31   103   105   ar
    32   104   106   ar
    33   105   106   ar
    34    31    32    1
    35    86    85    1
    36    86    89    1
    37    34    32   ar
    38    34    36   ar
    39    59    60    1
    40    59    56    1
    41    78    77    1
    42    78    81    1
    43    32    33   ar
    44    83    82    2
    45    45    46    1
    46    77    71   am
    47    58    57    2
    48    61    60   ar
    49    61    63   ar
    50    69    70    1
    51    36    35   ar
    52    60    62   ar
    53    49    46    1
    54    49    50    1
    55    55    56    1
    56    55    47   am
    57    89    90    1
    58    33    35   ar
    59    81    82    1
    60    56    57    1
    61    82    84   am
    62    63    64   ar
    63    71    70    1
    64    71    72    2
    65    46    47    1
    66    52    50   ar
    67    52    54   ar
    68    70    73    1
    69    62    64   ar
    70    62    65   ar
    71    50    51   ar
    72    64    66   ar
    73    47    48    2
    74    91    90   ar
    75    91    93   ar
    76    25    23   ar
    77    25    26   ar
    78    65    67   ar
    79    90    92   ar
    80    23    22   ar
    81    66    68   ar
    82    54    53   ar
    83    67    68   ar
    84    26    24   ar
    85    93    95   ar
    86    73    75    1
    87    73    74    1
    88    51    53   ar
    89    76    74    1
    90    92    94   ar
    91    22    24   ar
    92    22    21    1
    93    18    21    1
    94    18    19    1
    95    18    17    1
    96    95    94   ar
    97    95    96    1
    98    19    20    2
    99     8     6    1
   100     7     6    1
   101     5     6    1
   102     5     2    1
   103     1     2    1
   104     2     3    1
   105    16    14    1
   106     3     4    2
   107    15    14    1
   108    14    13    1
   109    13    10    1
   110    10     9    1
   111    10    11    1
   112    11    12    2
