@<TRIPOS>MOLECULE
tmp/5nn0A00.pdb
 75 73 0 0 0
SMALL
GASTEIGER

@<TRIPOS>ATOM
      1  N         -3.5720   39.6800   27.8490 N.3   155  PRO155     -0.2116
      2  CA        -3.9100   38.2460   27.8620 C.3   155  PRO155      0.1372
      3  C         -5.1390   37.9500   27.0140 C.2   155  PRO155      0.2244
      4  O         -6.1460   38.6600   27.0750 O.2   155  PRO155     -0.2868
      5  CB        -4.1520   37.9510   29.3470 C.3   155  PRO155      0.0268
      6  CG        -3.4420   39.0770   30.0770 C.3   155  PRO155      0.0207
      7  CD        -3.6220   40.2710   29.1960 C.3   155  PRO155      0.0892
      8  N         -0.0740   39.7620   38.0770 N.3   233  SER233     -0.1202
      9  CA        -1.5210   39.5890   37.9810 C.3   233  SER233      0.2020
     10  C         -2.0560   40.1210   36.6480 C.2   233  SER233      0.2619
     11  O         -1.4400   40.9620   35.9890 O.2   233  SER233     -0.2717
     12  CB        -2.2250   40.3000   39.1340 C.3   233  SER233      0.2103
     13  OG        -2.1910   41.7040   38.9500 O.3   233  SER233     -0.2182
     14  N         -3.2300   39.6140   36.2600 N.am  234  LEU234     -0.1965
     15  CA        -3.8660   40.0170   35.0030 C.3   234  LEU234      0.1728
     16  C         -4.0870   41.5250   34.9240 C.2   234  LEU234      0.2616
     17  O         -3.8300   42.1570   33.8900 O.2   234  LEU234     -0.2715
     18  CB        -5.2050   39.3010   34.8600 C.3   234  LEU234      0.0311
     19  CG        -6.0940   39.7090   33.6880 C.3   234  LEU234      0.0022
     20  CD1       -5.9240   38.7270   32.5480 C.3   234  LEU234      0.0001
     21  CD2       -7.5540   39.7780   34.1220 C.3   234  LEU234      0.0001
     22  N         -4.5920   42.1120   36.0000 N.am  235  TYR235     -0.1974
     23  CA        -4.9140   43.5290   35.9830 C.3   235  TYR235      0.1639
     24  C         -3.6500   44.3530   35.9510 C.2   235  TYR235      0.2290
     25  O         -3.5280   45.3040   35.1650 O.2   235  TYR235     -0.2864
     26  CB        -5.7460   43.8710   37.2070 C.3   235  TYR235      0.0560
     27  CG        -7.0460   43.1550   37.1250 C.ar  235  TYR235     -0.0198
     28  CD1       -7.8830   43.3820   36.0530 C.ar  235  TYR235     -0.0009
     29  CD2       -7.4160   42.2110   38.0710 C.ar  235  TYR235     -0.0009
     30  CE1       -9.0680   42.7320   35.9300 C.ar  235  TYR235      0.0417
     31  CE2       -8.6200   41.5430   37.9600 C.ar  235  TYR235      0.0417
     32  CZ        -9.4430   41.8120   36.8800 C.ar  235  TYR235      0.1957
     33  OH       -10.6510   41.1630   36.7360 O.3   235  TYR235     -0.2866
     34  N         -0.8050   34.7170   34.0300 N.3   292  VAL292     -0.1231
     35  CA        -1.7360   33.6390   33.6940 C.3   292  VAL292      0.1692
     36  C         -2.2970   33.9720   32.3150 C.2   292  VAL292      0.2592
     37  O         -3.1490   34.8510   32.1710 O.2   292  VAL292     -0.2718
     38  CB        -2.8460   33.4750   34.7360 C.3   292  VAL292      0.0266
     39  CG1       -3.7660   32.3140   34.3470 C.3   292  VAL292      0.0020
     40  CG2       -2.2540   33.2410   36.1140 C.3   292  VAL292      0.0020
     41  N         -1.8100   33.2730   31.2970 N.am  293  ASP293     -0.1960
     42  CA        -2.1470   33.5470   29.9070 C.3   293  ASP293      0.1840
     43  C         -3.1780   32.5810   29.3290 C.2   293  ASP293      0.2622
     44  O         -3.5820   32.7520   28.1740 O.2   293  ASP293     -0.2715
     45  CB        -0.8770   33.4720   29.0560 C.3   293  ASP293      0.1450
     46  CG        -0.2520   32.0800   29.1100 C.2   293  ASP293      0.3671
     47  OD1       -0.5550   31.3490   30.0860 O.co2 293  ASP293     -0.2456
     48  OD2        0.4970   31.6980   28.1880 O.co2 293  ASP293     -0.2456
     49  N         -3.5850   31.5560   30.0770 N.am  294  GLY294     -0.1954
     50  CA        -4.4400   30.5210   29.5180 C.3   294  GLY294      0.1869
     51  C         -3.7760   29.6130   28.5090 C.2   294  GLY294      0.2309
     52  O         -4.4720   28.8620   27.8190 O.2   294  GLY294     -0.2863
     53  N         -2.3680   27.6640   32.7870 N.3   298  THR298     -0.1203
     54  CA        -3.8060   27.5250   32.5970 C.3   298  THR298      0.1994
     55  C         -4.6460   28.0850   33.7350 C.2   298  THR298      0.2618
     56  O         -5.8620   28.2120   33.5760 O.2   298  THR298     -0.2717
     57  CB        -4.1490   26.0520   32.4140 C.3   298  THR298      0.1784
     58  OG1       -3.9530   25.3770   33.6630 O.3   298  THR298     -0.2211
     59  CG2       -3.2380   25.4280   31.3670 C.3   298  THR298      0.0376
     60  N         -4.0520   28.4060   34.8740 N.am  299  ASP299     -0.1959
     61  CA        -4.8040   28.8980   36.0200 C.3   299  ASP299      0.1840
     62  C         -3.7950   29.5800   36.9270 C.2   299  ASP299      0.2621
     63  O         -2.5900   29.5350   36.6780 O.2   299  ASP299     -0.2715
     64  CB        -5.5480   27.7490   36.7340 C.3   299  ASP299      0.1450
     65  CG        -6.6990   28.2270   37.6340 C.2   299  ASP299      0.3671
     66  OD1       -6.8630   29.4510   37.8590 O.co2 299  ASP299     -0.2456
     67  OD2       -7.4510   27.3530   38.1280 O.co2 299  ASP299     -0.2456
     68  N         -4.2880   30.2240   37.9660 N.am  300  MET300     -0.1977
     69  CA        -3.3830   30.8420   38.9150 C.3   300  MET300      0.1605
     70  C         -2.4890   29.7750   39.5390 C.2   300  MET300      0.2287
     71  O         -2.9950   28.7660   40.0510 O.2   300  MET300     -0.2864
     72  CB        -4.1620   31.5930   39.9800 C.3   300  MET300      0.0413
     73  CG        -5.0500   32.6700   39.3700 C.3   300  MET300      0.0598
     74  SD        -5.5290   33.8830   40.5950 S.3   300  MET300     -0.1393
     75  CE        -3.9020   34.4830   41.0880 C.3   300  MET300      0.0692
@<TRIPOS>BOND
     1     3     4    2
     2     3     2    1
     3    52    51    2
     4     1     2    1
     5     1     7    1
     6     2     5    1
     7    44    43    2
     8    48    46   ar
     9    51    50    1
    10    45    46    1
    11    45    42    1
    12    46    47   ar
    13     7     6    1
    14    43    42    1
    15    43    49   am
    16     5     6    1
    17    50    49    1
    18    42    41    1
    19    41    36   am
    20    59    57    1
    21    37    36    2
    22    36    35    1
    23    57    54    1
    24    57    58    1
    25    20    19    1
    26    54    53    1
    27    54    55    1
    28    56    55    2
    29    19    21    1
    30    19    18    1
    31    35    34    1
    32    35    38    1
    33    55    60   am
    34    17    16    2
    35    39    38    1
    36    38    40    1
    37    18    15    1
    38    60    61    1
    39    16    15    1
    40    16    22   am
    41    15    14    1
    42    25    24    2
    43    30    28   ar
    44    30    32   ar
    45    24    23    1
    46    23    22    1
    47    23    26    1
    48    11    10    2
    49    61    64    1
    50    61    62    1
    51    28    27   ar
    52    14    10   am
    53    10     9    1
    54    63    62    2
    55    64    65    1
    56    33    32    1
    57    32    31   ar
    58    62    68   am
    59    27    26    1
    60    27    29   ar
    61    65    66   ar
    62    65    67   ar
    63    31    29   ar
    64    68    69    1
    65     9     8    1
    66     9    12    1
    67    69    70    1
    68    69    72    1
    69    13    12    1
    70    73    72    1
    71    73    74    1
    72    70    71    2
    73    74    75    1
