@<TRIPOS>MOLECULE
tmp/5nn0A02.pdb
 138 134 0 0 0
SMALL
GASTEIGER

@<TRIPOS>ATOM
      1  N         32.6960   49.7390   36.8480 N.3    73  GLY73      -0.1210
      2  CA        34.0140   49.2360   37.1690 C.3    73  GLY73       0.1956
      3  C         34.0770   48.2230   38.2930 C.2    73  GLY73       0.2612
      4  O         35.1720   47.7390   38.5970 O.2    73  GLY73      -0.2717
      5  N         32.9480   47.8790   38.9150 N.am   74  PHE74      -0.1962
      6  CA        32.9290   47.0100   40.0890 C.3    74  PHE74       0.1771
      7  C         32.4970   45.6120   39.6720 C.2    74  PHE74       0.2619
      8  O         31.3890   45.4260   39.1510 O.2    74  PHE74      -0.2715
      9  CB        31.9960   47.5610   41.1750 C.3    74  PHE74       0.0574
     10  CG        31.8110   46.6320   42.3520 C.ar   74  PHE74      -0.0200
     11  CD1       32.9040   46.1880   43.0890 C.ar   74  PHE74      -0.0042
     12  CD2       30.5360   46.2050   42.7230 C.ar   74  PHE74      -0.0042
     13  CE1       32.7300   45.3280   44.1700 C.ar   74  PHE74      -0.0003
     14  CE2       30.3520   45.3580   43.8080 C.ar   74  PHE74      -0.0003
     15  CZ        31.4380   44.9190   44.5310 C.ar   74  PHE74      -0.0000
     16  N         33.3570   44.6260   39.9470 N.am   75  HIS75      -0.1973
     17  CA        33.1250   43.2720   39.4520 C.3    75  HIS75       0.1656
     18  C         31.8630   42.6460   40.0430 C.2    75  HIS75       0.2291
     19  O         31.2020   41.8390   39.3780 O.2    75  HIS75      -0.2864
     20  CB        34.3430   42.4050   39.7580 C.3    75  HIS75       0.0771
     21  CG        34.2110   40.9900   39.2890 C.ar   75  HIS75       0.0820
     22  ND1       34.0390   40.6570   37.9640 N.ar   75  HIS75      -0.2267
     23  CD2       34.2340   39.8210   39.9680 C.ar   75  HIS75       0.1154
     24  CE1       33.9530   39.3460   37.8450 C.ar   75  HIS75       0.1986
     25  NE2       34.0650   38.8150   39.0480 N.ar   75  HIS75      -0.2212
     26  N         29.0460   44.0110   37.7850 N.3    78  GLU78      -0.1231
     27  CA        29.2290   43.8780   36.3440 C.3    78  GLU78       0.1699
     28  C         29.3750   42.4300   35.9000 C.2    78  GLU78       0.2592
     29  O         29.1140   42.1270   34.7300 O.2    78  GLU78      -0.2718
     30  CB        30.4360   44.7160   35.8950 C.3    78  GLU78       0.0402
     31  CG        30.2340   46.2230   36.1310 C.3    78  GLU78       0.1161
     32  CD        31.3400   47.1030   35.5090 C.2    78  GLU78       0.3649
     33  OE1       31.0590   48.2780   35.1980 O.co2  78  GLU78      -0.2457
     34  OE2       32.4800   46.6210   35.3250 O.co2  78  GLU78      -0.2457
     35  N         29.7590   41.5220   36.8000 N.am   79  MET79      -0.1979
     36  CA        29.7850   40.1000   36.4520 C.3    79  MET79       0.1605
     37  C         28.4160   39.5650   36.0330 C.2    79  MET79       0.2287
     38  O         28.3490   38.5280   35.3640 O.2    79  MET79      -0.2864
     39  CB        30.3150   39.2650   37.6250 C.3    79  MET79       0.0413
     40  CG        29.4220   39.2990   38.8670 C.3    79  MET79       0.0598
     41  SD        30.1010   38.2780   40.1820 S.3    79  MET79      -0.1393
     42  CE        29.6770   36.6600   39.5240 C.3    79  MET79       0.0692
     43  N         27.5410   39.8650   28.4050 N.3    83  ASN83      -0.1240
     44  CA        28.8960   39.8780   27.8660 C.3    83  ASN83       0.1653
     45  C         28.9450   39.5840   26.3680 C.2    83  ASN83       0.2266
     46  O         30.0170   39.2600   25.8460 O.2    83  ASN83      -0.2867
     47  CB        29.7640   38.8790   28.6350 C.3    83  ASN83       0.1155
     48  CG        29.2690   37.4510   28.4910 C.2    83  ASN83       0.2627
     49  OD1       28.0850   37.2050   28.2200 O.2    83  ASN83      -0.2716
     50  ND2       30.1710   36.5040   28.6620 N.am   83  ASN83      -0.0877
     51  N         30.1770   33.9280   32.4380 N.3   124  HIS124     -0.1226
     52  CA        31.2640   33.0450   32.8470 C.3   124  HIS124      0.1752
     53  C         30.8450   32.0880   33.9630 C.2   124  HIS124      0.2595
     54  O         31.3410   30.9580   34.0230 O.2   124  HIS124     -0.2718
     55  CB        32.4650   33.9000   33.2870 C.3   124  HIS124      0.0759
     56  CG        33.6210   33.1100   33.8150 C.ar  124  HIS124      0.0818
     57  ND1       34.1100   33.2700   35.0950 N.ar  124  HIS124     -0.2268
     58  CD2       34.3860   32.1510   33.2380 C.ar  124  HIS124      0.1154
     59  CE1       35.1300   32.4500   35.2820 C.ar  124  HIS124      0.1986
     60  NE2       35.3160   31.7570   34.1720 N.ar  124  HIS124     -0.2212
     61  N         29.9580   32.5220   34.8680 N.am  125  VAL125     -0.1980
     62  CA        29.5100   31.6490   35.9570 C.3   125  VAL125      0.1595
     63  C         28.5250   30.5810   35.5020 C.2   125  VAL125      0.2287
     64  O         28.2140   29.6730   36.2860 O.2   125  VAL125     -0.2864
     65  CB        28.8860   32.4740   37.1030 C.3   125  VAL125      0.0276
     66  CG1       29.9720   33.2400   37.8470 C.3   125  VAL125      0.0022
     67  CG2       27.8080   33.4210   36.5760 C.3   125  VAL125      0.0022
     68  N         31.9090   32.8200   49.3610 N.3   423  SER423     -0.1217
     69  CA        33.0520   32.6430   48.4750 C.3   423  SER423      0.1889
     70  C         34.2280   33.4930   48.9400 C.2   423  SER423      0.2288
     71  O         34.0620   34.6570   49.3180 O.2   423  SER423     -0.2866
     72  CB        32.6570   33.0270   47.0500 C.3   423  SER423      0.2089
     73  OG        33.7280   32.8740   46.1380 O.3   423  SER423     -0.2183
     74  N         36.3120   34.6250   47.0030 N.3   425  LYS425     -0.1231
     75  CA        36.4690   35.6060   45.9390 C.3   425  LYS425      0.1693
     76  C         35.2920   36.5760   45.8430 C.2   425  LYS425      0.2592
     77  O         35.2040   37.3280   44.8680 O.2   425  LYS425     -0.2718
     78  CB        36.6620   34.8940   44.5950 C.3   425  LYS425      0.0285
     79  CG        37.8390   33.9280   44.5500 C.3   425  LYS425      0.0035
     80  CD        37.9520   33.2370   43.1890 C.3   425  LYS425      0.0206
     81  CE        38.1520   34.2410   42.0530 C.3   425  LYS425      0.1093
     82  NZ        38.7100   33.5840   40.8330 N.3   425  LYS425     -0.1314
     83  N         34.3880   36.5790   46.8180 N.am  426  LEU426     -0.1966
     84  CA        33.1880   37.4050   46.7020 C.3   426  LEU426      0.1713
     85  C         33.5700   38.8850   46.7210 C.2   426  LEU426      0.2458
     86  O         34.1640   39.3500   47.6990 O.2   426  LEU426     -0.2730
     87  CB        32.2020   37.0610   47.8240 C.3   426  LEU426      0.0310
     88  CG        30.7200   37.2430   47.4410 C.3   426  LEU426      0.0022
     89  CD1       29.7860   36.4750   48.3810 C.3   426  LEU426      0.0001
     90  CD2       30.3510   38.6920   47.4400 C.3   426  LEU426      0.0001
     91  N         33.2920   39.6480   45.6570 N.am  427  PRO427     -0.2727
     92  CA        33.7490   41.0550   45.6220 C.3   427  PRO427      0.1402
     93  C         32.9750   41.9720   46.5480 C.2   427  PRO427      0.2269
     94  O         33.4840   43.0450   46.8950 O.2   427  PRO427     -0.2865
     95  CB        33.5580   41.4650   44.1540 C.3   427  PRO427      0.0296
     96  CG        32.6600   40.4330   43.5610 C.3   427  PRO427      0.0237
     97  CD        32.7030   39.1980   44.3860 C.3   427  PRO427      0.0939
     98  N         25.4740   33.5850   44.6850 N.3   438  TYR438     -0.1241
     99  CA        26.8780   33.2170   44.8050 C.3   438  TYR438      0.1605
    100  C         27.0760   31.7650   45.2240 C.2   438  TYR438      0.2264
    101  O         28.1760   31.3810   45.6320 O.2   438  TYR438     -0.2867
    102  CB        27.5830   34.2050   45.7310 C.3   438  TYR438      0.0534
    103  CG        27.7550   35.5120   44.9890 C.ar  438  TYR438     -0.0201
    104  CD1       26.7510   36.4800   44.9920 C.ar  438  TYR438     -0.0009
    105  CD2       28.8920   35.7410   44.2120 C.ar  438  TYR438     -0.0009
    106  CE1       26.9010   37.6710   44.2690 C.ar  438  TYR438      0.0417
    107  CE2       29.0510   36.9110   43.4860 C.ar  438  TYR438      0.0417
    108  CZ        28.0590   37.8730   43.5170 C.ar  438  TYR438      0.1957
    109  OH        28.2300   39.0330   42.7950 O.3   438  TYR438     -0.2866
    110  N         28.5000   29.7090   41.1130 N.3   441  GLU441     -0.1245
    111  CA        29.8510   29.3240   40.7060 C.3   441  GLU441      0.1567
    112  C         30.2810   27.9830   41.3140 C.2   441  GLU441      0.2260
    113  O         31.0960   27.2690   40.7210 O.2   441  GLU441     -0.2867
    114  CB        30.8410   30.4340   41.0690 C.3   441  GLU441      0.0388
    115  CG        30.9250   30.7550   42.5530 C.3   441  GLU441      0.1160
    116  CD        31.4460   32.1700   42.8220 C.2   441  GLU441      0.3649
    117  OE1       30.7070   33.1550   42.5610 O.co2 441  GLU441     -0.2457
    118  OE2       32.6010   32.2890   43.2900 O.co2 441  GLU441     -0.2457
    119  N         33.3370   26.1070   39.0750 N.3   446  LEU446     -0.1245
    120  CA        34.4460   27.0410   38.9120 C.3   446  LEU446      0.1561
    121  C         35.5580   26.8380   39.9400 C.2   446  LEU446      0.2260
    122  O         36.7350   26.9470   39.5570 O.2   446  LEU446     -0.2867
    123  CB        33.9200   28.4840   38.9360 C.3   446  LEU446      0.0270
    124  CG        33.5280   29.0490   37.5680 C.3   446  LEU446      0.0019
    125  CD1       32.3150   28.3020   36.9910 C.3   446  LEU446      0.0001
    126  CD2       33.2600   30.5510   37.6450 C.3   446  LEU446      0.0001
    127  N         40.6700   29.9620   44.3880 N.3   454  TYR454     -0.1241
    128  CA        39.7600   29.4700   45.4140 C.3   454  TYR454      0.1605
    129  C         40.5360   28.6220   46.4150 C.2   454  TYR454      0.2264
    130  O         41.5480   28.0080   46.0700 O.2   454  TYR454     -0.2867
    131  CB        38.6420   28.6250   44.8080 C.3   454  TYR454      0.0534
    132  CG        37.5870   29.3770   44.0420 C.ar  454  TYR454     -0.0201
    133  CD1       36.4870   29.9160   44.6930 C.ar  454  TYR454     -0.0009
    134  CD2       37.6640   29.5080   42.6630 C.ar  454  TYR454     -0.0009
    135  CE1       35.4990   30.5820   43.9940 C.ar  454  TYR454      0.0417
    136  CE2       36.6820   30.1700   41.9520 C.ar  454  TYR454      0.0417
    137  CZ        35.5980   30.7040   42.6240 C.ar  454  TYR454      0.1957
    138  OH        34.6080   31.3640   41.9320 O.3   454  TYR454     -0.2866
@<TRIPOS>BOND
     1    46    45    2
     2    45    44    1
     3    44    43    1
     4    44    47    1
     5    49    48    2
     6    48    47    1
     7    48    50   am
     8    51    52    1
     9    52    55    1
    10    52    53    1
    11    58    56   ar
    12    58    60   ar
    13    55    56    1
    14    56    57   ar
    15    53    54    2
    16    53    61   am
    17    60    59   ar
    18    29    28    2
    19    61    62    1
    20    57    59   ar
    21    33    32   ar
    22    34    32   ar
    23    38    37    2
    24    63    62    1
    25    63    64    2
    26    32    31    1
    27    30    31    1
    28    30    27    1
    29    28    27    1
    30    28    35   am
    31    62    65    1
    32    37    36    1
    33    27    26    1
    34    36    35    1
    35    36    39    1
    36    67    65    1
    37     1     2    1
    38   125   124    1
    39    65    66    1
    40     2     3    1
    41   124   126    1
    42   124   123    1
    43    39    40    1
    44    24    22   ar
    45    24    25   ar
    46    22    21   ar
    47     3     4    2
    48     3     5   am
    49    40    41    1
    50   120   123    1
    51   120   119    1
    52   120   121    1
    53     5     6    1
    54    25    23   ar
    55     8     7    2
    56    21    20    1
    57    21    23   ar
    58    19    18    2
    59    17    20    1
    60    17    16    1
    61    17    18    1
    62    42    41    1
    63   122   121    2
    64     7    16   am
    65     7     6    1
    66     6     9    1
    67   111   114    1
    68   111   110    1
    69   111   112    1
    70   113   112    2
    71    82    81    1
    72   114   115    1
    73     9    10    1
    74   138   137    1
    75   136   137   ar
    76   136   134   ar
    77    81    80    1
    78    10    12   ar
    79    10    11   ar
    80   115   116    1
    81   117   116   ar
    82   137   135   ar
    83   134   132   ar
    84    12    14   ar
    85   109   108    1
    86   116   118   ar
    87    11    13   ar
    88    80    79    1
    89   107   108   ar
    90   107   105   ar
    91   108   106   ar
    92    96    95    1
    93    96    97    1
    94    14    15   ar
    95   135   133   ar
    96   132   133   ar
    97   132   131    1
    98    95    92    1
    99    13    15   ar
   100   105   103   ar
   101   106   104   ar
   102    97    91    1
   103   127   128    1
   104    79    78    1
   105    78    75    1
   106    98    99    1
   107    99   100    1
   108    99   102    1
   109   131   128    1
   110    77    76    2
   111   103   104   ar
   112   103   102    1
   113   100   101    2
   114   128   129    1
   115    92    91    1
   116    92    93    1
   117    91    85   am
   118    76    75    1
   119    76    83   am
   120    75    74    1
   121   130   129    2
   122    73    72    1
   123    93    94    2
   124    84    85    1
   125    84    83    1
   126    84    87    1
   127    85    86    2
   128    72    69    1
   129    90    88    1
   130    88    87    1
   131    88    89    1
   132    69    70    1
   133    69    68    1
   134    70    71    2
