@<TRIPOS>MOLECULE
tmp/5nn3A07.pdb
 80 77 0 0 0
SMALL
GASTEIGER

@<TRIPOS>ATOM
      1  N         -3.5380  -18.3930   70.6750 N.3   109  GLU109     -0.1231
      2  CA        -2.9920  -17.1750   70.0680 C.3   109  GLU109      0.1699
      3  C         -1.4850  -17.2980   69.8170 C.2   109  GLU109      0.2592
      4  O         -0.7460  -17.8380   70.6480 O.2   109  GLU109     -0.2718
      5  CB        -3.2550  -15.9580   70.9560 C.3   109  GLU109      0.0402
      6  CG        -2.7280  -14.6520   70.3750 C.3   109  GLU109      0.1161
      7  CD        -2.8490  -13.4800   71.3290 C.2   109  GLU109      0.3649
      8  OE1       -3.1290  -13.6870   72.5380 O.co2 109  GLU109     -0.2457
      9  OE2       -2.6480  -12.3420   70.8550 O.co2 109  GLU109     -0.2457
     10  N         -1.0530  -16.7790   68.6670 N.am  110  THR110     -0.1953
     11  CA         0.3620  -16.7080   68.3010 C.3   110  THR110      0.1897
     12  C          1.0280  -15.5120   68.9920 C.2   110  THR110      0.2313
     13  O          2.1030  -15.6400   69.5790 O.2   110  THR110     -0.2863
     14  CB         0.5350  -16.5740   66.7700 C.3   110  THR110      0.1794
     15  OG1       -0.1230  -15.3820   66.3150 O.3   110  THR110     -0.2208
     16  CG2       -0.0470  -17.8040   66.0380 C.3   110  THR110      0.0378
     17  N          7.1040  -21.5760   77.1890 N.3   261  LEU261     -0.1231
     18  CA         6.1670  -20.5960   77.7190 C.3   261  LEU261      0.1693
     19  C          6.0020  -19.3770   76.8140 C.2   261  LEU261      0.2592
     20  O          4.9420  -18.7220   76.8420 O.2   261  LEU261     -0.2718
     21  CB         6.5380  -20.2000   79.1500 C.3   261  LEU261      0.0284
     22  CG         6.5660  -21.3500   80.1600 C.3   261  LEU261      0.0019
     23  CD1        6.7910  -20.8730   81.5950 C.3   261  LEU261      0.0001
     24  CD2        5.3150  -22.2030   80.0740 C.3   261  LEU261      0.0001
     25  N          6.9990  -19.1120   75.9790 N.am  262  ASP262     -0.1960
     26  CA         6.9190  -18.0740   74.9310 C.3   262  ASP262      0.1840
     27  C          5.7940  -18.3990   73.9450 C.2   262  ASP262      0.2622
     28  O          5.2460  -17.5130   73.3090 O.2   262  ASP262     -0.2715
     29  CB         8.2210  -17.9920   74.0960 C.3   262  ASP262      0.1450
     30  CG         9.2630  -17.0570   74.6720 C.2   262  ASP262      0.3671
     31  OD1        9.0250  -16.4170   75.7040 O.co2 262  ASP262     -0.2456
     32  OD2       10.3520  -16.9670   74.0660 O.co2 262  ASP262     -0.2456
     33  N          5.4840  -19.6840   73.7800 N.am  263  VAL263     -0.1963
     34  CA         4.4320  -20.1240   72.8730 C.3   263  VAL263      0.1727
     35  C          3.0890  -20.2100   73.6050 C.2   263  VAL263      0.2616
     36  O          2.0950  -19.6950   73.1040 O.2   263  VAL263     -0.2715
     37  CB         4.7700  -21.4950   72.2490 C.3   263  VAL263      0.0290
     38  CG1        3.5650  -22.0940   71.5270 C.3   263  VAL263      0.0023
     39  CG2        5.9890  -21.3860   71.3340 C.3   263  VAL263      0.0023
     40  N          3.0510  -20.8650   74.7630 N.am  264  VAL264     -0.1963
     41  CA         1.7530  -21.1200   75.4460 C.3   264  VAL264      0.1727
     42  C          1.3180  -20.0080   76.4180 C.2   264  VAL264      0.2617
     43  O          0.1280  -19.8850   76.7230 O.2   264  VAL264     -0.2715
     44  CB         1.6900  -22.4790   76.1730 C.3   264  VAL264      0.0290
     45  CG1        1.8440  -23.6380   75.1980 C.3   264  VAL264      0.0023
     46  CG2        2.7070  -22.6040   77.3070 C.3   264  VAL264      0.0023
     47  N          2.2610  -19.1870   76.8620 N.am  265  GLY265     -0.1940
     48  CA         1.9820  -18.0440   77.7390 C.3   265  GLY265      0.2014
     49  C          2.8030  -18.1040   79.0220 C.2   265  GLY265      0.2638
     50  O          3.0180  -19.1800   79.5970 O.2   265  GLY265     -0.2714
     51  N          3.3120  -16.9470   79.4220 N.am  266  TYR266     -0.1973
     52  CA         4.0200  -16.7800   80.6820 C.3   266  TYR266      0.1639
     53  C          3.0100  -16.8260   81.8230 C.2   266  TYR266      0.2290
     54  O          1.8670  -16.3850   81.6600 O.2   266  TYR266     -0.2864
     55  CB         4.7700  -15.4400   80.6740 C.3   266  TYR266      0.0560
     56  CG         6.0660  -15.4120   79.8550 C.ar  266  TYR266     -0.0198
     57  CD1        6.4810  -16.5000   79.0840 C.ar  266  TYR266     -0.0009
     58  CD2        6.8910  -14.2830   79.8760 C.ar  266  TYR266     -0.0009
     59  CE1        7.6730  -16.4600   78.3510 C.ar  266  TYR266      0.0417
     60  CE2        8.0690  -14.2260   79.1400 C.ar  266  TYR266      0.0417
     61  CZ         8.4580  -15.3200   78.3790 C.ar  266  TYR266      0.1957
     62  OH         9.6270  -15.2610   77.6520 O.3   266  TYR266     -0.2866
     63  N         -0.9930  -19.2060   82.3110 N.3   514  ARG514     -0.1245
     64  CA        -1.2560  -17.8440   81.8650 C.3   514  ARG514      0.1563
     65  C         -2.4860  -17.2200   82.5420 C.2   514  ARG514      0.2260
     66  O         -2.5970  -15.9950   82.5870 O.2   514  ARG514     -0.2867
     67  CB        -1.4200  -17.8060   80.3380 C.3   514  ARG514      0.0307
     68  CG        -1.6030  -16.4080   79.7620 C.3   514  ARG514      0.0489
     69  CD        -1.6220  -16.3900   78.2500 C.3   514  ARG514      0.2205
     70  NE        -1.8830  -15.0390   77.7500 N.pl3 514  ARG514     -0.0865
     71  CZ        -2.2900  -14.7410   76.5120 C.cat 514  ARG514      0.5346
     72  NH1       -2.4960  -15.6990   75.6050 N.pl3 514  ARG514      0.1354
     73  NH2       -2.4970  -13.4660   76.1780 N.pl3 514  ARG514      0.1354
     74  N          7.4190  -12.3740   84.0110 N.3   624  VAL624     -0.1245
     75  CA         8.1100  -11.5700   82.9800 C.3   624  VAL624      0.1561
     76  C          9.0920  -12.3140   82.1120 C.2   624  VAL624      0.2260
     77  O          9.3690  -11.8530   81.0400 O.2   624  VAL624     -0.2867
     78  CB         8.8240  -10.2780   83.4790 C.3   624  VAL624      0.0252
     79  CG1        7.8180   -9.3770   84.1540 C.3   624  VAL624      0.0019
     80  CG2       10.0490  -10.5460   84.3470 C.3   624  VAL624      0.0019
@<TRIPOS>BOND
     1    16    14    1
     2    15    14    1
     3    14    11    1
     4    11    10    1
     5    11    12    1
     6    10     3   am
     7    12    13    2
     8     3     2    1
     9     3     4    2
    10     2     1    1
    11     2     5    1
    12     6     5    1
    13     6     7    1
    14     9     7   ar
    15     7     8   ar
    16    39    37    1
    17    38    37    1
    18    37    34    1
    19    34    35    1
    20    34    33    1
    21    36    35    2
    22    28    27    2
    23    35    40   am
    24    33    27   am
    25    27    26    1
    26    32    30   ar
    27    29    30    1
    28    29    26    1
    29    30    31   ar
    30    40    41    1
    31    26    25    1
    32    45    44    1
    33    41    44    1
    34    41    42    1
    35    72    71    1
    36    25    19   am
    37    44    46    1
    38    73    71    1
    39    42    43    2
    40    42    47   am
    41    71    70    2
    42    19    20    2
    43    19    18    1
    44    47    48    1
    45    17    18    1
    46    62    61    1
    47    18    21    1
    48    48    49    1
    49    70    69    1
    50    69    68    1
    51    59    61   ar
    52    59    57   ar
    53    61    60   ar
    54    49    51   am
    55    49    50    2
    56    57    56   ar
    57    60    58   ar
    58    21    22    1
    59    51    52    1
    60    68    67    1
    61    56    58   ar
    62    56    55    1
    63    24    22    1
    64    22    23    1
    65    67    64    1
    66    55    52    1
    67    52    53    1
    68    77    76    2
    69    54    53    2
    70    64    63    1
    71    64    65    1
    72    76    75    1
    73    65    66    2
    74    75    78    1
    75    75    74    1
    76    78    79    1
    77    78    80    1
