@<TRIPOS>MOLECULE
tmp/5nn5A05.pdb
 148 146 0 0 0
SMALL
GASTEIGER

@<TRIPOS>ATOM
      1  N        -14.0170  -29.2320  103.7550 N.3   283  TRP283     -0.1241
      2  CA       -15.3920  -29.6240  103.5190 C.3   283  TRP283      0.1605
      3  C        -15.9580  -29.9150  104.9080 C.2   283  TRP283      0.2264
      4  O        -15.4870  -30.8340  105.6010 O.2   283  TRP283     -0.2867
      5  CB       -15.4490  -30.8640  102.5980 C.3   283  TRP283      0.0550
      6  CG       -16.8000  -31.1660  102.0260 C.ar  283  TRP283      0.0003
      7  CD1      -17.9700  -30.5120  102.2830 C.ar  283  TRP283      0.0946
      8  CD2      -17.1260  -32.2380  101.1340 C.ar  283  TRP283      0.0152
      9  NE1      -19.0040  -31.1050  101.5930 N.ar  283  TRP283     -0.2442
     10  CE2      -18.5080  -32.1640  100.8810 C.ar  283  TRP283      0.0810
     11  CE3      -16.3810  -33.2550  100.5240 C.ar  283  TRP283      0.0012
     12  CZ2      -19.1560  -33.0480  100.0490 C.ar  283  TRP283      0.0191
     13  CZ3      -17.0450  -34.1620   99.6980 C.ar  283  TRP283      0.0001
     14  CH2      -18.4150  -34.0430   99.4710 C.ar  283  TRP283      0.0015
     15  N        -16.0400  -24.7540  101.2860 N.3   311  ASP311     -0.1225
     16  CA       -16.3700  -25.7510  100.2970 C.3   311  ASP311      0.1805
     17  C        -17.8890  -25.6670  100.0530 C.2   311  ASP311      0.2597
     18  O        -18.4780  -24.6140  100.2900 O.2   311  ASP311     -0.2718
     19  CB       -15.9490  -27.1110  100.8620 C.3   311  ASP311      0.1424
     20  CG       -15.7300  -28.1760   99.7950 C.2   311  ASP311      0.3668
     21  OD1      -16.5430  -28.2680   98.8370 O.co2 311  ASP311     -0.2456
     22  OD2      -14.7580  -28.9520   99.9610 O.co2 311  ASP311     -0.2456
     23  N        -18.5240  -26.7730   99.6470 N.am  312  LEU312     -0.1979
     24  CA       -19.9610  -26.8010   99.3010 C.3   312  LEU312      0.1596
     25  C        -20.9280  -26.2610  100.3730 C.2   312  LEU312      0.2287
     26  O        -22.0750  -25.8600  100.0630 O.2   312  LEU312     -0.2864
     27  CB       -20.3870  -28.2210   98.9180 C.3   312  LEU312      0.0297
     28  CG       -19.6890  -28.8490   97.7000 C.3   312  LEU312      0.0022
     29  CD1      -19.9440  -30.3420   97.6050 C.3   312  LEU312      0.0001
     30  CD2      -20.1690  -28.1600   96.4310 C.3   312  LEU312      0.0001
     31  N        -15.7620  -22.3970   96.7720 N.3   348  ILE348     -0.1245
     32  CA       -15.8100  -23.3680   95.7010 C.3   348  ILE348      0.1561
     33  C        -16.9180  -22.9680   94.7300 C.2   348  ILE348      0.2260
     34  O        -17.9730  -22.4990   95.1410 O.2   348  ILE348     -0.2867
     35  CB       -16.0140  -24.8070   96.2140 C.3   348  ILE348      0.0252
     36  CG1      -15.6010  -25.8140   95.1280 C.3   348  ILE348      0.0019
     37  CG2      -17.4540  -25.0370   96.6910 C.3   348  ILE348      0.0019
     38  CD1      -15.3790  -27.2220   95.6210 C.3   348  ILE348      0.0001
     39  N        -23.3290  -32.5290   92.2130 N.3   388  TRP388     -0.1241
     40  CA       -23.7770  -32.2940   93.5990 C.3   388  TRP388      0.1605
     41  C        -25.2510  -31.8860   93.7690 C.2   388  TRP388      0.2264
     42  O        -25.9050  -32.3780   94.6760 O.2   388  TRP388     -0.2867
     43  CB       -22.8800  -31.2930   94.3250 C.3   388  TRP388      0.0550
     44  CG       -21.4910  -31.7290   94.3790 C.ar  388  TRP388      0.0003
     45  CD1      -20.4600  -31.1460   93.7460 C.ar  388  TRP388      0.0946
     46  CD2      -20.9570  -32.8510   95.0860 C.ar  388  TRP388      0.0152
     47  NE1      -19.3080  -31.8170   93.9960 N.ar  388  TRP388     -0.2442
     48  CE2      -19.5770  -32.8830   94.8100 C.ar  388  TRP388      0.0810
     49  CE3      -21.5050  -33.8420   95.8910 C.ar  388  TRP388      0.0012
     50  CZ2      -18.7320  -33.8520   95.3220 C.ar  388  TRP388      0.0191
     51  CZ3      -20.6480  -34.8220   96.4240 C.ar  388  TRP388      0.0001
     52  CH2      -19.2870  -34.8170   96.1350 C.ar  388  TRP388      0.0015
     53  N        -12.4130  -20.9390   93.4220 N.3   423  TRP423     -0.1241
     54  CA       -11.8340  -22.2770   93.4850 C.3   423  TRP423      0.1605
     55  C        -12.7280  -23.1070   92.5810 C.2   423  TRP423      0.2264
     56  O        -13.8900  -23.3720   92.9190 O.2   423  TRP423     -0.2867
     57  CB       -11.8650  -22.7710   94.9370 C.3   423  TRP423      0.0550
     58  CG       -11.6090  -24.2450   95.1700 C.ar  423  TRP423      0.0003
     59  CD1      -10.8870  -25.0960   94.3800 C.ar  423  TRP423      0.0946
     60  CD2      -12.0160  -25.0130   96.3070 C.ar  423  TRP423      0.0152
     61  NE1      -10.8570  -26.3330   94.9270 N.ar  423  TRP423     -0.2442
     62  CE2      -11.5350  -26.3210   96.1140 C.ar  423  TRP423      0.0810
     63  CE3      -12.7600  -24.7310   97.4520 C.ar  423  TRP423      0.0012
     64  CZ2      -11.7770  -27.3470   97.0180 C.ar  423  TRP423      0.0191
     65  CZ3      -12.9880  -25.7470   98.3610 C.ar  423  TRP423      0.0001
     66  CH2      -12.4880  -27.0420   98.1400 C.ar  423  TRP423      0.0015
     67  N        -13.6590  -26.3990   90.7910 N.3   425  ASP425     -0.1225
     68  CA       -13.5540  -27.8310   91.0390 C.3   425  ASP425      0.1805
     69  C        -14.3930  -28.5800   89.9940 C.2   425  ASP425      0.2597
     70  O        -15.1420  -27.9610   89.2190 O.2   425  ASP425     -0.2718
     71  CB       -14.0840  -28.1030   92.4580 C.3   425  ASP425      0.1424
     72  CG       -13.8520  -29.5300   92.9470 C.2   425  ASP425      0.3668
     73  OD1      -12.9360  -30.2510   92.4610 O.co2 425  ASP425     -0.2456
     74  OD2      -14.6100  -29.9370   93.8660 O.co2 425  ASP425     -0.2456
     75  N        -14.2230  -29.9060   89.9460 N.am  426  MET426     -0.1979
     76  CA       -15.0920  -30.8260   89.2050 C.3   426  MET426      0.1605
     77  C        -15.1230  -30.5220   87.7090 C.2   426  MET426      0.2287
     78  O        -16.0980  -30.8430   87.0420 O.2   426  MET426     -0.2864
     79  CB       -16.5300  -30.7950   89.7710 C.3   426  MET426      0.0413
     80  CG       -16.6390  -30.9690   91.2800 C.3   426  MET426      0.0598
     81  SD       -15.9950  -32.5340   91.9290 S.3   426  MET426     -0.1393
     82  CE       -17.3190  -33.6450   91.4250 C.3   426  MET426      0.0692
     83  N         -8.8710  -27.4220   89.3960 N.3   507  ARG507     -0.1245
     84  CA        -8.5040  -28.8360   89.4580 C.3   507  ARG507      0.1563
     85  C         -8.0170  -29.3210   88.1050 C.2   507  ARG507      0.2260
     86  O         -6.8990  -29.8010   87.9890 O.2   507  ARG507     -0.2867
     87  CB        -9.6500  -29.7170   89.9400 C.3   507  ARG507      0.0307
     88  CG        -9.1350  -31.0340   90.5080 C.3   507  ARG507      0.0489
     89  CD       -10.1860  -31.7610   91.3020 C.3   507  ARG507      0.2205
     90  NE       -11.2100  -32.3380   90.4480 N.pl3 507  ARG507     -0.0865
     91  CZ       -12.1410  -33.1760   90.8900 C.cat 507  ARG507      0.5346
     92  NH1      -12.1560  -33.5340   92.1830 N.pl3 507  ARG507      0.1354
     93  NH2      -13.0340  -33.6730   90.0510 N.pl3 507  ARG507      0.1354
     94  N         -4.2850  -27.0440   92.3120 N.3   520  TRP520     -0.1241
     95  CA        -3.9290  -27.9490   93.4040 C.3   520  TRP520      0.1605
     96  C         -4.1010  -29.4070   92.9720 C.2   520  TRP520      0.2264
     97  O         -4.8600  -29.7270   92.0530 O.2   520  TRP520     -0.2867
     98  CB        -4.7070  -27.6170   94.6750 C.3   520  TRP520      0.0550
     99  CG        -5.9150  -28.4340   94.9190 C.ar  520  TRP520      0.0003
    100  CD1       -6.0460  -29.4150   95.8470 C.ar  520  TRP520      0.0946
    101  CD2       -7.1710  -28.3680   94.2220 C.ar  520  TRP520      0.0152
    102  NE1       -7.2940  -29.9630   95.7860 N.ar  520  TRP520     -0.2442
    103  CE2       -8.0080  -29.3440   94.7990 C.ar  520  TRP520      0.0810
    104  CE3       -7.6730  -27.5720   93.1800 C.ar  520  TRP520      0.0012
    105  CZ2       -9.3270  -29.5520   94.3740 C.ar  520  TRP520      0.0191
    106  CZ3       -8.9940  -27.7800   92.7550 C.ar  520  TRP520      0.0001
    107  CH2       -9.7950  -28.7770   93.3500 C.ar  520  TRP520      0.0015
    108  N         -5.3970  -32.1200   94.0380 N.3   522  GLY522     -0.1210
    109  CA        -6.6170  -32.9010   94.1780 C.3   522  GLY522      0.1956
    110  C         -6.6390  -33.7720   95.4140 C.2   522  GLY522      0.2611
    111  O         -6.0220  -33.4440   96.4300 O.2   522  GLY522     -0.2717
    112  N         -7.3350  -34.9060   95.3170 N.am  523  ASP523     -0.1973
    113  CA        -7.7200  -35.6920   96.4850 C.3   523  ASP523      0.1709
    114  C         -6.6400  -36.6520   96.9600 C.2   523  ASP523      0.2293
    115  O         -6.7940  -37.8540   96.9310 O.2   523  ASP523     -0.2864
    116  CB        -9.0140  -36.4630   96.2070 C.3   523  ASP523      0.1436
    117  CG       -10.2050  -35.5640   96.0430 C.2   523  ASP523      0.3671
    118  OD1      -10.0830  -34.3330   96.2560 O.co2 523  ASP523     -0.2456
    119  OD2      -11.2810  -36.0970   95.7200 O.co2 523  ASP523     -0.2456
    120  N         -2.9040  -30.3000   99.1210 N.3   552  ASP552     -0.1239
    121  CA        -3.6290  -30.0640  100.3620 C.3   552  ASP552      0.1674
    122  C         -2.7440  -30.4340  101.5350 C.2   552  ASP552      0.2266
    123  O         -2.4170  -31.6260  101.7470 O.2   552  ASP552     -0.2867
    124  CB        -4.9320  -30.8750  100.3980 C.3   552  ASP552      0.1410
    125  CG        -5.9730  -30.3730   99.4030 C.2   552  ASP552      0.3668
    126  OD1       -5.8560  -29.2080   98.9380 O.co2 552  ASP552     -0.2456
    127  OD2       -6.9150  -31.1420   99.0910 O.co2 552  ASP552     -0.2456
    128  N         -5.8050  -34.5740  102.1200 N.3   556  PHE556     -0.1241
    129  CA        -7.2480  -34.3860  102.0150 C.3   556  PHE556      0.1605
    130  C         -8.0140  -35.6010  102.5450 C.2   556  PHE556      0.2264
    131  O         -8.7760  -35.4920  103.5060 O.2   556  PHE556     -0.2867
    132  CB        -7.6490  -34.1090  100.5460 C.3   556  PHE556      0.0534
    133  CG        -9.1310  -33.9930  100.3280 C.ar  556  PHE556     -0.0203
    134  CD1       -9.8410  -32.8980  100.8450 C.ar  556  PHE556     -0.0042
    135  CD2       -9.8220  -34.9700   99.6230 C.ar  556  PHE556     -0.0042
    136  CE1      -11.2080  -32.7990  100.6610 C.ar  556  PHE556     -0.0003
    137  CE2      -11.1920  -34.8500   99.4260 C.ar  556  PHE556     -0.0003
    138  CZ       -11.8800  -33.7750   99.9510 C.ar  556  PHE556     -0.0000
    139  N         -6.4280  -28.2230  103.4290 N.3   581  HIS581     -0.1241
    140  CA        -7.8150  -28.5500  103.0800 C.3   581  HIS581      0.1621
    141  C         -8.0330  -30.0050  103.4910 C.2   581  HIS581      0.2264
    142  O         -7.0780  -30.7740  103.5490 O.2   581  HIS581     -0.2867
    143  CB        -8.0480  -28.3310  101.5600 C.3   581  HIS581      0.0745
    144  CG        -9.4060  -28.7400  101.0710 C.ar  581  HIS581      0.0817
    145  ND1      -10.5710  -28.3440  101.6910 N.ar  581  HIS581     -0.2268
    146  CD2       -9.7850  -29.5010  100.0130 C.ar  581  HIS581      0.1154
    147  CE1      -11.6070  -28.8490  101.0390 C.ar  581  HIS581      0.1986
    148  NE2      -11.1570  -29.5610  100.0210 N.ar  581  HIS581     -0.2212
@<TRIPOS>BOND
     1    78    77    2
     2    77    76    1
     3    86    85    2
     4    85    84    1
     5    76    79    1
     6    76    75    1
     7    70    69    2
     8    83    84    1
     9    84    87    1
    10    79    80    1
    11    87    88    1
    12    75    69   am
    13    69    68    1
    14    93    91    1
    15    90    91    2
    16    90    89    1
    17    88    89    1
    18    67    68    1
    19    91    92    1
    20    68    71    1
    21    80    81    1
    22    82    81    1
    23    97    96    2
    24    39    40    1
    25    94    95    1
    26    71    72    1
    27    73    72   ar
    28    55    56    2
    29    55    54    1
    30   106   104   ar
    31   106   107   ar
    32    72    74   ar
    33    96    95    1
    34   104   101   ar
    35   107   105   ar
    36    95    98    1
    37    53    54    1
    38    54    57    1
    39    40    41    1
    40    40    43    1
    41    45    47   ar
    42    45    44   ar
    43    41    42    2
    44    47    48   ar
    45   108   109    1
    46   109   110    1
    47   101   103   ar
    48   101    99   ar
    49    43    44    1
    50   105   103   ar
    51    44    46   ar
    52    59    61   ar
    53    59    58   ar
    54    98    99    1
    55    33    34    2
    56    33    32    1
    57   103   102   ar
    58    48    46   ar
    59    48    50   ar
    60    99   100   ar
    61    61    62   ar
    62    57    58    1
    63    46    49   ar
    64    36    38    1
    65    36    35    1
    66    58    60   ar
    67   112   110   am
    68   112   113    1
    69    50    52   ar
    70   110   111    2
    71    32    35    1
    72    32    31    1
    73   119   117   ar
    74   102   100   ar
    75    49    51   ar
    76   117   116    1
    77   117   118   ar
    78    62    60   ar
    79    62    64   ar
    80    52    51   ar
    81   116   113    1
    82    35    37    1
    83    60    63   ar
    84    30    28    1
    85   113   114    1
    86   115   114    2
    87    64    66   ar
    88    63    65   ar
    89    29    28    1
    90    28    27    1
    91    66    65   ar
    92    21    20   ar
    93    27    24    1
    94   126   125   ar
    95   127   125   ar
    96   120   121    1
    97    24    23    1
    98    24    25    1
    99   125   124    1
   100   137   135   ar
   101   137   138   ar
   102    14    13   ar
   103    14    12   ar
   104   135   133   ar
   105    23    17   am
   106    13    11   ar
   107    20    22   ar
   108    20    19    1
   109   138   136   ar
   110   146   148   ar
   111   146   144   ar
   112   148   147   ar
   113    12    10   ar
   114    17    18    2
   115    17    16    1
   116    26    25    2
   117    16    19    1
   118    16    15    1
   119   133   132    1
   120   133   134   ar
   121   121   124    1
   122   121   122    1
   123    11     8   ar
   124   132   129    1
   125   136   134   ar
   126    10     8   ar
   127    10     9   ar
   128   147   145   ar
   129   144   143    1
   130   144   145   ar
   131     8     6   ar
   132   122   123    2
   133   143   140    1
   134     9     7   ar
   135   129   128    1
   136   129   130    1
   137     6     7   ar
   138     6     5    1
   139   130   131    2
   140     5     2    1
   141   140   139    1
   142   140   141    1
   143   141   142    2
   144     2     1    1
   145     2     3    1
   146     3     4    2
