@<TRIPOS>MOLECULE
tmp/5nn6A05.pdb
 163 160 0 0 0
SMALL
GASTEIGER

@<TRIPOS>ATOM
      1  N        -11.7590  -37.2130   86.2390 N.3   187  ASP187     -0.1239
      2  CA       -11.9360  -37.0910   87.6770 C.3   187  ASP187      0.1674
      3  C        -11.5580  -38.4480   88.2890 C.2   187  ASP187      0.2266
      4  O        -12.3200  -39.4150   88.1910 O.2   187  ASP187     -0.2867
      5  CB       -13.3880  -36.7110   87.9730 C.3   187  ASP187      0.1410
      6  CG       -13.6950  -36.6060   89.4540 C.2   187  ASP187      0.3668
      7  OD1      -12.8220  -36.9200   90.2730 O.co2 187  ASP187     -0.2456
      8  OD2      -14.8300  -36.1720   89.7960 O.co2 187  ASP187     -0.2456
      9  N        -14.1730  -29.3950  103.2140 N.3   281  TRP281     -0.1241
     10  CA       -15.5370  -29.8040  102.9560 C.3   281  TRP281      0.1605
     11  C        -16.1050  -30.0800  104.3530 C.2   281  TRP281      0.2264
     12  O        -15.5750  -30.9200  105.0790 O.2   281  TRP281     -0.2867
     13  CB       -15.5290  -31.0760  102.0950 C.3   281  TRP281      0.0550
     14  CG       -16.8210  -31.4350  101.4330 C.ar  281  TRP281      0.0003
     15  CD1      -18.0230  -30.8120  101.5600 C.ar  281  TRP281      0.0946
     16  CD2      -17.0370  -32.5480  100.5470 C.ar  281  TRP281      0.0152
     17  NE1      -18.9740  -31.4580  100.7930 N.ar  281  TRP281     -0.2442
     18  CE2      -18.3870  -32.5260  100.1660 C.ar  281  TRP281      0.0810
     19  CE3      -16.2040  -33.5510  100.0290 C.ar  281  TRP281      0.0012
     20  CZ2      -18.9330  -33.4750   99.3080 C.ar  281  TRP281      0.0191
     21  CZ3      -16.7560  -34.5080   99.1690 C.ar  281  TRP281      0.0001
     22  CH2      -18.0990  -34.4540   98.8180 C.ar  281  TRP281      0.0015
     23  N        -16.1410  -24.8970  100.7720 N.3   309  ASP309     -0.1225
     24  CA       -16.5310  -25.8840   99.7790 C.3   309  ASP309      0.1805
     25  C        -18.0470  -25.7680   99.5270 C.2   309  ASP309      0.2597
     26  O        -18.6340  -24.6930   99.7550 O.2   309  ASP309     -0.2718
     27  CB       -16.1440  -27.2670  100.3350 C.3   309  ASP309      0.1424
     28  CG       -15.8470  -28.2900   99.2540 C.2   309  ASP309      0.3668
     29  OD1      -16.5960  -28.3700   98.2620 O.co2 309  ASP309     -0.2456
     30  OD2      -14.8470  -29.0240   99.4010 O.co2 309  ASP309     -0.2456
     31  N        -18.6850  -26.8730   99.1150 N.am  310  LEU310     -0.1979
     32  CA       -20.0860  -26.9170   98.7350 C.3   310  LEU310      0.1596
     33  C        -21.0260  -26.4270   99.8370 C.2   310  LEU310      0.2287
     34  O        -22.1390  -25.9900   99.5650 O.2   310  LEU310     -0.2864
     35  CB       -20.4860  -28.3650   98.3710 C.3   310  LEU310      0.0297
     36  CG       -19.8370  -28.9720   97.1180 C.3   310  LEU310      0.0022
     37  CD1      -20.1180  -30.4580   96.9920 C.3   310  LEU310      0.0001
     38  CD2      -20.3330  -28.2640   95.8710 C.3   310  LEU310      0.0001
     39  N        -15.8800  -22.5560   96.3180 N.3   346  ILE346     -0.1245
     40  CA       -15.9330  -23.4890   95.2220 C.3   346  ILE346      0.1561
     41  C        -17.0290  -23.0790   94.2360 C.2   346  ILE346      0.2260
     42  O        -18.0520  -22.5340   94.6210 O.2   346  ILE346     -0.2867
     43  CB       -16.1110  -24.9290   95.7170 C.3   346  ILE346      0.0252
     44  CG1      -15.6590  -25.9280   94.6520 C.3   346  ILE346      0.0019
     45  CG2      -17.5550  -25.1960   96.1480 C.3   346  ILE346      0.0019
     46  CD1      -15.5240  -27.3350   95.1850 C.3   346  ILE346      0.0001
     47  N        -18.7190  -25.0400   90.6780 N.3   348  ASP348     -0.1239
     48  CA       -18.7310  -26.2130   89.7860 C.3   348  ASP348      0.1674
     49  C        -19.1670  -25.7660   88.3960 C.2   348  ASP348      0.2266
     50  O        -19.8020  -24.7220   88.2600 O.2   348  ASP348     -0.2867
     51  CB       -19.6970  -27.2720   90.3150 C.3   348  ASP348      0.1410
     52  CG       -19.2490  -27.8670   91.6410 C.2   348  ASP348      0.3668
     53  OD1      -18.0770  -28.2830   91.7410 O.co2 348  ASP348     -0.2456
     54  OD2      -20.0790  -27.9390   92.5730 O.co2 348  ASP348     -0.2456
     55  N        -23.6220  -32.7240   91.7430 N.3   386  TRP386     -0.1241
     56  CA       -24.0160  -32.4510   93.1290 C.3   386  TRP386      0.1605
     57  C        -25.4600  -31.9860   93.3230 C.2   386  TRP386      0.2264
     58  O        -26.1080  -32.4410   94.2520 O.2   386  TRP386     -0.2867
     59  CB       -23.0170  -31.5020   93.8330 C.3   386  TRP386      0.0550
     60  CG       -21.7800  -32.2530   94.1750 C.ar  386  TRP386      0.0003
     61  CD1      -20.5490  -32.1370   93.6020 C.ar  386  TRP386      0.0946
     62  CD2      -21.6960  -33.3190   95.1090 C.ar  386  TRP386      0.0152
     63  NE1      -19.6920  -33.0590   94.1520 N.ar  386  TRP386     -0.2442
     64  CE2      -20.3760  -33.7990   95.0790 C.ar  386  TRP386      0.0810
     65  CE3      -22.6150  -33.9100   95.9860 C.ar  386  TRP386      0.0012
     66  CZ2      -19.9440  -34.8370   95.8900 C.ar  386  TRP386      0.0191
     67  CZ3      -22.1770  -34.9470   96.8060 C.ar  386  TRP386      0.0001
     68  CH2      -20.8530  -35.4010   96.7460 C.ar  386  TRP386      0.0015
     69  N        -12.5500  -20.9930   93.0160 N.3   421  TRP421     -0.1241
     70  CA       -11.9920  -22.3380   93.0530 C.3   421  TRP421      0.1605
     71  C        -12.8750  -23.1730   92.1120 C.2   421  TRP421      0.2264
     72  O        -13.9910  -23.5280   92.4710 O.2   421  TRP421     -0.2867
     73  CB       -12.0390  -22.8640   94.4890 C.3   421  TRP421      0.0550
     74  CG       -11.7510  -24.3100   94.6640 C.ar  421  TRP421      0.0003
     75  CD1      -11.0320  -25.1150   93.8330 C.ar  421  TRP421      0.0946
     76  CD2      -12.1550  -25.1310   95.7700 C.ar  421  TRP421      0.0152
     77  NE1      -10.9970  -26.3920   94.3330 N.ar  421  TRP421     -0.2442
     78  CE2      -11.6670  -26.4200   95.5310 C.ar  421  TRP421      0.0810
     79  CE3      -12.8720  -24.8890   96.9360 C.ar  421  TRP421      0.0012
     80  CZ2      -11.8790  -27.4750   96.4140 C.ar  421  TRP421      0.0191
     81  CZ3      -13.0830  -25.9370   97.8210 C.ar  421  TRP421      0.0001
     82  CH2      -12.5920  -27.2100   97.5550 C.ar  421  TRP421      0.0015
     83  N        -13.7700  -26.4320   90.3620 N.3   423  ASP423     -0.1225
     84  CA       -13.6260  -27.8650   90.5810 C.3   423  ASP423      0.1805
     85  C        -14.4130  -28.6400   89.5130 C.2   423  ASP423      0.2597
     86  O        -15.2210  -28.0510   88.7860 O.2   423  ASP423     -0.2718
     87  CB       -14.1940  -28.1560   91.9770 C.3   423  ASP423      0.1424
     88  CG       -14.0040  -29.5970   92.4390 C.2   423  ASP423      0.3668
     89  OD1      -13.0790  -30.2970   91.9620 O.co2 423  ASP423     -0.2456
     90  OD2      -14.8110  -29.9960   93.3300 O.co2 423  ASP423     -0.2456
     91  N        -14.1860  -29.9560   89.4440 N.am  424  MET424     -0.1979
     92  CA       -15.0130  -30.8780   88.6530 C.3   424  MET424      0.1605
     93  C        -15.1110  -30.4900   87.1830 C.2   424  MET424      0.2287
     94  O        -16.1230  -30.7260   86.5370 O.2   424  MET424     -0.2864
     95  CB       -16.4130  -30.9850   89.2860 C.3   424  MET424      0.0413
     96  CG       -16.3650  -31.5680   90.6920 C.3   424  MET424      0.0598
     97  SD       -17.9190  -32.2880   91.2340 S.3   424  MET424     -0.1393
     98  CE       -17.8730  -33.8350   90.3320 C.3   424  MET424      0.0692
     99  N        -21.2600  -37.7800   87.3460 N.3   430  PHE430     -0.1241
    100  CA       -21.4810  -38.9400   88.2220 C.3   430  PHE430      0.1605
    101  C        -22.0400  -40.1400   87.4730 C.2   430  PHE430      0.2264
    102  O        -21.9930  -41.2550   87.9720 O.2   430  PHE430     -0.2867
    103  CB       -22.4030  -38.6070   89.3890 C.3   430  PHE430      0.0534
    104  CG       -21.8080  -37.6740   90.4040 C.ar  430  PHE430     -0.0203
    105  CD1      -20.4400  -37.4800   90.4960 C.ar  430  PHE430     -0.0042
    106  CD2      -22.6240  -37.0370   91.3100 C.ar  430  PHE430     -0.0042
    107  CE1      -19.9020  -36.6220   91.4480 C.ar  430  PHE430     -0.0003
    108  CE2      -22.0950  -36.1760   92.2570 C.ar  430  PHE430     -0.0003
    109  CZ       -20.7300  -35.9820   92.3260 C.ar  430  PHE430     -0.0000
    110  N         -9.0100  -27.4550   88.8630 N.3   505  ARG505     -0.1245
    111  CA        -8.6260  -28.8510   88.9320 C.3   505  ARG505      0.1563
    112  C         -8.1130  -29.3230   87.5840 C.2   505  ARG505      0.2260
    113  O         -6.9760  -29.7720   87.4820 O.2   505  ARG505     -0.2867
    114  CB        -9.7670  -29.7510   89.4280 C.3   505  ARG505      0.0307
    115  CG        -9.2660  -31.0820   89.9550 C.3   505  ARG505      0.0489
    116  CD       -10.3240  -31.8370   90.7360 C.3   505  ARG505      0.2205
    117  NE       -11.3680  -32.3860   89.8750 N.pl3 505  ARG505     -0.0865
    118  CZ       -12.3050  -33.2280   90.2930 C.cat 505  ARG505      0.5346
    119  NH1      -12.3180  -33.6430   91.5580 N.pl3 505  ARG505      0.1354
    120  NH2      -13.2130  -33.6920   89.4420 N.pl3 505  ARG505      0.1354
    121  N         -4.3880  -27.1790   91.8130 N.3   518  TRP518     -0.1241
    122  CA        -4.0320  -28.0420   92.9240 C.3   518  TRP518      0.1605
    123  C         -4.1680  -29.4970   92.4550 C.2   518  TRP518      0.2264
    124  O         -4.8970  -29.7740   91.5320 O.2   518  TRP518     -0.2867
    125  CB        -4.8680  -27.7060   94.1700 C.3   518  TRP518      0.0550
    126  CG        -6.0570  -28.5530   94.4120 C.ar  518  TRP518      0.0003
    127  CD1       -6.1680  -29.5340   95.3340 C.ar  518  TRP518      0.0946
    128  CD2       -7.3160  -28.4980   93.7250 C.ar  518  TRP518      0.0152
    129  NE1       -7.4130  -30.1060   95.2790 N.ar  518  TRP518     -0.2442
    130  CE2       -8.1420  -29.4860   94.2990 C.ar  518  TRP518      0.0810
    131  CE3       -7.8280  -27.7020   92.6950 C.ar  518  TRP518      0.0012
    132  CZ2       -9.4570  -29.7090   93.8700 C.ar  518  TRP518      0.0191
    133  CZ3       -9.1410  -27.9270   92.2620 C.ar  518  TRP518      0.0001
    134  CH2       -9.9280  -28.9360   92.8410 C.ar  518  TRP518      0.0015
    135  N         -7.4750  -34.9730   94.7070 N.3   521  ASP521     -0.1239
    136  CA        -7.8760  -35.7630   95.8590 C.3   521  ASP521      0.1674
    137  C         -6.7920  -36.7050   96.3150 C.2   521  ASP521      0.2266
    138  O         -6.9350  -37.9270   96.2190 O.2   521  ASP521     -0.2867
    139  CB        -9.1800  -36.5080   95.5630 C.3   521  ASP521      0.1410
    140  CG       -10.3520  -35.5680   95.4100 C.2   521  ASP521      0.3668
    141  OD1      -10.1900  -34.3630   95.7220 O.co2 521  ASP521     -0.2456
    142  OD2      -11.4180  -36.0350   94.9670 O.co2 521  ASP521     -0.2456
    143  N         -5.9490  -34.7280  101.5090 N.3   554  PHE554     -0.1241
    144  CA        -7.3900  -34.5500  101.3970 C.3   554  PHE554      0.1605
    145  C         -8.1850  -35.7720  101.8830 C.2   554  PHE554      0.2264
    146  O         -8.9830  -35.6660  102.8030 O.2   554  PHE554     -0.2867
    147  CB        -7.7570  -34.2230   99.9460 C.3   554  PHE554      0.0534
    148  CG        -9.2250  -34.0650   99.7210 C.ar  554  PHE554     -0.0203
    149  CD1       -9.9150  -32.9860  100.2670 C.ar  554  PHE554     -0.0042
    150  CD2       -9.9230  -35.0030   98.9900 C.ar  554  PHE554     -0.0042
    151  CE1      -11.2800  -32.8450  100.0630 C.ar  554  PHE554     -0.0003
    152  CE2      -11.2830  -34.8700   98.7860 C.ar  554  PHE554     -0.0003
    153  CZ       -11.9630  -33.7870   99.3250 C.ar  554  PHE554     -0.0000
    154  N         -6.5150  -28.3440  102.8410 N.3   579  HIS579     -0.1241
    155  CA        -7.8930  -28.6730  102.4880 C.3   579  HIS579      0.1621
    156  C         -8.1160  -30.1260  102.8710 C.2   579  HIS579      0.2264
    157  O         -7.1610  -30.8950  102.9960 O.2   579  HIS579     -0.2867
    158  CB        -8.1770  -28.3830  100.9980 C.3   579  HIS579      0.0745
    159  CG        -9.5280  -28.8240  100.5310 C.ar  579  HIS579      0.0817
    160  ND1      -10.6940  -28.4600  101.1780 N.ar  579  HIS579     -0.2268
    161  CD2       -9.9030  -29.6030   99.4870 C.ar  579  HIS579      0.1154
    162  CE1      -11.7260  -29.0030  100.5520 C.ar  579  HIS579      0.1986
    163  NE2      -11.2720  -29.7060   99.5280 N.ar  579  HIS579     -0.2212
@<TRIPOS>BOND
     1     1     2    1
     2    94    93    2
     3    93    92    1
     4    99   100    1
     5   101   102    2
     6   101   100    1
     7   113   112    2
     8   112   111    1
     9     2     5    1
    10     2     3    1
    11     5     6    1
    12     4     3    2
    13   100   103    1
    14    50    49    2
    15    49    48    1
    16    92    95    1
    17    92    91    1
    18    86    85    2
    19   110   111    1
    20   111   114    1
    21    95    96    1
    22   103   104    1
    23   114   115    1
    24   120   118    1
    25    91    85   am
    26     6     8   ar
    27     6     7   ar
    28    85    84    1
    29    48    51    1
    30    48    47    1
    31   117   118    2
    32   117   116    1
    33   115   116    1
    34   118   119    1
    35    51    52    1
    36    98    97    1
    37    83    84    1
    38   104   105   ar
    39   104   106   ar
    40   105   107   ar
    41    84    87    1
    42    96    97    1
    43   106   108   ar
    44   107   109   ar
    45   124   123    2
    46    52    53   ar
    47    52    54   ar
    48    55    56    1
    49   121   122    1
    50    89    88   ar
    51    87    88    1
    52    71    72    2
    53    71    70    1
    54   108   109   ar
    55   133   131   ar
    56   133   134   ar
    57    88    90   ar
    58   123   122    1
    59   131   128   ar
    60   134   132   ar
    61   122   125    1
    62    69    70    1
    63    70    73    1
    64    56    57    1
    65    56    59    1
    66    57    58    2
    67    61    63   ar
    68    61    60   ar
    69   128   130   ar
    70   128   126   ar
    71    75    77   ar
    72    75    74   ar
    73    59    60    1
    74   132   130   ar
    75    63    64   ar
    76   125   126    1
    77    60    62   ar
    78    41    42    2
    79    41    40    1
    80   130   129   ar
    81    77    78   ar
    82   126   127   ar
    83    73    74    1
    84    44    46    1
    85    44    43    1
    86    74    76   ar
    87   135   136    1
    88   142   140   ar
    89    64    62   ar
    90    64    66   ar
    91    62    65   ar
    92    40    43    1
    93    40    39    1
    94   129   127   ar
    95   140   139    1
    96   140   141   ar
    97    78    76   ar
    98    78    80   ar
    99   139   136    1
   100    43    45    1
   101    76    79   ar
   102   136   137    1
   103    38    36    1
   104    66    68   ar
   105    65    67   ar
   106   138   137    2
   107    80    82   ar
   108    68    67   ar
   109    79    81   ar
   110    37    36    1
   111    36    35    1
   112    82    81   ar
   113    29    28   ar
   114    35    32    1
   115    32    31    1
   116    32    33    1
   117   152   150   ar
   118   152   153   ar
   119    22    21   ar
   120    22    20   ar
   121   150   148   ar
   122    31    25   am
   123    21    19   ar
   124    28    30   ar
   125    28    27    1
   126    20    18   ar
   127   153   151   ar
   128   161   163   ar
   129   161   159   ar
   130    25    26    2
   131    25    24    1
   132   163   162   ar
   133    34    33    2
   134   148   147    1
   135   148   149   ar
   136    24    27    1
   137    24    23    1
   138   147   144    1
   139    19    16   ar
   140   151   149   ar
   141    18    16   ar
   142    18    17   ar
   143   159   158    1
   144   159   160   ar
   145    16    14   ar
   146   162   160   ar
   147    17    15   ar
   148   158   155    1
   149   144   143    1
   150   144   145    1
   151    14    15   ar
   152    14    13    1
   153   145   146    2
   154    13    10    1
   155   155   154    1
   156   155   156    1
   157   156   157    2
   158    10     9    1
   159    10    11    1
   160    11    12    2
