@<TRIPOS>MOLECULE
tmp/5nn6A07.pdb
 69 67 0 0 0
SMALL
GASTEIGER

@<TRIPOS>ATOM
      1  N         14.4490  -58.8860   57.2480 N.3     1  GLN1       -0.1231
      2  CA        13.3650  -57.8660   57.4710 C.3     1  GLN1        0.1698
      3  C         12.9810  -57.7330   58.9450 C.2     1  GLN1        0.2592
      4  O         12.8690  -56.6300   59.4560 O.2     1  GLN1       -0.2718
      5  CB        12.1030  -58.1520   56.6250 C.3     1  GLN1        0.0381
      6  CG        11.7240  -59.6280   56.4600 C.3     1  GLN1        0.0905
      7  CD        10.2950  -59.8710   55.9740 C.2     1  GLN1        0.2608
      8  OE1        9.8100  -61.0020   56.0250 O.2     1  GLN1       -0.2717
      9  NE2        9.6200  -58.8260   55.4980 N.am    1  GLN1       -0.0878
     10  N         12.7920  -58.8540   59.6280 N.am    2  CYS2       -0.1970
     11  CA        12.2600  -58.8480   60.9950 C.3     2  CYS2        0.1712
     12  C         13.3060  -58.9140   62.0870 C.2     2  CYS2        0.2296
     13  O         12.9600  -58.9980   63.2630 O.2     2  CYS2       -0.2864
     14  CB        11.2710  -59.9920   61.1750 C.3     2  CYS2        0.0983
     15  SG         9.8210  -59.7740   60.1350 S.3     2  CYS2       -0.0798
     16  N          1.1120  -61.1610   60.5690 N.3    24  GLU24      -0.1231
     17  CA         1.8370  -61.3080   59.3100 C.3    24  GLU24       0.1699
     18  C          1.0020  -60.8260   58.1170 C.2    24  GLU24       0.2592
     19  O          1.5520  -60.2490   57.1690 O.2    24  GLU24      -0.2718
     20  CB         2.3530  -62.7410   59.1420 C.3    24  GLU24       0.0402
     21  CG         3.4540  -63.0400   60.1490 C.3    24  GLU24       0.1161
     22  CD         3.9260  -64.4820   60.1830 C.2    24  GLU24       0.3649
     23  OE1        3.2520  -65.3630   59.6310 O.co2  24  GLU24      -0.2457
     24  OE2        4.9850  -64.7340   60.7810 O.co2  24  GLU24      -0.2457
     25  N         -0.3180  -61.0150   58.1920 N.am   25  ALA25      -0.1966
     26  CA        -1.2490  -60.5200   57.1620 C.3    25  ALA25       0.1728
     27  C         -1.2860  -58.9900   57.0910 C.2    25  ALA25       0.2616
     28  O         -1.6190  -58.4230   56.0580 O.2    25  ALA25      -0.2715
     29  CB        -2.6520  -61.0640   57.4050 C.3    25  ALA25       0.0334
     30  N         -0.9430  -58.3210   58.1890 N.am   26  ARG26      -0.1963
     31  CA        -0.8080  -56.8640   58.1830 C.3    26  ARG26       0.1729
     32  C          0.5000  -56.3910   57.5460 C.2    26  ARG26       0.2617
     33  O          0.7210  -55.1810   57.4000 O.2    26  ARG26      -0.2715
     34  CB        -0.8770  -56.3220   59.6070 C.3    26  ARG26       0.0348
     35  CG        -2.2580  -56.3440   60.2050 C.3    26  ARG26       0.0492
     36  CD        -2.2380  -55.7370   61.5970 C.3    26  ARG26       0.2205
     37  NE        -3.5950  -55.5800   62.0970 N.pl3  26  ARG26      -0.0865
     38  CZ        -3.9350  -54.9080   63.1870 C.cat  26  ARG26       0.5346
     39  NH1       -3.0130  -54.2930   63.9300 N.pl3  26  ARG26       0.1354
     40  NH2       -5.2190  -54.8360   63.5190 N.pl3  26  ARG26       0.1354
     41  N          1.3680  -57.3320   57.1820 N.am   27  GLY27      -0.1940
     42  CA         2.7250  -57.0040   56.7510 C.3    27  GLY27       0.2014
     43  C          3.6860  -56.7660   57.9160 C.2    27  GLY27       0.2639
     44  O          4.7260  -56.1180   57.7570 O.2    27  GLY27      -0.2714
     45  N          3.3600  -57.3080   59.0820 N.am   28  CYS28      -0.1953
     46  CA         4.1990  -57.1210   60.2690 C.3    28  CYS28       0.1843
     47  C          4.9130  -58.3920   60.7350 C.2    28  CYS28       0.2625
     48  O          4.5730  -59.5070   60.3300 O.2    28  CYS28      -0.2714
     49  CB         3.3740  -56.5000   61.3890 C.3    28  CYS28       0.0997
     50  SG         2.9290  -54.7960   60.9700 S.3    28  CYS28      -0.0797
     51  N          5.9190  -58.1850   61.5810 N.am   29  CYS29      -0.1968
     52  CA         6.7380  -59.2450   62.1290 C.3    29  CYS29       0.1712
     53  C          6.1640  -59.7310   63.4430 C.2    29  CYS29       0.2296
     54  O          5.7260  -58.9310   64.2860 O.2    29  CYS29      -0.2864
     55  CB         8.1480  -58.7250   62.3750 C.3    29  CYS29       0.0983
     56  SG         8.9420  -58.1030   60.8830 S.3    29  CYS29      -0.0798
     57  N          8.1770  -54.1780   60.3500 N.3    43  PRO43      -0.2116
     58  CA         9.4980  -54.2670   59.7460 C.3    43  PRO43       0.1372
     59  C          9.9110  -52.9020   59.2070 C.2    43  PRO43       0.2244
     60  O          9.0530  -52.0390   58.9760 O.2    43  PRO43      -0.2868
     61  CB         9.2990  -55.2510   58.5800 C.3    43  PRO43       0.0268
     62  CG         7.8550  -55.1600   58.2470 C.3    43  PRO43       0.0207
     63  CD         7.1500  -54.8670   59.5520 C.3    43  PRO43       0.0892
     64  N         10.4580  -52.0940   56.3330 N.3    45  SER45      -0.1217
     65  CA         9.7940  -51.8700   55.0520 C.3    45  SER45       0.1889
     66  C          8.2800  -51.6090   55.1520 C.2    45  SER45       0.2288
     67  O          7.6140  -51.4840   54.1230 O.2    45  SER45      -0.2866
     68  CB        10.0300  -53.0830   54.1420 C.3    45  SER45       0.2089
     69  OG         9.4030  -54.2450   54.6690 O.3    45  SER45      -0.2183
@<TRIPOS>BOND
     1    67    66    2
     2    68    69    1
     3    68    65    1
     4    65    66    1
     5    65    64    1
     6     9     7   am
     7     7     8    2
     8     7     6    1
     9    28    27    2
    10     6     5    1
    11     5     2    1
    12    42    41    1
    13    42    43    1
    14    27    26    1
    15    27    30   am
    16    26    29    1
    17    26    25    1
    18    19    18    2
    19    41    32   am
    20     1     2    1
    21    33    32    2
    22     2     3    1
    23    32    31    1
    24    44    43    2
    25    43    45   am
    26    18    25   am
    27    18    17    1
    28    31    30    1
    29    31    34    1
    30    62    61    1
    31    62    63    1
    32    61    58    1
    33     3     4    2
    34     3    10   am
    35    60    59    2
    36    45    46    1
    37    20    17    1
    38    20    21    1
    39    59    58    1
    40    17    16    1
    41    63    57    1
    42    34    35    1
    43    10    11    1
    44    23    22   ar
    45    58    57    1
    46    15    56    1
    47    15    14    1
    48    21    22    1
    49    22    24   ar
    50    35    36    1
    51    46    47    1
    52    46    49    1
    53    48    47    2
    54    47    51   am
    55    56    55    1
    56    50    49    1
    57    11    14    1
    58    11    12    1
    59    51    52    1
    60    36    37    1
    61    12    13    2
    62    37    38    2
    63    52    55    1
    64    52    53    1
    65    38    40    1
    66    38    39    1
    67    53    54    2
