@<TRIPOS>MOLECULE
tmp/5nn8A07.pdb
 94 94 0 0 0
SMALL
GASTEIGER

@<TRIPOS>ATOM
      1  N          4.8110  -51.1700   67.4650 N.3    11  ASP11      -0.1239
      2  CA         3.6230  -52.0100   67.5460 C.3    11  ASP11       0.1674
      3  C          2.8130  -51.9550   66.2580 C.2    11  ASP11       0.2266
      4  O          2.2940  -50.9170   65.9000 O.2    11  ASP11      -0.2867
      5  CB         2.7780  -51.5600   68.7550 C.3    11  ASP11       0.1410
      6  CG         1.6590  -52.5390   69.1230 C.2    11  ASP11       0.3668
      7  OD1        1.5660  -53.6600   68.5720 O.co2  11  ASP11      -0.2456
      8  OD2        0.8610  -52.1710   70.0050 O.co2  11  ASP11      -0.2456
      9  N          0.1280  -53.8460   65.9430 N.3    13  ALA13      -0.1231
     10  CA        -1.2370  -54.1710   66.3710 C.3    13  ALA13       0.1679
     11  C         -1.6360  -53.3830   67.6190 C.2    13  ALA13       0.2434
     12  O         -1.9760  -53.9630   68.6390 O.2    13  ALA13      -0.2733
     13  CB        -1.3940  -55.6720   66.6010 C.3    13  ALA13       0.0304
     14  N         -1.6250  -52.0440   67.5240 N.am   14  PRO14      -0.2729
     15  CA        -2.0380  -51.1890   68.6360 C.3    14  PRO14       0.1401
     16  C         -3.5540  -51.1780   68.8790 C.2    14  PRO14       0.2269
     17  O         -4.0130  -50.6650   69.8900 O.2    14  PRO14      -0.2865
     18  CB        -1.5960  -49.8070   68.1620 C.3    14  PRO14       0.0296
     19  CG        -1.7820  -49.8670   66.6810 C.3    14  PRO14       0.0237
     20  CD        -1.3290  -51.2500   66.3150 C.3    14  PRO14       0.0939
     21  N         -5.8070  -54.0780   68.4300 N.3    16  LYS16      -0.1231
     22  CA        -6.4060  -55.3350   68.8760 C.3    16  LYS16       0.1693
     23  C         -5.3830  -56.4460   69.1300 C.2    16  LYS16       0.2592
     24  O         -4.2020  -56.3380   68.7680 O.2    16  LYS16      -0.2718
     25  CB        -7.4300  -55.8240   67.8410 C.3    16  LYS16       0.0285
     26  CG        -6.8180  -56.2370   66.5100 C.3    16  LYS16       0.0035
     27  CD        -7.8410  -56.8300   65.5500 C.3    16  LYS16       0.0206
     28  CE        -7.1400  -57.5110   64.3740 C.3    16  LYS16       0.1093
     29  NZ        -8.0410  -57.9340   63.2610 N.3    16  LYS16      -0.1314
     30  N         -5.8590  -57.5090   69.7740 N.am   17  ALA17      -0.1966
     31  CA        -5.0670  -58.7120   69.9540 C.3    17  ALA17       0.1728
     32  C         -4.9990  -59.3290   68.5760 C.2    17  ALA17       0.2616
     33  O         -5.9850  -59.3200   67.8370 O.2    17  ALA17      -0.2715
     34  CB        -5.7290  -59.6650   70.9380 C.3    17  ALA17       0.0334
     35  N         -3.8410  -59.8610   68.2240 N.am   18  ILE18      -0.1977
     36  CA        -3.6400  -60.3580   66.8800 C.3    18  ILE18       0.1596
     37  C         -2.9370  -61.7090   66.8880 C.2    18  ILE18       0.2287
     38  O         -2.1060  -61.9810   67.7560 O.2    18  ILE18      -0.2864
     39  CB        -2.8330  -59.3250   66.0540 C.3    18  ILE18       0.0276
     40  CG1       -3.0250  -59.5590   64.5540 C.3    18  ILE18       0.0022
     41  CG2       -1.3540  -59.3290   66.4490 C.3    18  ILE18       0.0022
     42  CD1       -2.7030  -58.3450   63.7100 C.3    18  ILE18       0.0001
     43  N          5.9910  -61.1310   63.0070 N.3    30  TYR30      -0.1241
     44  CA         5.5630  -61.7530   64.2500 C.3    30  TYR30       0.1605
     45  C          6.7360  -62.4920   64.8800 C.2    30  TYR30       0.2264
     46  O          7.2230  -63.4760   64.3450 O.2    30  TYR30      -0.2867
     47  CB         4.4230  -62.7330   64.0030 C.3    30  TYR30       0.0534
     48  CG         3.8220  -63.3290   65.2640 C.ar   30  TYR30      -0.0201
     49  CD1        2.7690  -62.6900   65.9180 C.ar   30  TYR30      -0.0009
     50  CD2        4.2890  -64.5400   65.7930 C.ar   30  TYR30      -0.0009
     51  CE1        2.2000  -63.2300   67.0610 C.ar   30  TYR30       0.0417
     52  CE2        3.7210  -65.0910   66.9390 C.ar   30  TYR30       0.0417
     53  CZ         2.6780  -64.4270   67.5660 C.ar   30  TYR30       0.1957
     54  OH         2.0930  -64.9380   68.6980 O.3    30  TYR30      -0.2866
     55  N          3.6590  -53.8520   77.0060 N.3    36  GLY36      -0.1210
     56  CA         5.0080  -54.4910   76.8230 C.3    36  GLY36       0.1956
     57  C          5.5150  -54.4410   75.3820 C.2    36  GLY36       0.2612
     58  O          4.9090  -53.8100   74.5150 O.2    36  GLY36      -0.2717
     59  N          6.6410  -55.0990   75.1250 N.am   37  GLN37      -0.1966
     60  CA         7.2180  -55.1800   73.7780 C.3    37  GLN37       0.1718
     61  C          6.2660  -55.9210   72.8160 C.2    37  GLN37       0.2458
     62  O          5.7760  -56.9950   73.1480 O.2    37  GLN37      -0.2730
     63  CB         8.5550  -55.9160   73.8440 C.3    37  GLN37       0.0407
     64  CG         9.2060  -56.2500   72.5060 C.3    37  GLN37       0.0908
     65  CD        10.3450  -57.2640   72.6500 C.2    37  GLN37       0.2608
     66  OE1       10.4180  -58.2420   71.9050 O.2    37  GLN37      -0.2717
     67  NE2       11.2240  -57.0430   73.6220 N.am   37  GLN37      -0.0878
     68  N          6.0250  -55.3530   71.6170 N.am   38  PRO38      -0.2716
     69  CA         5.0850  -55.9400   70.6680 C.3    38  PRO38       0.1536
     70  C          5.6010  -57.1800   69.9370 C.2    38  PRO38       0.2599
     71  O          6.7220  -57.2030   69.4380 O.2    38  PRO38      -0.2715
     72  CB         4.8520  -54.8090   69.6680 C.3    38  PRO38       0.0310
     73  CG         6.1490  -54.0730   69.6750 C.3    38  PRO38       0.0237
     74  CD         6.5850  -54.0910   71.1030 C.3    38  PRO38       0.0939
     75  N          4.7460  -58.1900   69.8620 N.am   39  TRP39      -0.1960
     76  CA         5.0420  -59.4310   69.1790 C.3    39  TRP39       0.1771
     77  C          4.8170  -59.1980   67.6910 C.2    39  TRP39       0.2619
     78  O          5.4970  -59.7870   66.8520 O.2    39  TRP39      -0.2715
     79  CB         4.1260  -60.5470   69.6880 C.3    39  TRP39       0.0590
     80  CG         4.3690  -60.9800   71.1110 C.ar   39  TRP39       0.0006
     81  CD1        4.8630  -60.2260   72.1480 C.ar   39  TRP39       0.0946
     82  CD2        4.0630  -62.2630   71.6630 C.ar   39  TRP39       0.0152
     83  NE1        4.9100  -60.9790   73.2960 N.ar   39  TRP39      -0.2442
     84  CE2        4.4200  -62.2320   73.0250 C.ar   39  TRP39       0.0810
     85  CE3        3.5260  -63.4390   71.1340 C.ar   39  TRP39       0.0012
     86  CZ2        4.2580  -63.3320   73.8580 C.ar   39  TRP39       0.0191
     87  CZ3        3.3670  -64.5280   71.9610 C.ar   39  TRP39       0.0001
     88  CH2        3.7340  -64.4700   73.3040 C.ar   39  TRP39       0.0015
     89  N          3.8610  -58.3320   67.3680 N.am   40  CYS40      -0.1968
     90  CA         3.5970  -57.9530   65.9830 C.3    40  CYS40       0.1712
     91  C          4.1380  -56.5490   65.7010 C.2    40  CYS40       0.2296
     92  O          3.6720  -55.5660   66.2670 O.2    40  CYS40      -0.2864
     93  CB         2.1020  -58.0290   65.6910 C.3    40  CYS40       0.0983
     94  SG         1.6950  -57.6070   63.9870 S.3    40  CYS40      -0.0798
@<TRIPOS>BOND
     1    43    44    1
     2    29    28    1
     3    42    40    1
     4    94    93    1
     5    47    44    1
     6    47    48    1
     7    44    45    1
     8    46    45    2
     9    28    27    1
    10    40    39    1
    11    48    50   ar
    12    48    49   ar
    13    27    26    1
    14    93    90    1
    15    91    90    1
    16    91    92    2
    17    50    52   ar
    18     4     3    2
    19    49    51   ar
    20     9    10    1
    21    90    89    1
    22    39    41    1
    23    39    36    1
    24     3     2    1
    25    20    19    1
    26    20    14    1
    27    10    13    1
    28    10    11    1
    29    26    25    1
    30    19    18    1
    31    78    77    2
    32    36    37    1
    33    36    35    1
    34    37    38    2
    35    52    53   ar
    36    51    53   ar
    37    89    77   am
    38     1     2    1
    39    14    11   am
    40    14    15    1
    41     2     5    1
    42    53    54    1
    43    11    12    2
    44    77    76    1
    45    33    32    2
    46    25    22    1
    47    18    15    1
    48    35    32   am
    49    21    22    1
    50     7     6   ar
    51    32    31    1
    52    15    16    1
    53     5     6    1
    54    24    23    2
    55    22    23    1
    56    16    17    2
    57     6     8   ar
    58    23    30   am
    59    76    79    1
    60    76    75    1
    61    71    70    2
    62    72    73    1
    63    72    69    1
    64    73    74    1
    65    79    80    1
    66    30    31    1
    67    75    70   am
    68    70    69    1
    69    31    34    1
    70    69    68    1
    71    74    68    1
    72    80    82   ar
    73    80    81   ar
    74    85    82   ar
    75    85    87   ar
    76    68    61   am
    77    82    84   ar
    78    66    65    2
    79    87    88   ar
    80    81    83   ar
    81    64    65    1
    82    64    63    1
    83    65    67   am
    84    61    62    2
    85    61    60    1
    86    84    83   ar
    87    84    86   ar
    88    88    86   ar
    89    60    63    1
    90    60    59    1
    91    58    57    2
    92    59    57   am
    93    57    56    1
    94    56    55    1
