@<TRIPOS>MOLECULE
tmp/5nn8A06.pdb
 225 219 0 0 0
SMALL
GASTEIGER

@<TRIPOS>ATOM
      1  N        -11.9100  -37.0970   85.9010 N.3   188  ASP188     -0.1225
      2  CA       -12.0720  -36.9820   87.3510 C.3   188  ASP188      0.1805
      3  C        -11.7400  -38.3450   87.9520 C.2   188  ASP188      0.2598
      4  O        -12.5500  -39.2680   87.9130 O.2   188  ASP188     -0.2718
      5  CB       -13.5130  -36.6090   87.7060 C.3   188  ASP188      0.1424
      6  CG       -13.7410  -36.4220   89.2010 C.2   188  ASP188      0.3668
      7  OD1      -12.8820  -36.8050   90.0390 O.co2 188  ASP188     -0.2456
      8  OD2      -14.8130  -35.8710   89.5510 O.co2 188  ASP188     -0.2456
      9  N        -10.5380  -38.4530   88.4960 N.am  189  LEU189     -0.1966
     10  CA       -10.1030  -39.6550   89.1830 C.3   189  LEU189      0.1728
     11  C         -9.0410  -39.2630   90.1930 C.2   189  LEU189      0.2616
     12  O         -8.0980  -38.5420   89.8520 O.2   189  LEU189     -0.2715
     13  CB        -9.5350  -40.6620   88.1850 C.3   189  LEU189      0.0311
     14  CG        -9.0360  -41.9860   88.7670 C.3   189  LEU189      0.0022
     15  CD1      -10.1960  -42.8430   89.2470 C.3   189  LEU189      0.0001
     16  CD2       -8.2350  -42.7280   87.7230 C.3   189  LEU189      0.0001
     17  N         -9.1990  -39.7210   91.4340 N.am  190  ALA190     -0.1977
     18  CA        -8.1940  -39.4780   92.4770 C.3   190  ALA190      0.1597
     19  C         -6.8180  -39.9460   91.9860 C.2   190  ALA190      0.2287
     20  O         -6.6900  -41.0610   91.4890 O.2   190  ALA190     -0.2864
     21  CB        -8.5650  -40.2090   93.7560 C.3   190  ALA190      0.0319
     22  N         -3.5910  -41.5950   91.0590 N.3   192  THR192     -0.1218
     23  CA        -3.0900  -42.9460   91.2390 C.3   192  THR192      0.1862
     24  C         -2.2270  -43.1910   89.9990 C.2   192  THR192      0.2287
     25  O         -2.5480  -42.6750   88.9360 O.2   192  THR192     -0.2866
     26  CB        -4.2660  -43.9560   91.3740 C.3   192  THR192      0.1770
     27  OG1       -3.7720  -45.2870   91.5560 O.3   192  THR192     -0.2211
     28  CG2       -5.1790  -43.9270   90.1600 C.3   192  THR192      0.0375
     29  N        -14.4180  -29.1640  102.9680 N.3   282  TRP282     -0.1241
     30  CA       -15.8220  -29.4440  102.7760 C.3   282  TRP282      0.1605
     31  C        -16.2520  -29.6880  104.2100 C.2   282  TRP282      0.2264
     32  O        -15.6450  -30.5150  104.8840 O.2   282  TRP282     -0.2867
     33  CB       -16.0330  -30.6950  101.9150 C.3   282  TRP282      0.0550
     34  CG       -17.4550  -30.8710  101.4410 C.ar  282  TRP282      0.0003
     35  CD1      -18.5560  -30.2140  101.8950 C.ar  282  TRP282      0.0946
     36  CD2      -17.9240  -31.8190  100.4740 C.ar  282  TRP282      0.0152
     37  NE1      -19.6710  -30.6510  101.2370 N.ar  282  TRP282     -0.2442
     38  CE2      -19.3150  -31.6430  100.3640 C.ar  282  TRP282      0.0810
     39  CE3      -17.2980  -32.7860   99.6780 C.ar  282  TRP282      0.0012
     40  CZ2      -20.1010  -32.4050   99.4970 C.ar  282  TRP282      0.0191
     41  CZ3      -18.0770  -33.5390   98.8070 C.ar  282  TRP282      0.0001
     42  CH2      -19.4640  -33.3420   98.7260 C.ar  282  TRP282      0.0015
     43  N        -16.3540  -24.6150  100.5880 N.3   310  ASP310     -0.1225
     44  CA       -16.6750  -25.6120   99.5940 C.3   310  ASP310      0.1805
     45  C        -18.1980  -25.5230   99.3730 C.2   310  ASP310      0.2597
     46  O        -18.8030  -24.5020   99.6820 O.2   310  ASP310     -0.2718
     47  CB       -16.2590  -26.9870  100.1440 C.3   310  ASP310      0.1424
     48  CG       -15.9570  -28.0070   99.0600 C.2   310  ASP310      0.3668
     49  OD1      -16.7080  -28.0650   98.0650 O.co2 310  ASP310     -0.2456
     50  OD2      -14.9670  -28.7660   99.2240 O.co2 310  ASP310     -0.2456
     51  N        -18.8210  -26.6010   98.8940 N.am  311  LEU311     -0.1979
     52  CA       -20.2680  -26.6530   98.6150 C.3   311  LEU311      0.1596
     53  C        -21.1990  -26.1420   99.7350 C.2   311  LEU311      0.2287
     54  O        -22.3240  -25.7390   99.4590 O.2   311  LEU311     -0.2864
     55  CB       -20.6750  -28.1010   98.2380 C.3   311  LEU311      0.0297
     56  CG       -20.0190  -28.7190   96.9900 C.3   311  LEU311      0.0022
     57  CD1      -20.3740  -30.1840   96.8200 C.3   311  LEU311      0.0001
     58  CD2      -20.4300  -27.9560   95.7480 C.3   311  LEU311      0.0001
     59  N        -15.8490  -22.3520   95.9620 N.3   347  ILE347     -0.1245
     60  CA       -15.9340  -23.2640   94.8350 C.3   347  ILE347      0.1561
     61  C        -17.0430  -22.8940   93.8640 C.2   347  ILE347      0.2260
     62  O        -18.1160  -22.4500   94.2730 O.2   347  ILE347     -0.2867
     63  CB       -16.1660  -24.7130   95.3100 C.3   347  ILE347      0.0252
     64  CG1      -15.9210  -25.6880   94.1610 C.3   347  ILE347      0.0019
     65  CG2      -17.5590  -24.8700   95.9230 C.3   347  ILE347      0.0019
     66  CD1      -15.4170  -27.0270   94.6190 C.3   347  ILE347      0.0001
     67  N        -18.7560  -24.7860   90.2850 N.3   349  ASP349     -0.1239
     68  CA       -18.7870  -25.9490   89.4080 C.3   349  ASP349      0.1674
     69  C        -19.2700  -25.4680   88.0210 C.2   349  ASP349      0.2266
     70  O        -19.8420  -24.3850   87.9210 O.2   349  ASP349     -0.2867
     71  CB       -19.7110  -27.0110   90.0010 C.3   349  ASP349      0.1410
     72  CG       -19.1600  -27.6350   91.2830 C.2   349  ASP349      0.3668
     73  OD1      -17.9950  -28.0680   91.2590 O.co2 349  ASP349     -0.2456
     74  OD2      -19.8920  -27.7250   92.3030 O.co2 349  ASP349     -0.2456
     75  N        -23.3630  -32.6110   91.6120 N.3   387  TRP387     -0.1241
     76  CA       -23.7530  -32.4350   93.0070 C.3   387  TRP387      0.1605
     77  C        -25.2230  -32.0560   93.2230 C.2   387  TRP387      0.2264
     78  O        -25.8760  -32.6230   94.0900 O.2   387  TRP387     -0.2867
     79  CB       -22.8240  -31.4290   93.6910 C.3   387  TRP387      0.0550
     80  CG       -21.4030  -31.8710   93.7630 C.ar  387  TRP387      0.0003
     81  CD1      -20.3210  -31.2290   93.2210 C.ar  387  TRP387      0.0946
     82  CD2      -20.8930  -33.0550   94.4050 C.ar  387  TRP387      0.0152
     83  NE1      -19.1690  -31.9310   93.4970 N.ar  387  TRP387     -0.2442
     84  CE2      -19.4910  -33.0580   94.2160 C.ar  387  TRP387      0.0810
     85  CE3      -21.4790  -34.1040   95.1260 C.ar  387  TRP387      0.0012
     86  CZ2      -18.6730  -34.0720   94.7150 C.ar  387  TRP387      0.0191
     87  CZ3      -20.6640  -35.1160   95.6260 C.ar  387  TRP387      0.0001
     88  CH2      -19.2750  -35.0880   95.4180 C.ar  387  TRP387      0.0015
     89  N        -12.6120  -20.8020   92.6380 N.3   422  TRP422     -0.1241
     90  CA       -12.0650  -22.1480   92.6960 C.3   422  TRP422      0.1605
     91  C        -12.9720  -22.9620   91.7810 C.2   422  TRP422      0.2264
     92  O        -14.1140  -23.1710   92.1020 O.2   422  TRP422     -0.2867
     93  CB       -12.0550  -22.6530   94.1410 C.3   422  TRP422      0.0550
     94  CG       -11.8050  -24.1230   94.2980 C.ar  422  TRP422      0.0003
     95  CD1      -11.0960  -24.9280   93.4640 C.ar  422  TRP422      0.0946
     96  CD2      -12.2280  -24.9440   95.3840 C.ar  422  TRP422      0.0152
     97  NE1      -11.0890  -26.2060   93.9390 N.ar  422  TRP422     -0.2442
     98  CE2      -11.7730  -26.2450   95.1240 C.ar  422  TRP422      0.0810
     99  CE3      -12.9440  -24.7020   96.5550 C.ar  422  TRP422      0.0012
    100  CZ2      -12.0160  -27.3200   95.9900 C.ar  422  TRP422      0.0191
    101  CZ3      -13.1840  -25.7670   97.4240 C.ar  422  TRP422      0.0001
    102  CH2      -12.7170  -27.0620   97.1300 C.ar  422  TRP422      0.0015
    103  N        -13.9070  -26.3670   89.8870 N.3   424  ASP424     -0.1225
    104  CA       -13.7420  -27.7940   90.0450 C.3   424  ASP424      0.1805
    105  C        -14.6040  -28.5440   89.0170 C.2   424  ASP424      0.2597
    106  O        -15.3060  -27.9080   88.2340 O.2   424  ASP424     -0.2718
    107  CB       -14.1810  -28.1210   91.4750 C.3   424  ASP424      0.1424
    108  CG       -13.8240  -29.5220   91.9090 C.2   424  ASP424      0.3668
    109  OD1      -12.8350  -30.0970   91.3920 O.co2 424  ASP424     -0.2456
    110  OD2      -14.5440  -30.0350   92.7900 O.co2 424  ASP424     -0.2456
    111  N        -14.5050  -29.8840   89.0010 N.am  425  MET425     -0.1979
    112  CA       -15.3620  -30.7670   88.1900 C.3   425  MET425      0.1605
    113  C        -15.3960  -30.4350   86.6910 C.2   425  MET425      0.2287
    114  O        -16.3570  -30.7960   85.9920 O.2   425  MET425     -0.2864
    115  CB       -16.7990  -30.7460   88.7540 C.3   425  MET425      0.0413
    116  CG       -16.8880  -30.8960   90.2790 C.3   425  MET425      0.0598
    117  SD       -16.3640  -32.4900   90.9590 S.3   425  MET425     -0.1393
    118  CE       -17.6730  -33.5640   90.3820 C.3   425  MET425      0.0692
    119  N        -16.6420  -33.3370   84.7710 N.3   429  SER429     -0.1217
    120  CA       -16.9370  -34.5070   85.5720 C.3   429  SER429      0.1889
    121  C        -18.4390  -34.8050   85.5290 C.2   429  SER429      0.2288
    122  O        -19.2390  -33.8930   85.6560 O.2   429  SER429     -0.2866
    123  CB       -16.4790  -34.2580   87.0170 C.3   429  SER429      0.2089
    124  OG       -16.3640  -35.4690   87.7330 O.3   429  SER429     -0.2183
    125  N        -21.3450  -37.8340   87.0000 N.3   431  PHE431     -0.1241
    126  CA       -21.5780  -38.9870   87.8860 C.3   431  PHE431      0.1605
    127  C        -22.1650  -40.1820   87.1820 C.2   431  PHE431      0.2264
    128  O        -22.1220  -41.2740   87.7040 O.2   431  PHE431     -0.2867
    129  CB       -22.4670  -38.6250   89.0570 C.3   431  PHE431      0.0534
    130  CG       -21.8570  -37.6210   89.9930 C.ar  431  PHE431     -0.0203
    131  CD1      -20.4880  -37.3710   90.0040 C.ar  431  PHE431     -0.0042
    132  CD2      -22.6550  -36.9730   90.9170 C.ar  431  PHE431     -0.0042
    133  CE1      -19.9470  -36.4530   90.8820 C.ar  431  PHE431     -0.0003
    134  CE2      -22.1170  -36.0650   91.8060 C.ar  431  PHE431     -0.0003
    135  CZ       -20.7600  -35.8030   91.7870 C.ar  431  PHE431     -0.0000
    136  N         -9.0230  -27.3380   88.4590 N.3   506  ARG506     -0.1245
    137  CA        -8.6350  -28.7310   88.5250 C.3   506  ARG506      0.1563
    138  C         -8.1960  -29.2230   87.1530 C.2   506  ARG506      0.2260
    139  O         -7.0590  -29.6740   86.9930 O.2   506  ARG506     -0.2867
    140  CB        -9.7450  -29.6080   89.0680 C.3   506  ARG506      0.0307
    141  CG        -9.1950  -30.9170   89.6060 C.3   506  ARG506      0.0489
    142  CD       -10.2380  -31.7120   90.3660 C.3   506  ARG506      0.2205
    143  NE       -11.2850  -32.2220   89.4920 N.pl3 506  ARG506     -0.0865
    144  CZ       -12.2800  -33.0080   89.9000 C.cat 506  ARG506      0.5346
    145  NH1      -12.3840  -33.3580   91.1760 N.pl3 506  ARG506      0.1354
    146  NH2      -13.1780  -33.4370   89.0320 N.pl3 506  ARG506      0.1354
    147  N         -4.4970  -27.0830   91.4530 N.3   519  TRP519     -0.1241
    148  CA        -4.1590  -27.9160   92.6100 C.3   519  TRP519      0.1605
    149  C         -4.2900  -29.3520   92.1300 C.2   519  TRP519      0.2264
    150  O         -5.0000  -29.6220   91.1490 O.2   519  TRP519     -0.2867
    151  CB        -4.9980  -27.6070   93.8560 C.3   519  TRP519      0.0550
    152  CG        -6.2070  -28.4430   94.0110 C.ar  519  TRP519      0.0003
    153  CD1       -6.3740  -29.4720   94.8770 C.ar  519  TRP519      0.0946
    154  CD2       -7.4230  -28.3160   93.2920 C.ar  519  TRP519      0.0152
    155  NE1       -7.6290  -30.0080   94.7440 N.ar  519  TRP519     -0.2442
    156  CE2       -8.3000  -29.3080   93.7810 C.ar  519  TRP519      0.0810
    157  CE3       -7.8660  -27.4570   92.2890 C.ar  519  TRP519      0.0012
    158  CZ2       -9.5820  -29.4770   93.2870 C.ar  519  TRP519      0.0191
    159  CZ3       -9.1460  -27.6260   91.7960 C.ar  519  TRP519      0.0001
    160  CH2       -9.9860  -28.6350   92.2890 C.ar  519  TRP519      0.0015
    161  N         -7.6980  -34.7770   94.4600 N.3   522  ASP522     -0.1239
    162  CA        -8.0610  -35.5490   95.6230 C.3   522  ASP522      0.1674
    163  C         -6.9900  -36.5240   96.0320 C.2   522  ASP522      0.2266
    164  O         -7.1550  -37.7440   95.9460 O.2   522  ASP522     -0.2867
    165  CB        -9.3730  -36.2640   95.3490 C.3   522  ASP522      0.1410
    166  CG       -10.5110  -35.2990   95.1010 C.2   522  ASP522      0.3668
    167  OD1      -10.4660  -34.1500   95.6250 O.co2 522  ASP522     -0.2456
    168  OD2      -11.4570  -35.6890   94.3790 O.co2 522  ASP522     -0.2456
    169  N         -4.6870  -38.5940   98.5900 N.3   524  TRP524     -0.1241
    170  CA        -4.8470  -39.2090   99.9030 C.3   524  TRP524      0.1605
    171  C         -3.9220  -38.5750  100.9480 C.2   524  TRP524      0.2264
    172  O         -2.8470  -38.0770  100.6030 O.2   524  TRP524     -0.2867
    173  CB        -4.5460  -40.7080   99.8210 C.3   524  TRP524      0.0550
    174  CG        -5.6670  -41.4970   99.3020 C.ar  524  TRP524      0.0003
    175  CD1       -5.8930  -41.8540   98.0100 C.ar  524  TRP524      0.0946
    176  CD2       -6.7330  -42.0430  100.0720 C.ar  524  TRP524      0.0152
    177  NE1       -7.0500  -42.5910   97.9270 N.ar  524  TRP524     -0.2442
    178  CE2       -7.5850  -42.7210   99.1820 C.ar  524  TRP524      0.0810
    179  CE3       -7.0520  -42.0260  101.4360 C.ar  524  TRP524      0.0012
    180  CZ2       -8.7380  -43.3800   99.6090 C.ar  524  TRP524      0.0191
    181  CZ3       -8.2190  -42.6740  101.8610 C.ar  524  TRP524      0.0001
    182  CH2       -9.0410  -43.3410  100.9470 C.ar  524  TRP524      0.0015
    183  N         -3.1780  -30.3300   98.1350 N.3   551  ASP551     -0.1239
    184  CA        -3.8620  -30.0830   99.3760 C.3   551  ASP551      0.1674
    185  C         -2.9510  -30.4200  100.5680 C.2   551  ASP551      0.2266
    186  O         -2.6120  -31.5880  100.8010 O.2   551  ASP551     -0.2867
    187  CB        -5.1620  -30.9010   99.4370 C.3   551  ASP551      0.1410
    188  CG        -6.2600  -30.3600   98.5130 C.2   551  ASP551      0.3668
    189  OD1       -6.1580  -29.2170   98.0160 O.co2 551  ASP551     -0.2456
    190  OD2       -7.2500  -31.0820   98.2980 O.co2 551  ASP551     -0.2456
    191  N         -6.1570  -34.6110  101.1430 N.3   555  PHE555     -0.1227
    192  CA        -7.5920  -34.4080  101.0500 C.3   555  PHE555      0.1736
    193  C         -8.3630  -35.6180  101.5740 C.2   555  PHE555      0.2595
    194  O         -9.1880  -35.4860  102.4810 O.2   555  PHE555     -0.2718
    195  CB        -7.9990  -34.0650   99.6090 C.3   555  PHE555      0.0547
    196  CG        -9.4830  -33.9350   99.4210 C.ar  555  PHE555     -0.0202
    197  CD1      -10.1610  -32.8130   99.8800 C.ar  555  PHE555     -0.0042
    198  CD2      -10.2040  -34.9370   98.8070 C.ar  555  PHE555     -0.0042
    199  CE1      -11.5330  -32.7030   99.7250 C.ar  555  PHE555     -0.0003
    200  CE2      -11.5800  -34.8290   98.6450 C.ar  555  PHE555     -0.0003
    201  CZ       -12.2460  -33.7160   99.1080 C.ar  555  PHE555     -0.0000
    202  N         -8.0820  -36.7940  101.0280 N.am  556  LEU556     -0.1980
    203  CA        -8.8370  -37.9910  101.3990 C.3   556  LEU556      0.1596
    204  C         -8.3350  -38.6600  102.6750 C.2   556  LEU556      0.2287
    205  O         -7.1550  -38.5930  103.0250 O.2   556  LEU556     -0.2864
    206  CB        -8.8300  -38.9980  100.2560 C.3   556  LEU556      0.0297
    207  CG        -9.5670  -38.6030   98.9790 C.3   556  LEU556      0.0022
    208  CD1       -9.3220  -39.6600   97.9130 C.3   556  LEU556      0.0001
    209  CD2      -11.0550  -38.4210   99.2180 C.3   556  LEU556      0.0001
    210  N         -6.6860  -28.1390  102.4500 N.3   580  HIS580     -0.1241
    211  CA        -8.0540  -28.4940  102.1140 C.3   580  HIS580      0.1621
    212  C         -8.2990  -29.9220  102.5860 C.2   580  HIS580      0.2264
    213  O         -7.3650  -30.7290  102.6380 O.2   580  HIS580     -0.2867
    214  CB        -8.2820  -28.3400  100.6070 C.3   580  HIS580      0.0745
    215  CG        -9.6600  -28.7110  100.1740 C.ar  580  HIS580      0.0817
    216  ND1      -10.7840  -28.2990  100.8570 N.ar  580  HIS580     -0.2268
    217  CD2      -10.1000  -29.4600   99.1370 C.ar  580  HIS580      0.1154
    218  CE1      -11.8570  -28.7860  100.2640 C.ar  580  HIS580      0.1986
    219  NE2      -11.4690  -29.4930   99.2170 N.ar  580  HIS580     -0.2212
    220  N        -11.5060  -33.2460  103.2410 N.3   582  SER582     -0.1217
    221  CA       -12.7910  -33.7710  102.8030 C.3   582  SER582      0.1889
    222  C        -13.8560  -33.7270  103.9040 C.2   582  SER582      0.2288
    223  O        -13.5630  -33.4970  105.0680 O.2   582  SER582     -0.2866
    224  CB       -12.6340  -35.1830  102.2730 C.3   582  SER582      0.2089
    225  OG       -12.5760  -36.0810  103.3490 O.3   582  SER582     -0.2183
@<TRIPOS>BOND
     1   119   120    1
     2   121   120    1
     3   121   122    2
     4   120   123    1
     5     1     2    1
     6   114   113    2
     7   113   112    1
     8   139   138    2
     9   125   126    1
    10   123   124    1
    11   138   137    1
    12   127   128    2
    13   127   126    1
    14     2     5    1
    15     2     3    1
    16     5     6    1
    17    16    14    1
    18   126   129    1
    19     4     3    2
    20    70    69    2
    21     3     9   am
    22    69    68    1
    23    13    14    1
    24    13    10    1
    25   112   115    1
    26   112   111    1
    27   106   105    2
    28   136   137    1
    29     9    10    1
    30   137   140    1
    31   115   116    1
    32    14    15    1
    33    25    24    2
    34   111   105   am
    35   105   104    1
    36   146   144    1
    37   129   130    1
    38   140   141    1
    39    10    11    1
    40     6     8   ar
    41     6     7   ar
    42    68    71    1
    43    68    67    1
    44   143   144    2
    45   143   142    1
    46   141   142    1
    47    12    11    2
    48   103   104    1
    49   144   145    1
    50   130   131   ar
    51   130   132   ar
    52    24    23    1
    53    71    72    1
    54   131   133   ar
    55   104   107    1
    56    28    26    1
    57    11    17   am
    58   116   117    1
    59   118   117    1
    60   133   135   ar
    61   132   134   ar
    62    22    23    1
    63   150   149    2
    64    23    26    1
    65    73    72   ar
    66    72    74   ar
    67    26    27    1
    68   109   108   ar
    69    17    18    1
    70   147   148    1
    71   107   108    1
    72    20    19    2
    73    75    76    1
    74    91    92    2
    75    91    90    1
    76   135   134   ar
    77   159   157   ar
    78   159   160   ar
    79   108   110   ar
    80    19    18    1
    81   149   148    1
    82   157   154   ar
    83   160   158   ar
    84    18    21    1
    85   148   151    1
    86    89    90    1
    87    90    93    1
    88    76    77    1
    89    76    79    1
    90    81    83   ar
    91    81    80   ar
    92    77    78    2
    93   158   156   ar
    94   154   156   ar
    95   154   152   ar
    96    95    97   ar
    97    95    94   ar
    98    83    84   ar
    99    79    80    1
   100    80    82   ar
   101   156   155   ar
   102   151   152    1
   103    61    62    2
   104    61    60    1
   105    97    98   ar
   106   152   153   ar
   107    93    94    1
   108    64    66    1
   109    64    63    1
   110    84    82   ar
   111    84    86   ar
   112    94    96   ar
   113   168   166   ar
   114    82    85   ar
   115   161   162    1
   116    86    88   ar
   117   155   153   ar
   118    60    63    1
   119    60    59    1
   120   166   165    1
   121   166   167   ar
   122    98    96   ar
   123    98   100   ar
   124    85    87   ar
   125    63    65    1
   126   165   162    1
   127    96    99   ar
   128    88    87   ar
   129   162   163    1
   130    58    56    1
   131   164   163    2
   132   100   102   ar
   133    99   101   ar
   134    57    56    1
   135    56    55    1
   136   102   101   ar
   137   208   207    1
   138   177   175   ar
   139   177   178   ar
   140   175   174   ar
   141   189   188   ar
   142    49    48   ar
   143   183   184    1
   144    55    52    1
   145   190   188   ar
   146   188   187    1
   147   169   170    1
   148    52    51    1
   149    52    53    1
   150   200   198   ar
   151   200   201   ar
   152    42    41   ar
   153    42    40   ar
   154   198   196   ar
   155    41    39   ar
   156    51    45   am
   157   207   209    1
   158   207   206    1
   159    48    50   ar
   160    48    47    1
   161   201   199   ar
   162   217   219   ar
   163   217   215   ar
   164   178   180   ar
   165   178   176   ar
   166   219   218   ar
   167   174   173    1
   168   174   176   ar
   169    45    44    1
   170    45    46    2
   171   184   187    1
   172   184   185    1
   173   196   195    1
   174   196   197   ar
   175    54    53    2
   176    40    38   ar
   177    44    47    1
   178    44    43    1
   179   195   192    1
   180   180   182   ar
   181    39    36   ar
   182   199   197   ar
   183   173   170    1
   184   170   171    1
   185   176   179   ar
   186   215   214    1
   187   215   216   ar
   188   206   203    1
   189   218   216   ar
   190    38    36   ar
   191    38    37   ar
   192    36    34   ar
   193   185   186    2
   194   172   171    2
   195   214   211    1
   196   182   181   ar
   197   202   203    1
   198   202   193   am
   199   192   191    1
   200   192   193    1
   201    37    35   ar
   202   203   204    1
   203   179   181   ar
   204    34    35   ar
   205    34    33    1
   206   193   194    2
   207    33    30    1
   208   211   210    1
   209   211   212    1
   210   224   221    1
   211   224   225    1
   212   212   213    2
   213   204   205    2
   214    30    29    1
   215    30    31    1
   216   221   220    1
   217   221   222    1
   218   222   223    2
   219    31    32    2
