@<TRIPOS>MOLECULE
tmp/5nnaD00.pdb
 144 140 0 0 0
SMALL
GASTEIGER

@<TRIPOS>ATOM
      1  N         19.6290   32.3280   26.2660 N.3    39  ILE39      -0.1231
      2  CA        18.7280   31.2350   25.9200 C.3    39  ILE39       0.1692
      3  C         18.3930   31.2430   24.4250 C.2    39  ILE39       0.2592
      4  O         18.1740   32.2980   23.8060 O.2    39  ILE39      -0.2718
      5  CB        17.4690   31.3210   26.8010 C.3    39  ILE39       0.0266
      6  CG1       16.5290   30.1410   26.5350 C.3    39  ILE39       0.0019
      7  CG2       16.7040   32.6310   26.5930 C.3    39  ILE39       0.0020
      8  CD1       15.5140   29.9320   27.6460 C.3    39  ILE39       0.0001
      9  N         18.3820   30.0510   23.8300 N.am   40  VAL40      -0.1966
     10  CA        17.9850   29.8460   22.4460 C.3    40  VAL40       0.1727
     11  C         16.7980   28.9050   22.4610 C.2    40  VAL40       0.2616
     12  O         16.7910   27.9150   23.2070 O.2    40  VAL40      -0.2715
     13  CB        19.1320   29.2590   21.5940 C.3    40  VAL40       0.0290
     14  CG1       18.6500   28.9410   20.1740 C.3    40  VAL40       0.0023
     15  CG2       20.3020   30.2110   21.5580 C.3    40  VAL40       0.0023
     16  N         15.7870   29.2340   21.6530 N.am   41  LEU41      -0.1977
     17  CA        14.5580   28.4590   21.5900 C.3    41  LEU41       0.1596
     18  C         14.4230   27.9200   20.1780 C.2    41  LEU41       0.2287
     19  O         15.1300   28.3870   19.2740 O.2    41  LEU41      -0.2864
     20  CB        13.3580   29.3250   21.9480 C.3    41  LEU41       0.0297
     21  CG        13.3680   29.8570   23.3720 C.3    41  LEU41       0.0022
     22  CD1       12.1760   30.7670   23.5220 C.3    41  LEU41       0.0001
     23  CD2       13.3150   28.7090   24.3790 C.3    41  LEU41       0.0001
     24  N         15.4340   38.7590   29.8450 N.3    76  HIS76      -0.1241
     25  CA        15.9620   37.4550   30.2170 C.3    76  HIS76       0.1621
     26  C         17.3850   37.2420   29.7270 C.2    76  HIS76       0.2264
     27  O         17.8480   36.0980   29.6060 O.2    76  HIS76      -0.2867
     28  CB        14.9840   36.3860   29.6980 C.3    76  HIS76       0.0745
     29  CG        13.6350   36.5220   30.3260 C.ar   76  HIS76       0.0817
     30  ND1       13.2240   35.7360   31.3850 N.ar   76  HIS76      -0.2268
     31  CD2       12.6200   37.3750   30.0690 C.ar   76  HIS76       0.1154
     32  CE1       12.0120   36.1150   31.7510 C.ar   76  HIS76       0.1986
     33  NE2       11.6220   37.1150   30.9770 N.ar   76  HIS76      -0.2212
     34  N          5.8630   36.0550   33.5030 N.3    86  HIS86      -0.1226
     35  CA         6.6390   35.5670   32.3730 C.3    86  HIS86       0.1752
     36  C          5.9720   34.3400   31.7530 C.2    86  HIS86       0.2596
     37  O          6.0390   34.1480   30.5360 O.2    86  HIS86      -0.2718
     38  CB         8.0440   35.2490   32.8760 C.3    86  HIS86       0.0759
     39  CG         8.9220   34.5630   31.8900 C.ar   86  HIS86       0.0818
     40  ND1        9.0480   34.9890   30.5900 N.ar   86  HIS86      -0.2268
     41  CD2        9.7620   33.5060   32.0340 C.ar   86  HIS86       0.1154
     42  CE1        9.9110   34.1970   29.9600 C.ar   86  HIS86       0.1986
     43  NE2       10.3620   33.2960   30.8130 N.ar   86  HIS86      -0.2212
     44  N          5.2990   33.5220   32.5590 N.am   87  TRP87      -0.1976
     45  CA         4.6830   32.3110   32.0280 C.3    87  TRP87       0.1640
     46  C          3.1770   32.4510   31.9410 C.2    87  TRP87       0.2290
     47  O          2.5620   33.1270   32.7630 O.2    87  TRP87      -0.2864
     48  CB         5.0090   31.1030   32.8880 C.3    87  TRP87       0.0576
     49  CG         5.2340   29.8770   32.0410 C.ar   87  TRP87       0.0006
     50  CD1        4.4260   28.7800   31.9320 C.ar   87  TRP87       0.0946
     51  CD2        6.3540   29.6450   31.1840 C.ar   87  TRP87       0.0152
     52  NE1        4.9690   27.8790   31.0360 N.ar   87  TRP87      -0.2442
     53  CE2        6.1610   28.3850   30.5780 C.ar   87  TRP87       0.0810
     54  CE3        7.5040   30.3850   30.8730 C.ar   87  TRP87       0.0012
     55  CZ2        7.0760   27.8380   29.6660 C.ar   87  TRP87       0.0191
     56  CZ3        8.4290   29.8380   29.9620 C.ar   87  TRP87       0.0001
     57  CH2        8.1990   28.5720   29.3770 C.ar   87  TRP87       0.0015
     58  N         25.4430   26.6150   26.8730 N.3   163  LEU163     -0.1245
     59  CA        24.1070   26.2670   26.4060 C.3   163  LEU163      0.1561
     60  C         24.0010   24.7800   26.1050 C.2   163  LEU163      0.2260
     61  O         22.9580   24.1490   26.3500 O.2   163  LEU163     -0.2867
     62  CB        23.7870   27.0810   25.1630 C.3   163  LEU163      0.0270
     63  CG        22.3680   27.0880   24.6200 C.3   163  LEU163      0.0019
     64  CD1       21.3160   27.4190   25.6650 C.3   163  LEU163      0.0001
     65  CD2       22.3470   28.1200   23.5100 C.3   163  LEU163      0.0001
     66  N         18.8410   21.7040   23.9100 N.3   170  PRO170     -0.2116
     67  CA        19.9330   21.7950   24.8760 C.3   170  PRO170      0.1372
     68  C         19.9030   20.6590   25.8770 C.2   170  PRO170      0.2244
     69  O         18.8470   20.1090   26.2090 O.2   170  PRO170     -0.2868
     70  CB        19.6830   23.1470   25.5670 C.3   170  PRO170      0.0268
     71  CG        18.2400   23.4400   25.3570 C.3   170  PRO170      0.0207
     72  CD        17.8260   22.7610   24.0790 C.3   170  PRO170      0.0892
     73  N         21.0910   20.1420   29.6420 N.3   172  SER172     -0.1217
     74  CA        21.6250   20.7770   30.8380 C.3   172  SER172      0.1889
     75  C         20.7570   20.3510   32.0070 C.2   172  SER172      0.2288
     76  O         19.5930   19.9780   31.8110 O.2   172  SER172     -0.2866
     77  CB        21.6690   22.3160   30.7090 C.3   172  SER172      0.2089
     78  OG        20.4240   22.8850   30.3070 O.3   172  SER172     -0.2183
     79  N         22.2480   27.5930   34.8890 N.3   196  THR196     -0.1203
     80  CA        22.0150   27.3770   33.4620 C.3   196  THR196      0.1994
     81  C         21.0840   28.4680   32.9480 C.2   196  THR196      0.2618
     82  O         20.5530   29.2650   33.7200 O.2   196  THR196     -0.2717
     83  CB        21.3670   26.0120   33.2050 C.3   196  THR196      0.1784
     84  OG1       19.9980   26.0700   33.6550 O.3   196  THR196     -0.2211
     85  CG2       22.0920   24.8520   33.9040 C.3   196  THR196      0.0376
     86  N         20.8540   28.5260   31.6360 N.am  197  VAL197     -0.1965
     87  CA        19.9590   29.5480   31.1030 C.3   197  VAL197      0.1727
     88  C         18.4870   29.3450   31.4570 C.2   197  VAL197      0.2616
     89  O         17.6340   30.1730   31.1130 O.2   197  VAL197     -0.2715
     90  CB        20.1230   29.6830   29.5740 C.3   197  VAL197      0.0290
     91  CG1       21.5430   30.1100   29.2390 C.3   197  VAL197      0.0023
     92  CG2       19.6960   28.3970   28.8600 C.3   197  VAL197      0.0023
     93  N         18.1400   28.2650   32.1240 N.am  198  GLY198     -0.1955
     94  CA        16.7470   28.0430   32.4420 C.3   198  GLY198      0.1869
     95  C         16.5790   27.3850   33.7870 C.2   198  GLY198      0.2309
     96  O         17.4420   26.6420   34.2570 O.2   198  GLY198     -0.2863
     97  N         14.4120   25.2010   34.0830 N.3   200  ASP200     -0.1225
     98  CA        14.1330   23.8380   33.6700 C.3   200  ASP200      0.1805
     99  C         15.3790   23.1860   33.0920 C.2   200  ASP200      0.2598
    100  O         16.3050   23.8540   32.6060 O.2   200  ASP200     -0.2718
    101  CB        12.9910   23.8270   32.6430 C.3   200  ASP200      0.1424
    102  CG        11.6280   23.8380   33.3010 C.2   200  ASP200      0.3668
    103  OD1       11.3020   22.8650   34.0190 O.co2 200  ASP200     -0.2456
    104  OD2       10.8980   24.8340   33.1360 O.co2 200  ASP200     -0.2456
    105  N         15.3800   21.8580   33.1520 N.am  201  ALA201     -0.1966
    106  CA        16.3580   21.0880   32.3950 C.3   201  ALA201      0.1728
    107  C         16.2960   21.4540   30.9160 C.2   201  ALA201      0.2616
    108  O         15.2500   21.8480   30.3910 O.2   201  ALA201     -0.2715
    109  CB        16.0770   19.5980   32.5820 C.3   201  ALA201      0.0334
    110  N         17.4350   21.3250   30.2180 N.am  202  GLY202     -0.1955
    111  CA        17.4490   21.6830   28.8090 C.3   202  GLY202      0.1869
    112  C         16.4300   20.8910   28.0070 C.2   202  GLY202      0.2309
    113  O         15.8290   21.4100   27.0620 O.2   202  GLY202     -0.2863
    114  N          8.2300   22.1510   30.5150 N.3   211  TYR211     -0.1241
    115  CA         8.9080   23.2030   31.2640 C.3   211  TYR211      0.1605
    116  C          8.2790   23.3040   32.6550 C.2   211  TYR211      0.2264
    117  O          7.7290   24.3500   33.0190 O.2   211  TYR211     -0.2867
    118  CB         8.8530   24.5300   30.5210 C.3   211  TYR211      0.0534
    119  CG         9.6360   24.4670   29.2290 C.ar  211  TYR211     -0.0201
    120  CD1       10.9930   24.1770   29.2440 C.ar  211  TYR211     -0.0009
    121  CD2        9.0170   24.6760   28.0070 C.ar  211  TYR211     -0.0009
    122  CE1       11.7320   24.1050   28.0670 C.ar  211  TYR211      0.0417
    123  CE2        9.7360   24.6240   26.8240 C.ar  211  TYR211      0.0417
    124  CZ        11.0920   24.3390   26.8610 C.ar  211  TYR211      0.1957
    125  OH        11.8130   24.2830   25.6820 O.3   211  TYR211     -0.2866
    126  N          9.0850   26.2790   35.1080 N.3   214  HIS214     -0.1241
    127  CA         8.4180   27.5250   34.7340 C.3   214  HIS214      0.1621
    128  C          6.9120   27.4400   34.9700 C.2   214  HIS214      0.2264
    129  O          6.2960   28.3440   35.5590 O.2   214  HIS214     -0.2867
    130  CB         8.6920   27.8260   33.2630 C.3   214  HIS214      0.0745
    131  CG        10.0600   28.3640   33.0020 C.ar  214  HIS214      0.0817
    132  ND1       11.1540   27.5490   32.7880 N.ar  214  HIS214     -0.2268
    133  CD2       10.5110   29.6350   32.9100 C.ar  214  HIS214      0.1154
    134  CE1       12.2240   28.2980   32.5780 C.ar  214  HIS214      0.1986
    135  NE2       11.8570   29.5680   32.6410 N.ar  214  HIS214     -0.2212
    136  N         18.1990   32.5480   36.9350 N.3   226  GLN226     -0.1245
    137  CA        18.9550   31.8040   35.9320 C.3   226  GLN226      0.1566
    138  C         20.3210   32.4420   35.7390 C.2   226  GLN226      0.2260
    139  O         20.5120   33.6290   36.0190 O.2   226  GLN226     -0.2867
    140  CB        18.2340   31.7700   34.5710 C.3   226  GLN226      0.0367
    141  CG        16.8170   31.2450   34.6140 C.3   226  GLN226      0.0905
    142  CD        15.8040   32.3050   34.2800 C.2   226  GLN226      0.2608
    143  OE1       15.1680   32.2650   33.2140 O.2   226  GLN226     -0.2717
    144  NE2       15.6590   33.2870   35.1710 N.am  226  GLN226     -0.0878
@<TRIPOS>BOND
     1    19    18    2
     2    14    13    1
     3    18    17    1
     4    15    13    1
     5    17    16    1
     6    17    20    1
     7    13    10    1
     8    16    11   am
     9    20    21    1
    10    10    11    1
    11    10     9    1
    12    11    12    2
    13    21    22    1
    14    21    23    1
    15    65    63    1
    16     4     3    2
    17     9     3   am
    18    66    72    1
    19    66    67    1
    20    72    71    1
    21     3     2    1
    22    63    62    1
    23    63    64    1
    24    67    70    1
    25    67    68    1
    26    62    59    1
    27    71    70    1
    28   125   124    1
    29    68    69    2
    30     2     1    1
    31     2     5    1
    32    60    61    2
    33    60    59    1
    34    59    58    1
    35     6     5    1
    36     6     8    1
    37     7     5    1
    38   123   124   ar
    39   123   121   ar
    40   124   122   ar
    41   113   112    2
    42   112   111    1
    43   121   119   ar
    44   122   120   ar
    45   111   110    1
    46    92    90    1
    47   119   120   ar
    48   119   118    1
    49    91    90    1
    50    57    55   ar
    51    57    56   ar
    52    90    87    1
    53    27    26    2
    54    73    74    1
    55    55    53   ar
    56    28    25    1
    57    28    29    1
    58    26    25    1
    59    24    25    1
    60    42    40   ar
    61    42    43   ar
    62    56    54   ar
    63    31    29   ar
    64    31    33   ar
    65   110   107   am
    66    78    77    1
    67    29    30   ar
    68   108   107    2
    69   114   115    1
    70   118   115    1
    71    37    36    2
    72    53    52   ar
    73    53    51   ar
    74    40    39   ar
    75    77    74    1
    76    43    41   ar
    77    74    75    1
    78    54    51   ar
    79   107   106    1
    80    33    32   ar
    81    52    50   ar
    82    87    88    1
    83    87    86    1
    84    89    88    2
    85    51    49   ar
    86   115   116    1
    87    30    32   ar
    88    88    93   am
    89    86    81   am
    90    36    35    1
    91    36    44   am
    92    76    75    2
    93    39    41   ar
    94    39    38    1
    95    50    49   ar
    96    46    45    1
    97    46    47    2
    98    45    44    1
    99    45    48    1
   100    49    48    1
   101    93    94    1
   102    35    38    1
   103    35    34    1
   104   106   109    1
   105   106   105    1
   106    94    95    1
   107   134   135   ar
   108   134   132   ar
   109   100    99    2
   110   135   133   ar
   111   101   102    1
   112   101    98    1
   113   116   117    2
   114   132   131   ar
   115   133   131   ar
   116    81    80    1
   117    81    82    2
   118   131   130    1
   119    99   105   am
   120    99    98    1
   121   104   102   ar
   122    83    80    1
   123    83    84    1
   124    83    85    1
   125   143   142    2
   126   130   127    1
   127   102   103   ar
   128    80    79    1
   129    98    97    1
   130    95    96    2
   131   142   141    1
   132   142   144   am
   133   140   141    1
   134   140   137    1
   135   127   128    1
   136   127   126    1
   137   128   129    2
   138   138   137    1
   139   138   139    2
   140   137   136    1
