@<TRIPOS>MOLECULE
tmp/5nnbA00.pdb
 110 107 0 0 0
SMALL
GASTEIGER

@<TRIPOS>ATOM
      1  N        -17.6640  -31.9100  -22.8300 N.3    31  ILE31      -0.1245
      2  CA       -18.4530  -30.8950  -22.1360 C.3    31  ILE31       0.1561
      3  C        -18.5320  -31.2230  -20.6420 C.2    31  ILE31       0.2260
      4  O        -18.6120  -32.3950  -20.2470 O.2    31  ILE31      -0.2867
      5  CB       -19.8620  -30.7460  -22.7410 C.3    31  ILE31       0.0252
      6  CG1      -20.5640  -29.5360  -22.1250 C.3    31  ILE31       0.0019
      7  CG2      -20.6860  -32.0560  -22.5970 C.3    31  ILE31       0.0019
      8  CD1      -21.7850  -29.1080  -22.8540 C.3    31  ILE31       0.0001
      9  N        -20.6780  -30.4200  -17.1140 N.3    33  LEU33      -0.1245
     10  CA       -21.9490  -29.9000  -16.5870 C.3    33  LEU33       0.1561
     11  C        -21.8620  -29.6870  -15.0820 C.2    33  LEU33       0.2260
     12  O        -20.9230  -30.1750  -14.4480 O.2    33  LEU33      -0.2867
     13  CB       -23.0970  -30.8720  -16.9240 C.3    33  LEU33       0.0270
     14  CG       -23.2990  -31.1090  -18.4260 C.3    33  LEU33       0.0019
     15  CD1      -24.4320  -32.0960  -18.6410 C.3    33  LEU33       0.0001
     16  CD2      -23.5800  -29.7920  -19.1450 C.3    33  LEU33       0.0001
     17  N        -21.5380  -38.1670  -27.0830 N.3    68  HIS68      -0.1241
     18  CA       -21.1750  -36.7470  -27.2690 C.3    68  HIS68       0.1621
     19  C        -19.7020  -36.4600  -26.9210 C.2    68  HIS68       0.2264
     20  O        -19.3330  -35.3700  -26.4780 O.2    68  HIS68      -0.2867
     21  CB       -22.1660  -35.8630  -26.4750 C.3    68  HIS68       0.0745
     22  CG       -23.5730  -36.0390  -26.9380 C.ar   68  HIS68       0.0817
     23  ND1      -24.1990  -35.1590  -27.7950 N.ar   68  HIS68      -0.2268
     24  CD2      -24.4510  -37.0610  -26.7480 C.ar   68  HIS68       0.1154
     25  CE1      -25.4130  -35.5990  -28.0710 C.ar   68  HIS68       0.1986
     26  NE2      -25.5820  -36.7620  -27.4570 N.ar   68  HIS68      -0.2212
     27  N        -18.3470  -34.6300  -32.8100 N.3    72  HIS72      -0.1241
     28  CA       -19.5390  -35.4490  -32.7950 C.3    72  HIS72       0.1621
     29  C        -20.7790  -34.7100  -33.2710 C.2    72  HIS72       0.2264
     30  O        -20.8090  -33.4740  -33.4060 O.2    72  HIS72      -0.2867
     31  CB       -19.7760  -36.0390  -31.3920 C.3    72  HIS72       0.0745
     32  CG       -20.2730  -35.0580  -30.3720 C.ar   72  HIS72       0.0817
     33  ND1      -19.4350  -34.2590  -29.6220 N.ar   72  HIS72      -0.2268
     34  CD2      -21.5350  -34.7680  -29.9600 C.ar   72  HIS72       0.1154
     35  CE1      -20.1580  -33.5220  -28.7890 C.ar   72  HIS72       0.1986
     36  NE2      -21.4310  -33.8160  -28.9760 N.ar   72  HIS72      -0.2212
     37  N        -25.0080  -34.2550  -33.0100 N.3    74  ASP74      -0.1239
     38  CA       -26.1530  -34.2910  -32.0830 C.3    74  ASP74       0.1674
     39  C        -27.4540  -34.4740  -32.8480 C.2    74  ASP74       0.2266
     40  O        -27.7610  -33.7310  -33.7780 O.2    74  ASP74      -0.2867
     41  CB       -26.2000  -33.0140  -31.2140 C.3    74  ASP74       0.1410
     42  CG       -25.1170  -33.0080  -30.1520 C.2    74  ASP74       0.3668
     43  OD1      -24.1270  -33.7230  -30.3290 O.co2  74  ASP74      -0.2456
     44  OD2      -25.2480  -32.3260  -29.1320 O.co2  74  ASP74      -0.2456
     45  N        -31.5580  -35.8390  -28.5400 N.3    78  HIS78      -0.1226
     46  CA       -30.6620  -35.4180  -27.4820 C.3    78  HIS78       0.1752
     47  C        -31.3390  -34.4350  -26.5110 C.2    78  HIS78       0.2596
     48  O        -30.9980  -34.3900  -25.3470 O.2    78  HIS78      -0.2718
     49  CB       -29.4140  -34.7770  -28.0820 C.3    78  HIS78       0.0759
     50  CG       -28.4290  -34.2910  -27.0740 C.ar   78  HIS78       0.0818
     51  ND1      -28.1990  -34.9350  -25.8750 N.ar   78  HIS78      -0.2268
     52  CD2      -27.5940  -33.2190  -27.0900 C.ar   78  HIS78       0.1154
     53  CE1      -27.2680  -34.2900  -25.2000 C.ar   78  HIS78       0.1986
     54  NE2      -26.8830  -33.2450  -25.9190 N.ar   78  HIS78      -0.2212
     55  N        -32.2760  -33.6410  -26.9980 N.am   79  TRP79      -0.1976
     56  CA       -32.8880  -32.6440  -26.1250 C.3    79  TRP79       0.1640
     57  C        -34.3360  -32.9900  -25.8750 C.2    79  TRP79       0.2290
     58  O        -34.9860  -33.5830  -26.7220 O.2    79  TRP79      -0.2864
     59  CB       -32.7790  -31.2300  -26.7150 C.3    79  TRP79       0.0576
     60  CG       -32.5500  -30.2060  -25.6340 C.ar   79  TRP79       0.0006
     61  CD1      -33.4630  -29.3160  -25.1290 C.ar   79  TRP79       0.0946
     62  CD2      -31.3470  -30.0120  -24.8840 C.ar   79  TRP79       0.0152
     63  NE1      -32.8880  -28.5610  -24.1330 N.ar   79  TRP79      -0.2442
     64  CE2      -31.5920  -28.9680  -23.9610 C.ar   79  TRP79       0.0810
     65  CE3      -30.0740  -30.5970  -24.9220 C.ar   79  TRP79       0.0012
     66  CZ2      -30.6200  -28.5140  -23.0740 C.ar   79  TRP79       0.0191
     67  CZ3      -29.1070  -30.1380  -24.0510 C.ar   79  TRP79       0.0001
     68  CH2      -29.3840  -29.1020  -23.1370 C.ar   79  TRP79       0.0015
     69  N        -16.7650  -26.9990  -27.6780 N.3   189  VAL189     -0.1231
     70  CA       -17.2880  -28.2860  -27.1940 C.3   189  VAL189      0.1692
     71  C        -18.7900  -28.4320  -27.4010 C.2   189  VAL189      0.2592
     72  O        -19.3080  -29.5480  -27.5110 O.2   189  VAL189     -0.2718
     73  CB       -17.0180  -28.5040  -25.7050 C.3   189  VAL189      0.0266
     74  CG1      -15.5490  -28.7140  -25.4720 C.3   189  VAL189      0.0020
     75  CG2      -17.5580  -27.3380  -24.8770 C.3   189  VAL189      0.0020
     76  N        -19.4850  -27.3050  -27.4780 N.am  190  GLY190     -0.1957
     77  CA       -20.9180  -27.3230  -27.6590 C.3   190  GLY190      0.1869
     78  C        -21.4160  -26.4920  -28.8230 C.2   190  GLY190      0.2309
     79  O        -20.7070  -25.5890  -29.3400 O.2   190  GLY190     -0.2863
     80  N        -29.6360  -23.1430  -23.0580 N.3   203  TYR203     -0.1241
     81  CA       -29.0160  -23.8720  -24.1460 C.3   203  TYR203      0.1605
     82  C        -29.8810  -23.8170  -25.4020 C.2   203  TYR203      0.2264
     83  O        -30.3670  -24.8570  -25.8700 O.2   203  TYR203     -0.2867
     84  CB       -28.7900  -25.3220  -23.7270 C.3   203  TYR203      0.0534
     85  CG       -27.9700  -25.4810  -22.4750 C.ar  203  TYR203     -0.0201
     86  CD1      -26.5950  -25.3530  -22.5030 C.ar  203  TYR203     -0.0009
     87  CD2      -28.5780  -25.7500  -21.2580 C.ar  203  TYR203     -0.0009
     88  CE1      -25.8410  -25.4990  -21.3550 C.ar  203  TYR203      0.0417
     89  CE2      -27.8310  -25.9090  -20.1070 C.ar  203  TYR203      0.0417
     90  CZ       -26.4600  -25.7820  -20.1680 C.ar  203  TYR203      0.1957
     91  OH       -25.7070  -25.9350  -19.0300 O.3   203  TYR203     -0.2866
     92  N        -29.4750  -26.1120  -28.6370 N.3   206  HIS206     -0.1241
     93  CA       -30.0460  -27.4430  -28.4440 C.3   206  HIS206      0.1621
     94  C        -31.5690  -27.4060  -28.4110 C.2   206  HIS206      0.2264
     95  O        -32.2410  -28.1250  -29.1460 O.2   206  HIS206     -0.2867
     96  CB       -29.5230  -28.0700  -27.1560 C.3   206  HIS206      0.0745
     97  CG       -28.0780  -28.4350  -27.2080 C.ar  206  HIS206      0.0817
     98  ND1      -27.0810  -27.5790  -26.7880 N.ar  206  HIS206     -0.2268
     99  CD2      -27.4520  -29.5460  -27.6640 C.ar  206  HIS206      0.1154
    100  CE1      -25.9090  -28.1610  -26.9530 C.ar  206  HIS206      0.1986
    101  NE2      -26.1050  -29.3510  -27.4960 N.ar  206  HIS206     -0.2212
    102  N        -20.2190  -30.5980  -33.2180 N.3   218  GLN218     -0.1245
    103  CA       -19.3700  -29.9490  -32.2210 C.3   218  GLN218      0.1566
    104  C        -17.9260  -30.3550  -32.3900 C.2   218  GLN218      0.2260
    105  O        -17.6430  -31.4180  -32.9580 O.2   218  GLN218     -0.2867
    106  CB       -19.8260  -30.3030  -30.7950 C.3   218  GLN218      0.0367
    107  CG       -21.2460  -29.9130  -30.4720 C.3   218  GLN218      0.0905
    108  CD       -22.1670  -31.1070  -30.3060 C.2   218  GLN218      0.2608
    109  OE1      -22.7150  -31.3300  -29.2150 O.2   218  GLN218     -0.2717
    110  NE2      -22.3590  -31.8770  -31.3930 N.am  218  GLN218     -0.0878
@<TRIPOS>BOND
     1    40    39    2
     2    30    29    2
     3    29    28    1
     4   102   103    1
     5    37    38    1
     6   105   104    2
     7    39    38    1
     8    27    28    1
     9    28    31    1
    10   104   103    1
    11   103   106    1
    12    38    41    1
    13   110   108   am
    14    31    32    1
    15    41    42    1
    16   106   107    1
    17   107   108    1
    18    32    34   ar
    19    32    33   ar
    20    43    42   ar
    21   108   109    2
    22    42    44   ar
    23    34    36   ar
    24    33    35   ar
    25    79    78    2
    26    95    94    2
    27    36    35   ar
    28    78    77    1
    29    92    93    1
    30    45    46    1
    31    93    94    1
    32    93    96    1
    33    49    46    1
    34    49    50    1
    35    25    23   ar
    36    25    26   ar
    37    23    22   ar
    38    69    70    1
    39    99   101   ar
    40    99    97   ar
    41    77    76    1
    42    72    71    2
    43   101   100   ar
    44    46    47    1
    45    76    71   am
    46    26    24   ar
    47    71    70    1
    48    18    17    1
    49    18    19    1
    50    18    21    1
    51    97    96    1
    52    97    98   ar
    53    70    73    1
    54    52    50   ar
    55    52    54   ar
    56    50    51   ar
    57    55    47   am
    58    55    56    1
    59   100    98   ar
    60    22    24   ar
    61    22    21    1
    62    19    20    2
    63    58    57    2
    64    59    56    1
    65    59    60    1
    66    47    48    2
    67    56    57    1
    68    54    53   ar
    69    51    53   ar
    70    83    82    2
    71    73    74    1
    72    73    75    1
    73    60    61   ar
    74    60    62   ar
    75    82    81    1
    76    61    63   ar
    77    65    62   ar
    78    65    67   ar
    79    62    64   ar
    80    81    84    1
    81    81    80    1
    82    63    64   ar
    83    67    68   ar
    84    64    66   ar
    85    84    85    1
    86    68    66   ar
    87     8     6    1
    88     1     2    1
    89     5     7    1
    90     5     2    1
    91     5     6    1
    92    86    85   ar
    93    86    88   ar
    94    85    87   ar
    95     2     3    1
    96    88    90   ar
    97    87    89   ar
    98     3     4    2
    99    90    89   ar
   100    90    91    1
   101    16    14    1
   102    15    14    1
   103    14    13    1
   104     9    10    1
   105    13    10    1
   106    10    11    1
   107    11    12    2
