@<TRIPOS>MOLECULE
tmp/5nnjC02.pdb
 93 86 0 0 0
SMALL
GASTEIGER

@<TRIPOS>ATOM
      1  N        112.0440  205.5920   89.5430 N.3    11  ASN11      -0.1240
      2  CA       113.4330  205.1750   89.4850 C.3    11  ASN11       0.1653
      3  C        113.9610  204.7450   90.8470 C.2    11  ASN11       0.2266
      4  O        115.1790  204.6250   91.0210 O.2    11  ASN11      -0.2867
      5  CB       114.2680  206.3000   88.8840 C.3    11  ASN11       0.1155
      6  CG       113.8380  206.6300   87.4720 C.2    11  ASN11       0.2627
      7  OD1      114.3310  206.0420   86.5070 O.2    11  ASN11      -0.2716
      8  ND2      112.8980  207.5630   87.3420 N.am   11  ASN11      -0.0877
      9  N        114.3130  201.7620   93.2390 N.3    13  HIS13      -0.1241
     10  CA       114.3270  200.3050   93.3360 C.3    13  HIS13       0.1621
     11  C        114.6760  199.8860   94.7540 C.2    13  HIS13       0.2264
     12  O        115.8040  200.0950   95.2090 O.2    13  HIS13      -0.2867
     13  CB       115.3490  199.7000   92.3830 C.3    13  HIS13       0.0745
     14  CG       115.3290  200.3160   91.0370 C.ar   13  HIS13       0.0817
     15  ND1      114.2400  200.2190   90.2030 N.ar   13  HIS13      -0.2268
     16  CD2      116.2470  201.0620   90.3850 C.ar   13  HIS13       0.1154
     17  CE1      114.4960  200.8650   89.0810 C.ar   13  HIS13       0.1986
     18  NE2      115.7070  201.3870   89.1660 N.ar   13  HIS13      -0.2212
     19  N        129.5100  201.7970   85.7290 N.3    32  SER32      -0.1217
     20  CA       128.3700  201.3910   84.9110 C.3    32  SER32       0.1889
     21  C        128.4290  199.8960   84.5810 C.2    32  SER32       0.2288
     22  O        128.3860  199.4860   83.4180 O.2    32  SER32      -0.2866
     23  CB       128.2820  202.2450   83.6430 C.3    32  SER32       0.2089
     24  OG       128.1350  203.6150   83.9670 O.3    32  SER32      -0.2183
     25  N        121.8560  194.3450   88.2280 N.3    61  ASP61      -0.1225
     26  CA       120.9040  195.2170   87.5640 C.3    61  ASP61       0.1805
     27  C        120.7890  196.5290   88.3190 C.2    61  ASP61       0.2597
     28  O        119.6840  197.0240   88.5640 O.2    61  ASP61      -0.2718
     29  CB       119.5360  194.5440   87.4370 C.3    61  ASP61       0.1424
     30  CG       119.1320  193.8220   88.6960 C.2    61  ASP61       0.3668
     31  OD1      119.8870  193.8830   89.6880 O.co2  61  ASP61      -0.2456
     32  OD2      118.0610  193.1870   88.6900 O.co2  61  ASP61      -0.2456
     33  N        121.9280  197.1060   88.7020 N.am   62  TYR62      -0.1976
     34  CA       121.9490  198.4010   89.3660 C.3    62  TYR62       0.1639
     35  C        120.9550  198.4410   90.5260 C.2    62  TYR62       0.2290
     36  O        120.0150  199.2400   90.5450 O.2    62  TYR62      -0.2864
     37  CB       121.6460  199.5210   88.3760 C.3    62  TYR62       0.0560
     38  CG       122.5980  199.5970   87.2170 C.ar   62  TYR62      -0.0198
     39  CD1      123.8080  200.2510   87.3420 C.ar   62  TYR62      -0.0009
     40  CD2      122.2820  199.0290   85.9970 C.ar   62  TYR62      -0.0009
     41  CE1      124.6780  200.3430   86.2920 C.ar   62  TYR62       0.0417
     42  CE2      123.1480  199.1100   84.9390 C.ar   62  TYR62       0.0417
     43  CZ       124.3470  199.7660   85.0960 C.ar   62  TYR62       0.1957
     44  OH       125.2240  199.8580   84.0550 O.3    62  TYR62      -0.2866
     45  N        127.4350  205.4210   92.4620 N.3   480  GLU480     -0.1245
     46  CA       127.9800  204.7490   91.2940 C.3   480  GLU480      0.1567
     47  C        129.2500  205.4730   90.8580 C.2   480  GLU480      0.2260
     48  O        129.2650  206.7100   90.7990 O.2   480  GLU480     -0.2867
     49  CB       126.9560  204.7120   90.1450 C.3   480  GLU480      0.0388
     50  CG       127.3370  203.7870   88.9710 C.3   480  GLU480      0.1160
     51  CD       126.5020  204.0290   87.7240 C.2   480  GLU480      0.3649
     52  OE1      125.7130  205.0000   87.7040 O.co2 480  GLU480     -0.2457
     53  OE2      126.6400  203.2430   86.7640 O.co2 480  GLU480     -0.2457
     54  N        124.6070  208.5580   87.6980 N.3   486  MET486     -0.1230
     55  CA       123.3430  209.0920   88.1650 C.3   486  MET486      0.1702
     56  C        122.7080  208.1950   89.1990 C.2   486  MET486      0.2592
     57  O        121.7200  208.6020   89.8070 O.2   486  MET486     -0.2718
     58  CB       122.3680  209.2910   86.9920 C.3   486  MET486      0.0401
     59  CG       122.8710  210.2160   85.8940 C.3   486  MET486      0.0596
     60  SD       121.8970  210.1280   84.3720 S.3   486  MET486     -0.1393
     61  CE       122.7670  211.2830   83.3200 C.3   486  MET486      0.0692
     62  N        123.2440  207.0010   89.4310 N.am  487  ASN487     -0.1974
     63  CA       122.6400  206.0480   90.3520 C.3   487  ASN487      0.1688
     64  C        123.3460  206.1010   91.6970 C.2   487  ASN487      0.2292
     65  O        124.5790  206.0420   91.7650 O.2   487  ASN487     -0.2864
     66  CB       122.7010  204.6250   89.8210 C.3   487  ASN487      0.1181
     67  CG       122.2450  204.5190   88.4010 C.2   487  ASN487      0.2629
     68  OD1      121.7390  205.4700   87.8090 O.2   487  ASN487     -0.2716
     69  ND2      122.4200  203.3290   87.8410 N.am  487  ASN487     -0.0877
     70  N        117.8770  202.0680   95.7360 N.3   503  THR503     -0.1218
     71  CA       118.7030  202.5950   94.6510 C.3   503  THR503      0.1862
     72  C        117.8970  203.6610   93.9260 C.2   503  THR503      0.2287
     73  O        116.9350  203.3450   93.2180 O.2   503  THR503     -0.2866
     74  CB       119.1320  201.5000   93.6790 C.3   503  THR503      0.1770
     75  OG1      119.8890  200.5170   94.3850 O.3   503  THR503     -0.2211
     76  CG2      119.9850  202.0950   92.5930 C.3   503  THR503      0.0375
     77  N        117.6090  206.6680   91.1640 N.3   505  ASP505     -0.1239
     78  CA       118.1740  207.0680   89.8920 C.3   505  ASP505      0.1674
     79  C        117.5900  208.4010   89.4600 C.2   505  ASP505      0.2266
     80  O        116.3660  208.5510   89.3600 O.2   505  ASP505     -0.2867
     81  CB       117.9160  206.0070   88.8380 C.3   505  ASP505      0.1410
     82  CG       118.5070  206.3780   87.5120 C.2   505  ASP505      0.3668
     83  OD1      119.5970  206.9820   87.4870 O.co2 505  ASP505     -0.2456
     84  OD2      117.8870  206.0630   86.4840 O.co2 505  ASP505     -0.2456
     85  N        117.7950  209.7340   86.5280 N.3   507  LYS507     -0.1245
     86  CA       117.7540  209.7800   85.0710 C.3   507  LYS507      0.1561
     87  C        116.6090  210.6640   84.5990 C.2   507  LYS507      0.2260
     88  O        116.8000  211.5430   83.7540 O.2   507  LYS507     -0.2867
     89  CB       117.6260  208.3580   84.5100 C.3   507  LYS507      0.0271
     90  CG       117.1990  208.2630   83.0380 C.3   507  LYS507      0.0035
     91  CD       116.7740  206.8280   82.6200 C.3   507  LYS507      0.0206
     92  CE       115.4860  206.3560   83.3070 C.3   507  LYS507      0.1093
     93  NZ       115.0850  204.9730   82.9170 N.3   507  LYS507     -0.1314
@<TRIPOS>BOND
     1    91    90    1
     2    91    92    1
     3    93    92    1
     4    90    89    1
     5    61    60    1
     6    22    21    2
     7    23    24    1
     8    23    20    1
     9    88    87    2
    10    44    43    1
    11    60    59    1
    12    89    86    1
    13    21    20    1
    14    87    86    1
    15    20    19    1
    16    42    43   ar
    17    42    40   ar
    18    86    85    1
    19    43    41   ar
    20    59    58    1
    21    40    38   ar
    22    41    39   ar
    23    84    82   ar
    24     7     6    2
    25    53    51   ar
    26    58    55    1
    27    38    39   ar
    28    38    37    1
    29     8     6   am
    30    29    26    1
    31    29    30    1
    32     6     5    1
    33    83    82   ar
    34    82    81    1
    35    26    25    1
    36    26    27    1
    37    54    55    1
    38    52    51   ar
    39    51    50    1
    40    68    67    2
    41    69    67   am
    42    55    56    1
    43    27    28    2
    44    27    33   am
    45    37    34    1
    46    67    66    1
    47    32    30   ar
    48    30    31   ar
    49    33    34    1
    50    81    78    1
    51     5     2    1
    52    50    49    1
    53    17    18   ar
    54    17    15   ar
    55    18    16   ar
    56    56    62   am
    57    56    57    2
    58    80    79    2
    59    34    35    1
    60    62    63    1
    61    79    78    1
    62     2     1    1
    63     2     3    1
    64    66    63    1
    65    78    77    1
    66    49    46    1
    67    15    14   ar
    68    63    64    1
    69    16    14   ar
    70    35    36    2
    71    48    47    2
    72     3     4    2
    73    47    46    1
    74    14    13    1
    75    46    45    1
    76    64    65    2
    77    13    10    1
    78    76    74    1
    79    73    72    2
    80     9    10    1
    81    10    11    1
    82    74    75    1
    83    74    71    1
    84    72    71    1
    85    71    70    1
    86    11    12    2
