@<TRIPOS>MOLECULE
tmp/5nnoB01.pdb
 146 141 0 0 0
SMALL
GASTEIGER

@<TRIPOS>ATOM
      1  N        102.0310   26.7020  157.7970 N.3    69  VAL69      -0.1231
      2  CA       102.5650   25.3830  157.4190 C.3    69  VAL69       0.1692
      3  C        101.5390   24.5010  156.6850 C.2    69  VAL69       0.2591
      4  O        101.8880   23.8800  155.6940 O.2    69  VAL69      -0.2718
      5  CB       103.1480   24.6200  158.6680 C.3    69  VAL69       0.0266
      6  CG1      103.4870   23.1730  158.3430 C.3    69  VAL69       0.0020
      7  CG2      104.3960   25.3150  159.1690 C.3    69  VAL69       0.0020
      8  N        100.3000   24.4380  157.1820 N.am   70  MET70      -0.1979
      9  CA        99.2770   23.4960  156.6610 C.3    70  MET70       0.1605
     10  C         98.4630   23.9750  155.4360 C.2    70  MET70       0.2287
     11  O         97.8970   23.1460  154.7280 O.2    70  MET70      -0.2864
     12  CB        98.2790   23.1280  157.7750 C.3    70  MET70       0.0413
     13  CG        98.8890   22.5210  159.0310 C.3    70  MET70       0.0598
     14  SD        99.4210   20.8160  158.8520 S.3    70  MET70      -0.1393
     15  CE        97.8290   19.9850  158.8510 C.3    70  MET70       0.0692
     16  N        101.6170   25.5040  151.3890 N.3    74  PRO74      -0.2116
     17  CA       101.2120   24.5020  150.3770 C.3    74  PRO74       0.1372
     18  C        100.4440   25.0740  149.1620 C.2    74  PRO74       0.2244
     19  O        100.6270   24.5740  148.0360 O.2    74  PRO74      -0.2868
     20  CB       100.3180   23.5410  151.1790 C.3    74  PRO74       0.0268
     21  CG       100.8640   23.6290  152.5710 C.3    74  PRO74       0.0207
     22  CD       101.2750   25.0640  152.7550 C.3    74  PRO74       0.0892
     23  N         87.5740   22.0170  157.7920 N.3   123  ASN123     -0.1225
     24  CA        88.7710   21.8440  158.6890 C.3   123  ASN123      0.1785
     25  C         90.0850   22.5380  158.2760 C.2   123  ASN123      0.2597
     26  O         90.9310   22.9150  159.1400 O.2   123  ASN123     -0.2718
     27  CB        89.0300   20.3630  159.0060 C.3   123  ASN123      0.1169
     28  CG        89.3380   19.5360  157.7910 C.2   123  ASN123      0.2627
     29  OD1       88.8560   19.8210  156.6930 O.2   123  ASN123     -0.2716
     30  ND2       90.1510   18.4960  157.9790 N.am  123  ASN123     -0.0877
     31  N         90.2610   22.6750  156.9650 N.am  124  TYR124     -0.1976
     32  CA        91.2990   23.4900  156.3620 C.3   124  TYR124      0.1639
     33  C         90.5950   24.2470  155.2500 C.2   124  TYR124      0.2290
     34  O         90.6790   23.8580  154.0870 O.2   124  TYR124     -0.2864
     35  CB        92.4410   22.6140  155.8600 C.3   124  TYR124      0.0560
     36  CG        93.1170   21.8670  156.9710 C.ar  124  TYR124     -0.0198
     37  CD1       94.1590   22.4450  157.7010 C.ar  124  TYR124     -0.0009
     38  CD2       92.6880   20.6060  157.3500 C.ar  124  TYR124     -0.0009
     39  CE1       94.7710   21.7630  158.7540 C.ar  124  TYR124      0.0417
     40  CE2       93.3060   19.9160  158.4000 C.ar  124  TYR124      0.0417
     41  CZ        94.3400   20.5040  159.0970 C.ar  124  TYR124      0.1957
     42  OH        94.9360   19.8210  160.1180 O.3   124  TYR124     -0.2866
     43  N         92.8730   26.1130  151.9810 N.3   127  LEU127     -0.1231
     44  CA        93.5620   25.0370  151.2770 C.3   127  LEU127      0.1693
     45  C         92.6360   24.1070  150.4920 C.2   127  LEU127      0.2591
     46  O         92.9320   23.7530  149.3480 O.2   127  LEU127     -0.2718
     47  CB        94.3540   24.1910  152.2860 C.3   127  LEU127      0.0284
     48  CG        94.9760   22.8790  151.7770 C.3   127  LEU127      0.0019
     49  CD1       96.3870   23.0750  151.2660 C.3   127  LEU127      0.0001
     50  CD2       94.9710   21.7990  152.8350 C.3   127  LEU127      0.0001
     51  N         91.5340   23.6830  151.1070 N.am  128  LEU128     -0.1980
     52  CA        90.6700   22.6640  150.5020 C.3   128  LEU128      0.1596
     53  C         89.5510   23.2250  149.5930 C.2   128  LEU128      0.2287
     54  O         88.6870   22.4710  149.1460 O.2   128  LEU128     -0.2864
     55  CB        90.1010   21.7490  151.6060 C.3   128  LEU128      0.0297
     56  CG        91.1340   20.9150  152.3800 C.3   128  LEU128      0.0022
     57  CD1       90.4440   20.0360  153.4060 C.3   128  LEU128      0.0001
     58  CD2       91.9560   20.0280  151.4590 C.3   128  LEU128      0.0001
     59  N         93.1030   24.9750  146.4930 N.3   131  GLN131     -0.1245
     60  CA        94.0230   24.0120  145.8410 C.3   131  GLN131      0.1566
     61  C         93.3770   23.2280  144.6620 C.2   131  GLN131      0.2260
     62  O         94.0330   22.9850  143.6320 O.2   131  GLN131     -0.2867
     63  CB        94.6210   23.0590  146.8790 C.3   131  GLN131      0.0367
     64  CG        95.7090   22.1450  146.3680 C.3   131  GLN131      0.0905
     65  CD        96.4040   21.3870  147.4860 C.2   131  GLN131      0.2608
     66  OE1       97.5160   20.9200  147.3110 O.2   131  GLN131     -0.2717
     67  NE2       95.7520   21.2620  148.6420 N.am  131  GLN131     -0.0878
     68  N        102.1870   15.0030  166.9860 N.3   244  TRP244     -0.1241
     69  CA       102.0530   16.1780  166.1010 C.3   244  TRP244      0.1605
     70  C        100.8700   16.0230  165.1380 C.2   244  TRP244      0.2264
     71  O        100.0190   16.9160  165.0250 O.2   244  TRP244     -0.2867
     72  CB       103.3370   16.4090  165.2930 C.3   244  TRP244      0.0550
     73  CG       103.1560   17.4400  164.2040 C.ar  244  TRP244      0.0003
     74  CD1      103.0130   18.7820  164.3740 C.ar  244  TRP244      0.0946
     75  CD2      103.0400   17.2030  162.7870 C.ar  244  TRP244      0.0152
     76  NE1      102.8290   19.3980  163.1630 N.ar  244  TRP244     -0.2442
     77  CE2      102.8350   18.4530  162.1750 C.ar  244  TRP244      0.0810
     78  CE3      103.0870   16.0550  161.9820 C.ar  244  TRP244      0.0012
     79  CZ2      102.7130   18.5960  160.7900 C.ar  244  TRP244      0.0191
     80  CZ3      102.9610   16.2060  160.5980 C.ar  244  TRP244      0.0001
     81  CH2      102.7750   17.4610  160.0230 C.ar  244  TRP244      0.0015
     82  N         91.4820   16.1220  160.9890 N.3   253  THR253     -0.1203
     83  CA        92.3100   16.0220  159.8080 C.3   253  THR253      0.1994
     84  C         92.1100   14.6010  159.2640 C.2   253  THR253      0.2619
     85  O         92.1940   13.6250  160.0240 O.2   253  THR253     -0.2717
     86  CB        93.7980   16.2430  160.1630 C.3   253  THR253      0.1784
     87  OG1       93.9530   17.4770  160.8940 O.3   253  THR253     -0.2211
     88  CG2       94.6460   16.2880  158.9320 C.3   253  THR253      0.0376
     89  N         91.8760   14.4830  157.9520 N.am  254  SER254     -0.1937
     90  CA        91.4610   13.2270  157.3520 C.3   254  SER254      0.2055
     91  C         92.5740   12.2030  157.2340 C.2   254  SER254      0.2642
     92  O         92.3260   10.9790  157.2630 O.2   254  SER254     -0.2714
     93  CB        90.8340   13.4850  155.9810 C.3   254  SER254      0.2130
     94  OG        91.8010   13.8060  154.9860 O.3   254  SER254     -0.2179
     95  N         93.7920   12.7110  157.0950 N.am  255  ILE255     -0.1977
     96  CA        95.0010   11.8960  157.1780 C.3   255  ILE255      0.1596
     97  C         95.6680   11.7740  158.5690 C.2   255  ILE255      0.2287
     98  O         96.7830   11.2390  158.6330 O.2   255  ILE255     -0.2864
     99  CB        96.0500   12.3900  156.1590 C.3   255  ILE255      0.0276
    100  CG1       96.4530   13.8650  156.4270 C.3   255  ILE255      0.0022
    101  CG2       95.5470   12.1290  154.7350 C.3   255  ILE255      0.0022
    102  CD1       97.4180   14.4350  155.4130 C.3   255  ILE255      0.0001
    103  N        101.1220   12.3190  157.7580 N.3   418  VAL418     -0.1231
    104  CA       100.5200   13.5540  157.2350 C.3   418  VAL418      0.1692
    105  C        101.3050   14.1650  156.0850 C.2   418  VAL418      0.2591
    106  O        100.7180   14.4760  155.0630 O.2   418  VAL418     -0.2718
    107  CB       100.2160   14.5900  158.3710 C.3   418  VAL418      0.0266
    108  CG1       99.5360   15.8440  157.8390 C.3   418  VAL418      0.0020
    109  CG2       99.3130   13.9590  159.4170 C.3   418  VAL418      0.0020
    110  N        102.6200   14.3260  156.2400 N.am  419  VAL419     -0.1980
    111  CA       103.4670   15.0790  155.2740 C.3   419  VAL419      0.1595
    112  C        103.4440   14.6660  153.8130 C.2   419  VAL419      0.2287
    113  O        103.8250   15.4720  152.9560 O.2   419  VAL419     -0.2864
    114  CB       104.9500   15.1050  155.6760 C.3   419  VAL419      0.0276
    115  CG1      105.1350   15.9320  156.9450 C.3   419  VAL419      0.0022
    116  CG2      105.5030   13.6890  155.7870 C.3   419  VAL419      0.0022
    117  N        100.9410   14.3460  152.0570 N.3   421  ALA421     -0.1231
    118  CA        99.9300   15.2380  151.5130 C.3   421  ALA421      0.1694
    119  C        100.4670   16.5590  150.9480 C.2   421  ALA421      0.2592
    120  O         99.8750   17.1350  150.0230 O.2   421  ALA421     -0.2718
    121  CB        98.8650   15.4980  152.5690 C.3   421  ALA421      0.0304
    122  N        101.5660   17.0390  151.5170 N.am  422  GLY422     -0.1957
    123  CA       102.2300   18.2600  151.0560 C.3   422  GLY422      0.1869
    124  C        103.3430   17.9910  150.0460 C.2   422  GLY422      0.2309
    125  O        103.9500   18.9340  149.5580 O.2   422  GLY422     -0.2863
    126  N         97.1870   12.8390  145.4740 N.3   428  PHE428     -0.1241
    127  CA        96.5200   12.7980  146.7550 C.3   428  PHE428      0.1605
    128  C         95.0970   12.4210  146.4920 C.2   428  PHE428      0.2264
    129  O         94.4110   13.0930  145.7380 O.2   428  PHE428     -0.2867
    130  CB        96.5760   14.1360  147.5150 C.3   428  PHE428      0.0534
    131  CG        96.0760   14.0200  148.9290 C.ar  428  PHE428     -0.0203
    132  CD1       96.8650   13.4270  149.9020 C.ar  428  PHE428     -0.0042
    133  CD2       94.7990   14.4600  149.2820 C.ar  428  PHE428     -0.0042
    134  CE1       96.3970   13.2730  151.1930 C.ar  428  PHE428     -0.0003
    135  CE2       94.3230   14.3130  150.5800 C.ar  428  PHE428     -0.0003
    136  CZ        95.1220   13.7110  151.5260 C.ar  428  PHE428     -0.0000
    137  N         96.4510   17.4190  143.1090 N.3   440  HIS440     -0.1241
    138  CA        97.7640   18.0410  143.3870 C.3   440  HIS440      0.1621
    139  C         98.6470   18.0620  142.1340 C.2   440  HIS440      0.2264
    140  O         98.9450   17.0170  141.5840 O.2   440  HIS440     -0.2867
    141  CB        98.5530   17.4320  144.5540 C.3   440  HIS440      0.0745
    142  CG        97.8960   17.5920  145.8920 C.ar  440  HIS440      0.0817
    143  ND1       96.5820   17.9740  146.0440 N.ar  440  HIS440     -0.2268
    144  CD2       98.3720   17.3730  147.1400 C.ar  440  HIS440      0.1154
    145  CE1       96.2820   17.9980  147.3300 C.ar  440  HIS440      0.1986
    146  NE2       97.3540   17.6440  148.0200 N.ar  440  HIS440     -0.2212
@<TRIPOS>BOND
     1   140   139    2
     2   139   138    1
     3   137   138    1
     4   138   141    1
     5    62    61    2
     6   141   142    1
     7    61    60    1
     8   126   127    1
     9   129   128    2
    10    60    59    1
    11    60    63    1
    12   142   143   ar
    13   142   144   ar
    14   143   145   ar
    15    64    63    1
    16    64    65    1
    17   128   127    1
    18   127   130    1
    19   144   146   ar
    20    66    65    2
    21   145   146   ar
    22    65    67   am
    23   130   131    1
    24    19    18    2
    25   131   133   ar
    26   131   132   ar
    27    54    53    2
    28    18    17    1
    29   133   135   ar
    30    46    45    2
    31   125   124    2
    32    53    52    1
    33   132   134   ar
    34   120   119    2
    35   124   123    1
    36    17    20    1
    37    17    16    1
    38    45    51   am
    39    45    44    1
    40    52    51    1
    41    52    55    1
    42   135   136   ar
    43   119   118    1
    44   119   122   am
    45   123   122    1
    46    20    21    1
    47   134   136   ar
    48    49    48    1
    49    44    43    1
    50    44    47    1
    51    16    22    1
    52    58    56    1
    53   118   117    1
    54   118   121    1
    55    55    56    1
    56    48    47    1
    57    48    50    1
    58    56    57    1
    59    21    22    1
    60   113   112    2
    61   112   111    1
    62    34    33    2
    63    11    10    2
    64   101    99    1
    65    94    93    1
    66   106   105    2
    67    33    32    1
    68   111   114    1
    69   111   110    1
    70   102   100    1
    71    10     9    1
    72   114   116    1
    73   114   115    1
    74     4     3    2
    75    35    32    1
    76    35    36    1
    77    93    90    1
    78   105   110   am
    79   105   104    1
    80    99   100    1
    81    99    96    1
    82    32    31    1
    83     9     8    1
    84     9    12    1
    85     3     8   am
    86     3     2    1
    87    29    28    2
    88    31    25   am
    89    36    38   ar
    90    36    37   ar
    91    95    96    1
    92    95    91   am
    93    96    97    1
    94    91    92    2
    95    91    90    1
    96   104   103    1
    97   104   107    1
    98    38    40   ar
    99    90    89    1
   100     2     1    1
   101     2     5    1
   102    37    39   ar
   103    12    13    1
   104    28    30   am
   105    28    27    1
   106    23    24    1
   107   108   107    1
   108    89    84   am
   109    25    24    1
   110    25    26    2
   111     6     5    1
   112   107   109    1
   113    40    41   ar
   114    97    98    2
   115     5     7    1
   116    24    27    1
   117    39    41   ar
   118    15    14    1
   119    14    13    1
   120    88    86    1
   121    41    42    1
   122    84    83    1
   123    84    85    2
   124    83    86    1
   125    83    82    1
   126    81    80   ar
   127    81    79   ar
   128    86    87    1
   129    80    78   ar
   130    79    77   ar
   131    78    75   ar
   132    77    75   ar
   133    77    76   ar
   134    75    73   ar
   135    76    74   ar
   136    73    74   ar
   137    73    72    1
   138    71    70    2
   139    70    69    1
   140    72    69    1
   141    69    68    1
