@<TRIPOS>MOLECULE
tmp/5nnpB01.pdb
 236 232 0 0 0
SMALL
GASTEIGER

@<TRIPOS>ATOM
      1  N          7.5830   10.6720  -23.0390 N.3    20  ASN20      -0.1225
      2  CA         8.2630    9.3970  -23.2850 C.3    20  ASN20       0.1785
      3  C          7.7420    8.1570  -22.5210 C.2    20  ASN20       0.2597
      4  O          8.1040    7.0340  -22.8410 O.2    20  ASN20      -0.2718
      5  CB         9.7660    9.5580  -22.9830 C.3    20  ASN20       0.1169
      6  CG        10.4470   10.5680  -23.8970 C.2    20  ASN20       0.2627
      7  OD1       10.8650   10.2370  -25.0040 O.2    20  ASN20      -0.2716
      8  ND2       10.5620   11.8050  -23.4330 N.am   20  ASN20      -0.0877
      9  N          6.9150    8.3520  -21.5040 N.am   21  LEU21      -0.1980
     10  CA         6.5000    7.2310  -20.6700 C.3    21  LEU21       0.1596
     11  C          5.0070    7.3010  -20.3730 C.2    21  LEU21       0.2287
     12  O          4.4590    8.3920  -20.1890 O.2    21  LEU21      -0.2864
     13  CB         7.2840    7.2100  -19.3640 C.3    21  LEU21       0.0297
     14  CG         8.6430    6.5180  -19.2840 C.3    21  LEU21       0.0022
     15  CD1        9.2820    6.8400  -17.9440 C.3    21  LEU21       0.0001
     16  CD2        8.5340    5.0030  -19.4640 C.3    21  LEU21       0.0001
     17  N         14.7400    2.6740   -8.7020 N.3    81  ILE81      -0.1231
     18  CA        14.6130    3.6410   -9.7810 C.3    81  ILE81       0.1692
     19  C         13.1410    3.9100  -10.0350 C.2    81  ILE81       0.2593
     20  O         12.4240    3.0340  -10.4890 O.2    81  ILE81      -0.2718
     21  CB        15.2520    3.1490  -11.0930 C.3    81  ILE81       0.0266
     22  CG1       16.7310    2.7920  -10.9040 C.3    81  ILE81       0.0019
     23  CG2       15.0370    4.1860  -12.2130 C.3    81  ILE81       0.0020
     24  CD1       17.5670    3.8950  -10.3400 C.3    81  ILE81       0.0001
     25  N         12.6910    5.1250   -9.7590 N.am   82  THR82      -0.1939
     26  CA        11.2840    5.4640   -9.9390 C.3    82  THR82       0.2028
     27  C         10.9410    5.6330  -11.4080 C.2    82  THR82       0.2643
     28  O          9.9040    5.1730  -11.8590 O.2    82  THR82      -0.2714
     29  CB        10.9140    6.7500   -9.1870 C.3    82  THR82       0.1808
     30  OG1       11.1450    6.5520   -7.7880 O.3    82  THR82      -0.2208
     31  CG2        9.4260    7.1060   -9.4140 C.3    82  THR82       0.0379
     32  N         11.8220    6.2920  -12.1460 N.am   83  SER83      -0.1935
     33  CA        11.5640    6.6130  -13.5360 C.3    83  SER83       0.2055
     34  C         12.8560    6.9180  -14.2770 C.2    83  SER83       0.2643
     35  O         13.7690    7.5210  -13.7260 O.2    83  SER83      -0.2714
     36  CB        10.6070    7.8010  -13.6410 C.3    83  SER83       0.2130
     37  OG        10.2440    8.0270  -14.9890 O.3    83  SER83      -0.2179
     38  N         12.9240    6.4770  -15.5250 N.am   84  LEU84      -0.1963
     39  CA        14.0680    6.7340  -16.3900 C.3    84  LEU84       0.1728
     40  C         13.5930    6.8690  -17.8390 C.2    84  LEU84       0.2617
     41  O         12.9100    5.9900  -18.3510 O.2    84  LEU84      -0.2715
     42  CB        15.0950    5.6090  -16.2590 C.3    84  LEU84       0.0311
     43  CG        16.3330    5.5820  -17.1580 C.3    84  LEU84       0.0022
     44  CD1       17.3140    6.6850  -16.8040 C.3    84  LEU84       0.0001
     45  CD2       17.0090    4.2220  -17.0580 C.3    84  LEU84       0.0001
     46  N         13.9240    7.9800  -18.4920 N.am   85  SER85      -0.1936
     47  CA        13.6780    8.0830  -19.9280 C.3    85  SER85       0.2055
     48  C         14.5810    9.0870  -20.6170 C.2    85  SER85       0.2642
     49  O         15.1260   10.0000  -19.9920 O.2    85  SER85      -0.2714
     50  CB        12.2220    8.4290  -20.2100 C.3    85  SER85       0.2130
     51  OG        11.8480    9.6440  -19.6190 O.3    85  SER85      -0.2179
     52  N         14.7530    8.8670  -21.9170 N.am   86  VAL86      -0.1977
     53  CA        15.4890    9.7550  -22.8050 C.3    86  VAL86       0.1596
     54  C         14.5970   10.0760  -24.0030 C.2    86  VAL86       0.2287
     55  O         13.9930    9.1630  -24.5870 O.2    86  VAL86      -0.2864
     56  CB        16.7970    9.1000  -23.2790 C.3    86  VAL86       0.0276
     57  CG1       17.5880   10.0280  -24.2120 C.3    86  VAL86       0.0022
     58  CG2       17.6380    8.6590  -22.0750 C.3    86  VAL86       0.0022
     59  N         17.1930   11.5230  -28.8060 N.3    90  HIS90      -0.1226
     60  CA        18.4900   11.4950  -28.1610 C.3    90  HIS90       0.1752
     61  C         18.8750   10.1060  -27.6490 C.2    90  HIS90       0.2596
     62  O         19.7640    9.9790  -26.7980 O.2    90  HIS90      -0.2718
     63  CB        18.5100   12.5080  -27.0060 C.3    90  HIS90       0.0759
     64  CG        18.5400   13.9350  -27.4540 C.ar   90  HIS90       0.0818
     65  ND1       17.4910   14.5290  -28.1280 N.ar   90  HIS90      -0.2268
     66  CD2       19.5070   14.8770  -27.3560 C.ar   90  HIS90       0.1154
     67  CE1       17.8090   15.7800  -28.4100 C.ar   90  HIS90       0.1986
     68  NE2       19.0240   16.0170  -27.9470 N.ar   90  HIS90      -0.2212
     69  N         18.2230    9.0670  -28.1660 N.am   91  ARG91      -0.1966
     70  CA        18.4790    7.7180  -27.6740 C.3    91  ARG91       0.1729
     71  C         19.6840    7.1500  -28.3980 C.2    91  ARG91       0.2616
     72  O         20.0530    7.6240  -29.4750 O.2    91  ARG91      -0.2715
     73  CB        17.2480    6.8170  -27.8460 C.3    91  ARG91       0.0348
     74  CG        16.1670    7.0840  -26.8020 C.3    91  ARG91       0.0492
     75  CD        14.7890    6.5330  -27.1840 C.3    91  ARG91       0.2205
     76  NE        13.7180    7.2100  -26.4420 N.pl3  91  ARG91      -0.0865
     77  CZ        12.4160    6.9600  -26.5900 C.cat  91  ARG91       0.5346
     78  NH1       11.9980    6.0340  -27.4360 N.pl3  91  ARG91       0.1354
     79  NH2       11.5210    7.6380  -25.8830 N.pl3  91  ARG91       0.1354
     80  N         20.3080    6.1560  -27.7820 N.am   92  ARG92      -0.1977
     81  CA        21.4930    5.5150  -28.3370 C.3    92  ARG92       0.1597
     82  C         22.7290    6.4380  -28.4230 C.2    92  ARG92       0.2287
     83  O         23.5710    6.3020  -29.3100 O.2    92  ARG92      -0.2864
     84  CB        21.1420    4.9160  -29.6910 C.3    92  ARG92       0.0334
     85  CG        20.3200    3.6410  -29.5200 C.3    92  ARG92       0.0492
     86  CD        19.7310    3.1000  -30.8310 C.3    92  ARG92       0.2205
     87  NE        20.7440    2.6060  -31.7650 N.pl3  92  ARG92      -0.0865
     88  CZ        20.4670    2.1740  -32.9930 C.cat  92  ARG92       0.5346
     89  NH1       21.4380    1.7430  -33.7900 N.pl3  92  ARG92       0.1354
     90  NH2       19.2090    2.1800  -33.4210 N.pl3  92  ARG92       0.1354
     91  N         24.1840    6.6920  -25.2560 N.3    94  GLY94      -0.1210
     92  CA        24.7270    6.2350  -23.9920 C.3    94  GLY94       0.1956
     93  C         24.1990    6.9700  -22.7660 C.2    94  GLY94       0.2612
     94  O         24.6660    6.7270  -21.6510 O.2    94  GLY94      -0.2717
     95  N         23.2140    7.8450  -22.9540 N.am   95  ILE95      -0.1965
     96  CA        22.7570    8.7050  -21.8620 C.3    95  ILE95       0.1727
     97  C         22.1780    7.9190  -20.6760 C.2    95  ILE95       0.2616
     98  O         22.5850    8.1370  -19.5350 O.2    95  ILE95      -0.2715
     99  CB        21.6970    9.7360  -22.3350 C.3    95  ILE95       0.0290
    100  CG1       22.2820   10.6260  -23.4340 C.3    95  ILE95       0.0022
    101  CG2       21.2120   10.5990  -21.1580 C.3    95  ILE95       0.0023
    102  CD1       21.3660   11.7140  -23.9110 C.3    95  ILE95       0.0001
    103  N         21.2220    7.0310  -20.9330 N.am   96  ALA96      -0.1963
    104  CA        20.6260    6.2720  -19.8430 C.3    96  ALA96       0.1728
    105  C         21.7010    5.5180  -19.0510 C.2    96  ALA96       0.2616
    106  O         21.6280    5.4400  -17.8340 O.2    96  ALA96      -0.2715
    107  CB        19.5790    5.3100  -20.3630 C.3    96  ALA96       0.0334
    108  N         22.7030    4.9700  -19.7330 N.am   97  GLU97      -0.1977
    109  CA        23.7810    4.2860  -19.0190 C.3    97  GLU97       0.1602
    110  C         24.5170    5.2170  -18.0390 C.2    97  GLU97       0.2287
    111  O         24.7220    4.8700  -16.8730 O.2    97  GLU97      -0.2864
    112  CB        24.7770    3.6850  -20.0110 C.3    97  GLU97       0.0415
    113  CG        25.8480    2.8410  -19.3480 C.3    97  GLU97       0.1163
    114  CD        27.0100    2.5220  -20.2580 C.2    97  GLU97       0.3649
    115  OE1       27.0340    3.0360  -21.3910 O.co2  97  GLU97      -0.2457
    116  OE2       27.9090    1.7630  -19.8390 O.co2  97  GLU97      -0.2457
    117  N         14.1960   -2.1450   -9.7990 N.3   118  LEU118     -0.1231
    118  CA        13.3310   -1.4080  -10.6910 C.3   118  LEU118      0.1693
    119  C         12.3310   -2.3190  -11.3770 C.2   118  LEU118      0.2592
    120  O         12.4780   -3.5290  -11.3860 O.2   118  LEU118     -0.2718
    121  CB        14.1690   -0.6660  -11.7270 C.3   118  LEU118      0.0284
    122  CG        15.0770   -1.4310  -12.6930 C.3   118  LEU118      0.0019
    123  CD1       14.2660   -2.1530  -13.7780 C.3   118  LEU118      0.0001
    124  CD2       16.0870   -0.4810  -13.3310 C.3   118  LEU118      0.0001
    125  N         11.3060   -1.7180  -11.9570 N.am  119  HIS119     -0.1962
    126  CA        10.3550   -2.4420  -12.7850 C.3   119  HIS119      0.1787
    127  C         10.4650   -1.9690  -14.2410 C.2   119  HIS119      0.2620
    128  O         10.6970   -0.7960  -14.5000 O.2   119  HIS119     -0.2715
    129  CB         8.9430   -2.2390  -12.2550 C.3   119  HIS119      0.0785
    130  CG         8.7160   -2.8460  -10.9090 C.ar  119  HIS119      0.0821
    131  ND1        8.9690   -2.1690   -9.7350 N.ar  119  HIS119     -0.2267
    132  CD2        8.2670   -4.0730  -10.5490 C.ar  119  HIS119      0.1154
    133  CE1        8.6810   -2.9520   -8.7100 C.ar  119  HIS119      0.1986
    134  NE2        8.2510   -4.1110   -9.1770 N.ar  119  HIS119     -0.2212
    135  N         10.3100   -2.8980  -15.1730 N.am  120  VAL120     -0.1963
    136  CA        10.3180   -2.6230  -16.5990 C.3   120  VAL120      0.1727
    137  C          9.2870   -3.5220  -17.3110 C.2   120  VAL120      0.2616
    138  O          9.1440   -4.6960  -16.9720 O.2   120  VAL120     -0.2715
    139  CB        11.7190   -2.8560  -17.2020 C.3   120  VAL120      0.0290
    140  CG1       12.2220   -4.2590  -16.8690 C.3   120  VAL120      0.0023
    141  CG2       11.6960   -2.6290  -18.7010 C.3   120  VAL120      0.0023
    142  N          8.5590   -2.9650  -18.2770 N.am  121  ARG121     -0.1977
    143  CA         7.6280   -3.7460  -19.0960 C.3   121  ARG121      0.1597
    144  C          8.3350   -4.9310  -19.7260 C.2   121  ARG121      0.2287
    145  O          9.4720   -4.7880  -20.1830 O.2   121  ARG121     -0.2864
    146  CB         7.0050   -2.8770  -20.2000 C.3   121  ARG121      0.0334
    147  CG         6.1420   -1.7660  -19.6670 C.3   121  ARG121      0.0492
    148  CD         5.4820   -0.9720  -20.7640 C.3   121  ARG121      0.2205
    149  NE         4.6100    0.0570  -20.1980 N.pl3 121  ARG121     -0.0865
    150  CZ         3.2800   -0.0020  -20.1590 C.cat 121  ARG121      0.5346
    151  NH1        2.6240   -1.0380  -20.6730 N.pl3 121  ARG121      0.1354
    152  NH2        2.6050    0.9950  -19.6160 N.pl3 121  ARG121      0.1354
    153  N          9.6670   -4.4140  -23.2000 N.3   124  ASN124     -0.1225
    154  CA        10.5530   -3.2700  -23.4080 C.3   124  ASN124      0.1785
    155  C         11.9890   -3.6790  -23.7180 C.2   124  ASN124      0.2597
    156  O         12.8720   -3.5420  -22.8720 O.2   124  ASN124     -0.2718
    157  CB        10.5190   -2.3600  -22.1830 C.3   124  ASN124      0.1169
    158  CG        11.1030   -0.9720  -22.4500 C.2   124  ASN124      0.2627
    159  OD1       11.7840   -0.7430  -23.4550 O.2   124  ASN124     -0.2716
    160  ND2       10.8550   -0.0380  -21.5140 N.am  124  ASN124     -0.0877
    161  N         12.2140   -4.1700  -24.9370 N.am  125  LYS125     -0.1966
    162  CA        13.5310   -4.6660  -25.3500 C.3   125  LYS125      0.1728
    163  C         14.6330   -3.6780  -25.0210 C.2   125  LYS125      0.2616
    164  O         15.5680   -4.0240  -24.3050 O.2   125  LYS125     -0.2715
    165  CB        13.5630   -4.9860  -26.8480 C.3   125  LYS125      0.0311
    166  CG        12.5880   -6.0820  -27.2700 C.3   125  LYS125      0.0038
    167  CD        12.9480   -6.7320  -28.6150 C.3   125  LYS125      0.0206
    168  CE        11.6970   -7.2820  -29.2940 C.3   125  LYS125      0.1093
    169  NZ        10.7760   -7.9340  -28.3160 N.3   125  LYS125     -0.1314
    170  N         14.5070   -2.4510  -25.5230 N.am  126  ALA126     -0.1963
    171  CA        15.5370   -1.4240  -25.3490 C.3   126  ALA126      0.1728
    172  C         15.9590   -1.2790  -23.8880 C.2   126  ALA126      0.2616
    173  O         17.1390   -1.3590  -23.5700 O.2   126  ALA126     -0.2715
    174  CB        15.0480   -0.0920  -25.8870 C.3   126  ALA126      0.0334
    175  N         14.9870   -1.0900  -23.0010 N.am  127  ALA127     -0.1977
    176  CA        15.2690   -0.9510  -21.5760 C.3   127  ALA127      0.1597
    177  C         15.8840   -2.2270  -20.9750 C.2   127  ALA127      0.2287
    178  O         16.8390   -2.1530  -20.2120 O.2   127  ALA127     -0.2864
    179  CB        13.9940   -0.5770  -20.8310 C.3   127  ALA127      0.0319
    180  N         17.6970   -4.5260  -22.3490 N.3   129  HIS129     -0.1226
    181  CA        19.0790   -4.7310  -22.7400 C.3   129  HIS129      0.1752
    182  C         19.9970   -3.7600  -22.0150 C.2   129  HIS129      0.2596
    183  O         21.1430   -4.0940  -21.7150 O.2   129  HIS129     -0.2718
    184  CB        19.2380   -4.6130  -24.2550 C.3   129  HIS129      0.0759
    185  CG        18.8680   -5.8690  -24.9900 C.ar  129  HIS129      0.0818
    186  ND1       19.8000   -6.6670  -25.6220 N.ar  129  HIS129     -0.2268
    187  CD2       17.6710   -6.4790  -25.1670 C.ar  129  HIS129      0.1154
    188  CE1       19.1910   -7.7020  -26.1720 C.ar  129  HIS129      0.1986
    189  NE2       17.9000   -7.6120  -25.9100 N.ar  129  HIS129     -0.2212
    190  N         19.4950   -2.5650  -21.7200 N.am  130  LEU130     -0.1966
    191  CA        20.2820   -1.6240  -20.9370 C.3   130  LEU130      0.1728
    192  C         20.5800   -2.2060  -19.5630 C.2   130  LEU130      0.2616
    193  O         21.7390   -2.2600  -19.1500 O.2   130  LEU130     -0.2715
    194  CB        19.5590   -0.2910  -20.7950 C.3   130  LEU130      0.0311
    195  CG        20.0300    0.6500  -19.6820 C.3   130  LEU130      0.0022
    196  CD1       21.3310    1.3430  -20.0260 C.3   130  LEU130      0.0001
    197  CD2       18.9420    1.6740  -19.3350 C.3   130  LEU130      0.0001
    198  N         19.5360   -2.6650  -18.8720 N.am  131  TYR131     -0.1974
    199  CA        19.6760   -3.1430  -17.4930 C.3   131  TYR131      0.1639
    200  C         20.4020   -4.4740  -17.3830 C.2   131  TYR131      0.2290
    201  O         21.2610   -4.6540  -16.5190 O.2   131  TYR131     -0.2864
    202  CB        18.3070   -3.2680  -16.8150 C.3   131  TYR131      0.0560
    203  CG        17.5220   -1.9840  -16.8180 C.ar  131  TYR131     -0.0198
    204  CD1       18.1270   -0.7760  -16.4920 C.ar  131  TYR131     -0.0009
    205  CD2       16.1840   -1.9710  -17.1800 C.ar  131  TYR131     -0.0009
    206  CE1       17.4160    0.3960  -16.5110 C.ar  131  TYR131      0.0417
    207  CE2       15.4680   -0.7990  -17.2070 C.ar  131  TYR131      0.0417
    208  CZ        16.0890    0.3760  -16.8720 C.ar  131  TYR131      0.1957
    209  OH        15.3730    1.5440  -16.9030 O.3   131  TYR131     -0.2866
    210  N         22.1950   -6.3110  -20.0250 N.3   133  ASP133     -0.1225
    211  CA        23.4380   -6.4560  -20.7680 C.3   133  ASP133      0.1805
    212  C         24.4930   -5.4140  -20.4750 C.2   133  ASP133      0.2598
    213  O         25.6790   -5.7140  -20.4910 O.2   133  ASP133     -0.2718
    214  CB        23.1300   -6.4580  -22.2510 C.3   133  ASP133      0.1424
    215  CG        22.2080   -7.5870  -22.6380 C.2   133  ASP133      0.3668
    216  OD1       22.4640   -8.7440  -22.2310 O.co2 133  ASP133     -0.2456
    217  OD2       21.2170   -7.3150  -23.3360 O.co2 133  ASP133     -0.2456
    218  N         24.0810   -4.1880  -20.2060 N.am  134  THR134     -0.1953
    219  CA        25.0480   -3.1180  -19.9970 C.3   134  THR134      0.1897
    220  C         25.3240   -2.9030  -18.5040 C.2   134  THR134      0.2313
    221  O         26.4670   -2.6960  -18.1030 O.2   134  THR134     -0.2863
    222  CB        24.5500   -1.7940  -20.6450 C.3   134  THR134      0.1794
    223  OG1       24.3370   -1.9960  -22.0470 O.3   134  THR134     -0.2208
    224  CG2       25.5400   -0.6430  -20.4180 C.3   134  THR134      0.0378
    225  N          1.4420   -2.7190  -14.8030 N.3   147  TYR147     -0.1241
    226  CA         1.1460   -1.4450  -15.4350 C.3   147  TYR147      0.1605
    227  C         -0.3250   -1.2610  -15.7240 C.2   147  TYR147      0.2264
    228  O         -1.0860   -2.2150  -15.8320 O.2   147  TYR147     -0.2867
    229  CB         1.9640   -1.2860  -16.7130 C.3   147  TYR147      0.0534
    230  CG         3.4350   -1.1630  -16.4090 C.ar  147  TYR147     -0.0201
    231  CD1        3.9540    0.0080  -15.9000 C.ar  147  TYR147     -0.0009
    232  CD2        4.2990   -2.2310  -16.5980 C.ar  147  TYR147     -0.0009
    233  CE1        5.2900    0.1200  -15.6090 C.ar  147  TYR147      0.0417
    234  CE2        5.6310   -2.1270  -16.3140 C.ar  147  TYR147      0.0417
    235  CZ         6.1260   -0.9510  -15.8190 C.ar  147  TYR147      0.1957
    236  OH         7.4620   -0.8400  -15.5230 O.3   147  TYR147     -0.2866
@<TRIPOS>BOND
     1    89    88    1
     2    90    88    1
     3    88    87    2
     4    87    86    1
     5    86    85    1
     6    84    85    1
     7    84    81    1
     8    72    71    2
     9    83    82    2
    10   168   167    1
    11   168   169    1
    12    59    60    1
    13   167   166    1
    14    82    81    1
    15    67    65   ar
    16    67    68   ar
    17    71    80   am
    18    71    70    1
    19    81    80    1
    20    69    70    1
    21    69    61   am
    22    60    61    1
    23    60    63    1
    24    65    64   ar
    25    68    66   ar
    26    73    70    1
    27    73    74    1
    28    61    62    2
    29    64    66   ar
    30    64    63    1
    31    78    77    1
    32   166   165    1
    33    75    74    1
    34    75    76    1
    35   165   162    1
    36    77    76    2
    37    77    79    1
    38   188   189   ar
    39   188   186   ar
    40   189   187   ar
    41   174   171    1
    42   186   185   ar
    43   170   171    1
    44   170   163   am
    45   162   163    1
    46   162   161    1
    47   171   172    1
    48    91    92    1
    49   187   185   ar
    50   163   164    2
    51     7     6    2
    52   185   184    1
    53   161   155   am
    54    55    54    2
    55   184   181    1
    56    57    56    1
    57    54    53    1
    58    92    93    1
    59   102   100    1
    60     6     8   am
    61     6     5    1
    62   172   173    2
    63   172   175   am
    64   155   154    1
    65   155   156    2
    66   159   158    2
    67   100    99    1
    68   154   153    1
    69   154   157    1
    70   217   215   ar
    71     2     1    1
    72     2     5    1
    73     2     3    1
    74    56    53    1
    75    56    58    1
    76   175   176    1
    77    95    93   am
    78    95    96    1
    79     4     3    2
    80    53    52    1
    81    93    94    2
    82   181   180    1
    83   181   182    1
    84   215   214    1
    85   215   216   ar
    86     3     9   am
    87   158   157    1
    88   158   160   am
    89    99    96    1
    90    99   101    1
    91   214   211    1
    92   223   222    1
    93   182   190   am
    94   182   183    2
    95    52    48   am
    96    96    97    1
    97   190   191    1
    98   176   177    1
    99   176   179    1
   100     9    10    1
   101   115   114   ar
   102   177   178    2
   103   191   194    1
   104   191   192    1
   105   103    97   am
   106   103   104    1
   107   194   195    1
   108   211   212    1
   109   211   210    1
   110   148   149    1
   111   148   147    1
   112    97    98    2
   113   151   150    1
   114    10    11    1
   115    10    13    1
   116   222   224    1
   117   222   219    1
   118    48    49    2
   119    48    47    1
   120   213   212    2
   121   212   218   am
   122    11    12    2
   123   107   104    1
   124   114   116   ar
   125   114   113    1
   126    50    47    1
   127    50    51    1
   128   218   219    1
   129   146   147    1
   130   146   143    1
   131   149   150    2
   132   145   144    2
   133   150   152    1
   134   196   195    1
   135   112   113    1
   136   112   109    1
   137   219   220    1
   138    47    46    1
   139   104   105    1
   140   108   105   am
   141   108   109    1
   142   144   143    1
   143   195   197    1
   144   192   193    2
   145   192   198   am
   146    16    14    1
   147    13    14    1
   148    14    15    1
   149   143   142    1
   150   105   106    2
   151   109   110    1
   152   198   199    1
   153   141   139    1
   154   220   221    2
   155    46    40   am
   156    41    40    2
   157   142   137   am
   158   110   111    2
   159    40    39    1
   160   199   200    1
   161   199   202    1
   162   200   201    2
   163   137   138    2
   164   137   136    1
   165   207   205   ar
   166   207   208   ar
   167   139   140    1
   168   139   136    1
   169   205   203   ar
   170    43    45    1
   171    43    44    1
   172    43    42    1
   173   209   208    1
   174   208   206   ar
   175   203   202    1
   176   203   204   ar
   177   229   230    1
   178   229   226    1
   179   136   135    1
   180   232   230   ar
   181   232   234   ar
   182   206   204   ar
   183   230   231   ar
   184    39    42    1
   185    39    38    1
   186   234   235   ar
   187   231   233   ar
   188   228   227    2
   189   235   233   ar
   190   235   236    1
   191   227   226    1
   192    38    34   am
   193   226   225    1
   194   135   127   am
   195    37    36    1
   196   128   127    2
   197    34    35    2
   198    34    33    1
   199   127   126    1
   200   123   122    1
   201    36    33    1
   202    33    32    1
   203   124   122    1
   204   126   129    1
   205   126   125    1
   206   122   121    1
   207   129   130    1
   208    23    21    1
   209    32    27   am
   210   125   119   am
   211    28    27    2
   212   121   118    1
   213    27    26    1
   214   120   119    2
   215   119   118    1
   216    21    22    1
   217    21    18    1
   218   130   132   ar
   219   130   131   ar
   220    22    24    1
   221   118   117    1
   222   132   134   ar
   223    20    19    2
   224    19    18    1
   225    19    25   am
   226    26    25    1
   227    26    29    1
   228    18    17    1
   229   131   133   ar
   230    31    29    1
   231    29    30    1
   232   134   133   ar
