@<TRIPOS>MOLECULE
tmp/5no1A02.pdb
 102 100 0 0 0
SMALL
GASTEIGER

@<TRIPOS>ATOM
      1  N        -41.1700   26.3790  -14.8980 N.3   178  GLN178     -0.1245
      2  CA       -41.1700   24.9230  -14.8590 C.3   178  GLN178      0.1566
      3  C        -39.8370   24.3200  -15.2820 C.2   178  GLN178      0.2260
      4  O        -39.8100   23.2240  -15.8560 O.2   178  GLN178     -0.2867
      5  CB       -42.3200   24.3680  -15.6990 C.3   178  GLN178      0.0367
      6  CG       -43.6920   24.6520  -15.0870 C.3   178  GLN178      0.0905
      7  CD       -44.8170   23.9690  -15.8290 C.2   178  GLN178      0.2608
      8  OE1      -44.6300   22.9060  -16.4240 O.2   178  GLN178     -0.2717
      9  NE2      -45.9980   24.5780  -15.8020 N.am  178  GLN178     -0.0878
     10  N        -46.3130   26.6970  -18.5970 N.3   203  PRO203     -0.2102
     11  CA       -45.1170   26.3510  -19.3720 C.3   203  PRO203      0.1504
     12  C        -44.8450   27.3800  -20.4570 C.2   203  PRO203      0.2575
     13  O        -45.7690   27.9460  -21.0470 O.2   203  PRO203     -0.2718
     14  CB       -45.4580   24.9830  -19.9650 C.3   203  PRO203      0.0282
     15  CG       -46.9460   24.9310  -19.9460 C.3   203  PRO203      0.0208
     16  CD       -47.3710   25.6890  -18.7450 C.3   203  PRO203      0.0893
     17  N        -43.5520   27.6470  -20.6730 N.am  204  TYR204     -0.1977
     18  CA       -43.0520   28.4450  -21.7980 C.3   204  TYR204      0.1639
     19  C        -43.6540   29.8470  -21.8080 C.2   204  TYR204      0.2290
     20  O        -44.0560   30.3740  -22.8460 O.2   204  TYR204     -0.2864
     21  CB       -43.3000   27.7130  -23.1180 C.3   204  TYR204      0.0560
     22  CG       -42.7010   26.3230  -23.1120 C.ar  204  TYR204     -0.0198
     23  CD1      -41.3350   26.1420  -23.2850 C.ar  204  TYR204     -0.0009
     24  CD2      -43.4940   25.1990  -22.9070 C.ar  204  TYR204     -0.0009
     25  CE1      -40.7710   24.8840  -23.2700 C.ar  204  TYR204      0.0417
     26  CE2      -42.9380   23.9320  -22.8860 C.ar  204  TYR204      0.0417
     27  CZ       -41.5700   23.7800  -23.0690 C.ar  204  TYR204      0.1957
     28  OH       -41.0020   22.5230  -23.0590 O.3   204  TYR204     -0.2866
     29  N        -52.5230   24.6030  -28.6310 N.3   317  GLU317     -0.1231
     30  CA       -51.3270   24.9500  -27.8880 C.3   317  GLU317      0.1699
     31  C        -50.1440   25.0620  -28.8320 C.2   317  GLU317      0.2592
     32  O        -50.0160   24.2910  -29.7860 O.2   317  GLU317     -0.2718
     33  CB       -51.0340   23.9050  -26.8130 C.3   317  GLU317      0.0402
     34  CG       -49.9600   24.3090  -25.8300 C.3   317  GLU317      0.1161
     35  CD       -49.6570   23.2250  -24.8050 C.2   317  GLU317      0.3649
     36  OE1      -50.3150   22.1650  -24.8560 O.co2 317  GLU317     -0.2457
     37  OE2      -48.7590   23.4360  -23.9550 O.co2 317  GLU317     -0.2457
     38  N        -49.2820   26.0340  -28.5590 N.am  318  ARG318     -0.1966
     39  CA       -48.0590   26.1850  -29.3250 C.3   318  ARG318      0.1729
     40  C        -47.0970   25.0460  -29.0120 C.2   318  ARG318      0.2616
     41  O        -46.8910   24.6830  -27.8490 O.2   318  ARG318     -0.2715
     42  CB       -47.4120   27.5310  -29.0150 C.3   318  ARG318      0.0348
     43  CG       -46.1830   27.8230  -29.8310 C.3   318  ARG318      0.0492
     44  CD       -45.4670   29.0430  -29.2900 C.3   318  ARG318      0.2205
     45  NE       -46.3740   30.1550  -29.0200 N.pl3 318  ARG318     -0.0865
     46  CZ       -46.7360   31.0610  -29.9250 C.cat 318  ARG318      0.5346
     47  NH1      -46.2800   30.9820  -31.1810 N.pl3 318  ARG318      0.1354
     48  NH2      -47.5620   32.0420  -29.5720 N.pl3 318  ARG318      0.1354
     49  N        -46.5330   24.4650  -30.0700 N.am  319  VAL319     -0.1963
     50  CA       -45.4760   23.4730  -29.9350 C.3   319  VAL319      0.1727
     51  C        -44.2550   24.1210  -29.2920 C.2   319  VAL319      0.2616
     52  O        -43.7910   25.1850  -29.7240 O.2   319  VAL319     -0.2715
     53  CB       -45.1410   22.8720  -31.3110 C.3   319  VAL319      0.0290
     54  CG1      -43.9990   21.8650  -31.2100 C.3   319  VAL319      0.0023
     55  CG2      -46.3710   22.2210  -31.9170 C.3   319  VAL319      0.0023
     56  N        -43.7090   23.4660  -28.2720 N.am  320  ALA320     -0.1963
     57  CA       -42.5950   24.0240  -27.5160 C.3   320  ALA320      0.1728
     58  C        -41.3520   24.1970  -28.3830 C.2   320  ALA320      0.2616
     59  O        -40.9500   25.3260  -28.6840 O.2   320  ALA320     -0.2715
     60  CB       -42.2800   23.1390  -26.3100 C.3   320  ALA320      0.0334
     61  N        -40.7260   23.0950  -28.7770 N.am  321  ARG321     -0.1977
     62  CA       -39.5440   23.1930  -29.6230 C.3   321  ARG321      0.1597
     63  C        -39.8420   22.5980  -30.9920 C.2   321  ARG321      0.2287
     64  O        -39.4950   21.4410  -31.2600 O.2   321  ARG321     -0.2864
     65  CB       -38.3550   22.4870  -28.9740 C.3   321  ARG321      0.0334
     66  CG       -37.8490   23.1520  -27.7050 C.3   321  ARG321      0.0492
     67  CD       -36.6540   22.3870  -27.1590 C.3   321  ARG321      0.2205
     68  NE       -36.0450   23.0480  -26.0110 N.pl3 321  ARG321     -0.0865
     69  CZ       -34.9940   22.5690  -25.3540 C.cat 321  ARG321      0.5346
     70  NH1      -34.4380   21.4220  -25.7320 N.pl3 321  ARG321      0.1354
     71  NH2      -34.4950   23.2330  -24.3190 N.pl3 321  ARG321      0.1354
     72  N        -50.1120   22.5530  -31.9410 N.3   330  HIS330     -0.1241
     73  CA       -50.6660   21.2310  -31.7090 C.3   330  HIS330      0.1621
     74  C        -52.0730   21.1360  -32.3000 C.2   330  HIS330      0.2264
     75  O        -52.7060   22.1410  -32.6360 O.2   330  HIS330     -0.2867
     76  CB       -50.7190   20.9160  -30.2110 C.3   330  HIS330      0.0745
     77  CG       -49.3750   20.7290  -29.5770 C.ar  330  HIS330      0.0817
     78  ND1      -48.5360   19.6830  -29.9000 N.ar  330  HIS330     -0.2268
     79  CD2      -48.7360   21.4420  -28.6180 C.ar  330  HIS330      0.1154
     80  CE1      -47.4340   19.7670  -29.1770 C.ar  330  HIS330      0.1986
     81  NE2      -47.5280   20.8270  -28.3930 N.ar  330  HIS330     -0.2212
     82  N        -53.2400   17.4570  -26.0870 N.3   349  HIS349     -0.1241
     83  CA       -53.1720   16.5960  -27.2630 C.3   349  HIS349      0.1621
     84  C        -52.8300   15.1550  -26.8990 C.2   349  HIS349      0.2264
     85  O        -53.1100   14.2420  -27.6850 O.2   349  HIS349     -0.2867
     86  CB       -52.1550   17.1580  -28.2660 C.3   349  HIS349      0.0745
     87  CG       -50.7510   17.2370  -27.7400 C.ar  349  HIS349      0.0817
     88  ND1      -50.3160   18.2510  -26.9110 N.ar  349  HIS349     -0.2268
     89  CD2      -49.6770   16.4360  -27.9460 C.ar  349  HIS349      0.1154
     90  CE1      -49.0400   18.0640  -26.6190 C.ar  349  HIS349      0.1986
     91  NE2      -48.6280   16.9710  -27.2370 N.ar  349  HIS349     -0.2212
     92  N        -53.8380   20.2730  -18.8030 N.3   354  ARG354     -0.1245
     93  CA       -52.6670   21.1250  -18.9200 C.3   354  ARG354      0.1563
     94  C        -53.0780   22.5630  -18.6630 C.2   354  ARG354      0.2260
     95  O        -54.0760   23.0360  -19.2140 O.2   354  ARG354     -0.2867
     96  CB       -52.0250   20.9740  -20.2990 C.3   354  ARG354      0.0307
     97  CG       -50.5740   21.4140  -20.3630 C.3   354  ARG354      0.0489
     98  CD       -49.9540   20.9420  -21.6680 C.3   354  ARG354      0.2205
     99  NE       -48.6750   21.5850  -21.9430 N.pl3 354  ARG354     -0.0865
    100  CZ       -47.5330   21.2740  -21.3370 C.cat 354  ARG354      0.5346
    101  NH1      -47.5070   20.3340  -20.3990 N.pl3 354  ARG354      0.1354
    102  NH2      -46.4140   21.9080  -21.6650 N.pl3 354  ARG354      0.1354
@<TRIPOS>BOND
     1    75    74    2
     2    74    73    1
     3    72    73    1
     4    55    53    1
     5    73    76    1
     6    53    54    1
     7    53    50    1
     8    64    63    2
     9    47    46    1
    10    63    62    1
    11    76    77    1
    12    49    50    1
    13    49    40   am
    14    50    51    1
    15    46    48    1
    16    46    45    2
    17    78    77   ar
    18    78    80   ar
    19    43    44    1
    20    43    42    1
    21    32    31    2
    22    52    51    2
    23    62    65    1
    24    62    61    1
    25    77    79   ar
    26    39    42    1
    27    39    40    1
    28    39    38    1
    29    51    56   am
    30    44    45    1
    31    80    81   ar
    32    40    41    2
    33    65    66    1
    34    31    38   am
    35    31    30    1
    36    61    58   am
    37    59    58    2
    38    29    30    1
    39    79    81   ar
    40    58    57    1
    41    56    57    1
    42    86    87    1
    43    86    83    1
    44    89    87   ar
    45    89    91   ar
    46    30    33    1
    47    87    88   ar
    48    66    67    1
    49    85    84    2
    50    57    60    1
    51    83    84    1
    52    83    82    1
    53    91    90   ar
    54    67    68    1
    55    88    90   ar
    56    33    34    1
    57    68    69    2
    58    34    35    1
    59    70    69    1
    60    69    71    1
    61    36    35   ar
    62    35    37   ar
    63    23    25   ar
    64    23    22   ar
    65    25    27   ar
    66    21    22    1
    67    21    18    1
    68    22    24   ar
    69    27    28    1
    70    27    26   ar
    71    24    26   ar
    72    20    19    2
    73    99    98    1
    74    99   100    2
    75    19    18    1
    76    18    17    1
    77    98    97    1
    78   102   100    1
    79   100   101    1
    80    13    12    2
    81    17    12   am
    82    12    11    1
    83    97    96    1
    84    96    93    1
    85    14    15    1
    86    14    11    1
    87    15    16    1
    88    11    10    1
    89    95    94    2
    90    93    92    1
    91    93    94    1
    92    16    10    1
    93     8     7    2
    94     4     3    2
    95     7     9   am
    96     7     6    1
    97     5     6    1
    98     5     2    1
    99     3     2    1
   100     1     2    1
