@<TRIPOS>MOLECULE
tmp/5no7A02.pdb
 81 77 0 0 0
SMALL
GASTEIGER

@<TRIPOS>ATOM
      1  N        103.8340   18.9240    2.1030 N.3   132  VAL132     -0.1231
      2  CA       102.5190   18.6740    1.5180 C.3   132  VAL132      0.1692
      3  C        102.0700   17.2480    1.8190 C.2   132  VAL132      0.2592
      4  O        102.8970   16.3430    1.9460 O.2   132  VAL132     -0.2718
      5  CB       102.5610   18.8670   -0.0200 C.3   132  VAL132      0.0266
      6  CG1      101.2340   18.4870   -0.6640 C.3   132  VAL132      0.0020
      7  CG2      102.9310   20.3020   -0.3650 C.3   132  VAL132      0.0020
      8  N        100.7600   17.0670    1.9570 N.am  133  ASN133     -0.1974
      9  CA       100.1650   15.7430    2.0710 C.3   133  ASN133      0.1688
     10  C         98.9550   15.7200    1.1480 C.2   133  ASN133      0.2292
     11  O         97.9560   16.3790    1.4140 O.2   133  ASN133     -0.2864
     12  CB        99.7780   15.4170    3.5140 C.3   133  ASN133      0.1181
     13  CG        99.3960   13.9560    3.6990 C.2   133  ASN133      0.2629
     14  OD1       98.6000   13.4120    2.9320 O.2   133  ASN133     -0.2716
     15  ND2       99.9620   13.3160    4.7240 N.am  133  ASN133     -0.0877
     16  N         96.8120   13.3840    0.4520 N.3   135  THR135     -0.1218
     17  CA        95.6310   12.7010    0.9650 C.3   135  THR135      0.1862
     18  C         95.1650   13.4860    2.1900 C.2   135  THR135      0.2287
     19  O         95.1160   12.9590    3.3070 O.2   135  THR135     -0.2866
     20  CB        95.9390   11.2350    1.3270 C.3   135  THR135      0.1770
     21  OG1       96.7080   10.6340    0.2800 O.3   135  THR135     -0.2211
     22  CG2       94.6520   10.4440    1.5220 C.3   135  THR135      0.0375
     23  N         92.1660   12.0340    7.0710 N.3   139  TYR139     -0.1241
     24  CA        92.5810   11.6010    8.4010 C.3   139  TYR139      0.1605
     25  C         92.7500   12.8260    9.2960 C.2   139  TYR139      0.2264
     26  O         93.2880   13.8440    8.8600 O.2   139  TYR139     -0.2867
     27  CB        93.9160   10.8610    8.3390 C.3   139  TYR139      0.0534
     28  CG        94.0180    9.8110    7.2570 C.ar  139  TYR139     -0.0201
     29  CD1       93.3300    8.6060    7.3590 C.ar  139  TYR139     -0.0009
     30  CD2       94.8320   10.0110    6.1440 C.ar  139  TYR139     -0.0009
     31  CE1       93.4370    7.6370    6.3740 C.ar  139  TYR139      0.0417
     32  CE2       94.9460    9.0500    5.1550 C.ar  139  TYR139      0.0417
     33  CZ        94.2480    7.8650    5.2720 C.ar  139  TYR139      0.1957
     34  OH        94.3590    6.9090    4.2870 O.3   139  TYR139     -0.2866
     35  N         94.6310   12.9030   12.1100 N.3   141  PHE141     -0.1227
     36  CA        96.0630   12.9510   12.3620 C.3   141  PHE141      0.1736
     37  C         96.7820   12.8980   11.0220 C.2   141  PHE141      0.2596
     38  O         97.0940   11.8210   10.5180 O.2   141  PHE141     -0.2718
     39  CB        96.5040   11.7930   13.2560 C.3   141  PHE141      0.0547
     40  CG        95.9530   11.8620   14.6500 C.ar  141  PHE141     -0.0202
     41  CD1       96.5070   12.7210   15.5880 C.ar  141  PHE141     -0.0042
     42  CD2       94.8880   11.0620   15.0290 C.ar  141  PHE141     -0.0042
     43  CE1       96.0050   12.7850   16.8750 C.ar  141  PHE141     -0.0003
     44  CE2       94.3820   11.1190   16.3140 C.ar  141  PHE141     -0.0003
     45  CZ        94.9410   11.9800   17.2400 C.ar  141  PHE141     -0.0000
     46  N         97.0230   14.0720   10.4470 N.am  142  THR142     -0.1939
     47  CA        97.6780   14.1880    9.1500 C.3   142  THR142      0.2028
     48  C         99.1470   14.5450    9.3340 C.2   142  THR142      0.2642
     49  O         99.4720   15.6230    9.8290 O.2   142  THR142     -0.2714
     50  CB        96.9900   15.2560    8.2780 C.3   142  THR142      0.1808
     51  OG1       95.6430   14.8500    7.9960 O.3   142  THR142     -0.2208
     52  CG2       97.7370   15.4500    6.9640 C.3   142  THR142      0.0379
     53  N        100.0270   13.6330    8.9270 N.am  143  ASP143     -0.1971
     54  CA       101.4680   13.8420    9.0380 C.3   143  ASP143      0.1709
     55  C        101.9930   14.7130    7.9030 C.2   143  ASP143      0.2293
     56  O        101.4790   14.6700    6.7850 O.2   143  ASP143     -0.2864
     57  CB       102.2120   12.5000    9.0320 C.3   143  ASP143      0.1436
     58  CG       101.8790   11.6330   10.2390 C.2   143  ASP143      0.3671
     59  OD1      101.0380   12.0400   11.0700 O.co2 143  ASP143     -0.2456
     60  OD2      102.4670   10.5390   10.3540 O.co2 143  ASP143     -0.2456
     61  N        105.7550   15.5700    6.2270 N.3   145  GLN145     -0.1245
     62  CA       107.1820   15.2620    6.1700 C.3   145  GLN145      0.1566
     63  C        107.9650   16.5590    6.0560 C.2   145  GLN145      0.2260
     64  O        107.7020   17.3680    5.1680 O.2   145  GLN145     -0.2867
     65  CB       107.5040   14.3600    4.9750 C.3   145  GLN145      0.0367
     66  CG       106.7040   13.0640    4.9150 C.3   145  GLN145      0.0905
     67  CD       106.8920   12.1900    6.1420 C.2   145  GLN145      0.2608
     68  OE1      107.9940   12.0910    6.6880 O.2   145  GLN145     -0.2717
     69  NE2      105.8160   11.5370    6.5750 N.am  145  GLN145     -0.0878
     70  N        103.8900   14.9790   -3.2910 N.3   254  ASP254     -0.1225
     71  CA       103.4470   14.4410   -2.0140 C.3   254  ASP254      0.1805
     72  C        104.6840   14.3210   -1.1310 C.2   254  ASP254      0.2598
     73  O        105.7350   13.8780   -1.5920 O.2   254  ASP254     -0.2718
     74  CB       102.7770   13.0760   -2.2160 C.3   254  ASP254      0.1424
     75  CG       101.8210   12.7120   -1.0950 C.2   254  ASP254      0.3668
     76  OD1      101.3910   13.6110   -0.3450 O.co2 254  ASP254     -0.2456
     77  OD2      101.4760   11.5170   -0.9790 O.co2 254  ASP254     -0.2456
     78  N        104.5700   14.7500    0.1220 N.am  255  GLY255     -0.1957
     79  CA       105.6900   14.7030    1.0610 C.3   255  GLY255      0.1869
     80  C        106.4280   16.0240    1.1620 C.2   255  GLY255      0.2309
     81  O        105.8820   17.0780    0.8470 O.2   255  GLY255     -0.2863
@<TRIPOS>BOND
     1    70    71    1
     2    74    71    1
     3    74    75    1
     4    71    72    1
     5    73    72    2
     6    72    78   am
     7    75    77   ar
     8    75    76   ar
     9     6     5    1
    10     7     5    1
    11     5     2    1
    12    78    79    1
    13    21    20    1
    14    16    17    1
    15    81    80    2
    16    17    20    1
    17    17    18    1
    18    79    80    1
    19    10    11    2
    20    10     9    1
    21    20    22    1
    22     2     3    1
    23     2     1    1
    24     3     4    2
    25     3     8   am
    26     8     9    1
    27     9    12    1
    28    18    19    2
    29    14    13    2
    30    12    13    1
    31    13    15   am
    32    34    33    1
    33    66    65    1
    34    66    67    1
    35    65    62    1
    36    32    33   ar
    37    32    30   ar
    38    64    63    2
    39    33    31   ar
    40    63    62    1
    41    67    69   am
    42    67    68    2
    43    30    28   ar
    44    62    61    1
    45    31    29   ar
    46    56    55    2
    47    52    50    1
    48    23    24    1
    49    28    29   ar
    50    28    27    1
    51    55    54    1
    52    51    50    1
    53    50    47    1
    54    27    24    1
    55    24    25    1
    56    26    25    2
    57    53    54    1
    58    53    48   am
    59    57    54    1
    60    57    58    1
    61    47    48    1
    62    47    46    1
    63    48    49    2
    64    58    60   ar
    65    58    59   ar
    66    46    37   am
    67    38    37    2
    68    37    36    1
    69    35    36    1
    70    36    39    1
    71    39    40    1
    72    40    42   ar
    73    40    41   ar
    74    42    44   ar
    75    41    43   ar
    76    44    45   ar
    77    43    45   ar
