@<TRIPOS>MOLECULE
tmp/5no7A04.pdb
 83 83 0 0 0
SMALL
GASTEIGER

@<TRIPOS>ATOM
      1  N        105.2160   31.1590   24.5190 N.3    50  GLY50      -0.1225
      2  CA       105.9780   29.9120   24.6280 C.3    50  GLY50       0.1811
      3  C        105.4410   28.7150   23.8580 C.2    50  GLY50       0.2280
      4  O        106.1140   27.6880   23.7770 O.2    50  GLY50      -0.2866
      5  N        104.7290   26.6690   20.6810 N.3    52  PHE52      -0.1241
      6  CA       105.1770   26.4890   19.2990 C.3    52  PHE52       0.1605
      7  C        104.9000   25.0730   18.8060 C.2    52  PHE52       0.2264
      8  O        104.9560   24.1160   19.5800 O.2    52  PHE52      -0.2867
      9  CB       106.6810   26.7470   19.1780 C.3    52  PHE52       0.0534
     10  CG       107.0710   28.1870   19.3300 C.ar   52  PHE52      -0.0203
     11  CD1      107.3810   28.7090   20.5770 C.ar   52  PHE52      -0.0042
     12  CD2      107.1480   29.0190   18.2220 C.ar   52  PHE52      -0.0042
     13  CE1      107.7500   30.0340   20.7160 C.ar   52  PHE52      -0.0003
     14  CE2      107.5130   30.3470   18.3540 C.ar   52  PHE52      -0.0003
     15  CZ       107.8150   30.8560   19.6040 C.ar   52  PHE52      -0.0000
     16  N        117.6880   26.5580   10.7750 N.3   152  PRO152     -0.2102
     17  CA       117.0830   26.9590   12.0380 C.3   152  PRO152      0.1504
     18  C        116.4170   28.3240   11.9340 C.2   152  PRO152      0.2576
     19  O        116.9120   29.2030   11.2270 O.2   152  PRO152     -0.2718
     20  CB       118.2780   27.0200   12.9860 C.3   152  PRO152      0.0282
     21  CG       119.4120   27.4170   12.1100 C.3   152  PRO152      0.0208
     22  CD       119.1500   26.7570   10.7860 C.3   152  PRO152      0.0893
     23  N        115.3030   28.4900   12.6380 N.am  153  CYS153     -0.1957
     24  CA       114.5620   29.7470   12.6240 C.3   153  CYS153      0.1828
     25  C        115.1970   30.7830   13.5460 C.2   153  CYS153      0.2467
     26  O        115.9620   30.4260   14.4400 O.2   153  CYS153     -0.2730
     27  CB       113.0970   29.5060   13.0010 C.3   153  CYS153      0.0996
     28  SG       112.1310   28.8650   11.6160 S.3   153  CYS153     -0.0797
     29  N        114.8830   32.0750   13.3280 N.am  154  PRO154     -0.2716
     30  CA       115.4530   33.1460   14.1520 C.3   154  PRO154      0.1521
     31  C        115.1360   33.0300   15.6550 C.2   154  PRO154      0.2440
     32  O        114.2910   32.2230   16.0430 O.2   154  PRO154     -0.2731
     33  CB       114.8380   34.4260   13.5560 C.3   154  PRO154      0.0310
     34  CG       113.7220   33.9790   12.6790 C.3   154  PRO154      0.0237
     35  CD       114.0960   32.6140   12.2060 C.3   154  PRO154      0.0939
     36  N        115.8200   33.8350   16.4940 N.am  155  PRO155     -0.2716
     37  CA       115.6910   33.8170   17.9560 C.3   155  PRO155      0.1536
     38  C        114.2650   33.7330   18.5090 C.2   155  PRO155      0.2599
     39  O        114.0160   32.9540   19.4340 O.2   155  PRO155     -0.2715
     40  CB       116.3320   35.1430   18.3690 C.3   155  PRO155      0.0310
     41  CG       117.3820   35.3710   17.3410 C.3   155  PRO155      0.0237
     42  CD       116.8410   34.8090   16.0560 C.3   155  PRO155      0.0939
     43  N        113.3450   34.5180   17.9510 N.am  156  GLY156     -0.1941
     44  CA       111.9540   34.5330   18.4170 C.3   156  GLY156      0.2014
     45  C        111.0320   33.5360   17.7290 C.2   156  GLY156      0.2639
     46  O        109.8110   33.6880   17.7730 O.2   156  GLY156     -0.2714
     47  N        111.6090   32.5110   17.1050 N.am  157  GLY157     -0.1954
     48  CA       110.8370   31.5240   16.3550 C.3   157  GLY157      0.1869
     49  C        110.4100   32.0560   14.9980 C.2   157  GLY157      0.2309
     50  O        110.7620   33.1740   14.6180 O.2   157  GLY157     -0.2863
     51  N        108.3500   26.1800   14.8580 N.3   183  ASN183     -0.1225
     52  CA       109.7890   26.1780   15.0380 C.3   183  ASN183      0.1785
     53  C        110.3640   24.8670   14.5180 C.2   183  ASN183      0.2597
     54  O        109.6750   23.8460   14.5090 O.2   183  ASN183     -0.2718
     55  CB       110.1270   26.3720   16.5150 C.3   183  ASN183      0.1169
     56  CG       111.5990   26.6210   16.7520 C.2   183  ASN183      0.2627
     57  OD1      112.3400   27.0000   15.8370 O.2   183  ASN183     -0.2716
     58  ND2      112.0350   26.4150   17.9870 N.am  183  ASN183     -0.0877
     59  N        111.6210   24.8990   14.0840 N.am  184  ILE184     -0.1966
     60  CA       112.2610   23.7240   13.5000 C.3   184  ILE184      0.1727
     61  C        113.3050   23.1210   14.4310 C.2   184  ILE184      0.2617
     62  O        114.2040   23.8140   14.9060 O.2   184  ILE184     -0.2715
     63  CB       112.9020   24.0670   12.1450 C.3   184  ILE184      0.0290
     64  CG1      111.8550   24.7410   11.2570 C.3   184  ILE184      0.0022
     65  CG2      113.4620   22.8130   11.4770 C.3   184  ILE184      0.0023
     66  CD1      112.2910   24.9440    9.8290 C.3   184  ILE184      0.0001
     67  N        113.1720   21.8190   14.6730 N.am  185  THR185     -0.1937
     68  CA       114.0900   21.0700   15.5190 C.3   185  THR185      0.2028
     69  C        114.8840   20.0890   14.6600 C.2   185  THR185      0.2643
     70  O        114.4610   19.7310   13.5620 O.2   185  THR185     -0.2714
     71  CB       113.3240   20.2900   16.6070 C.3   185  THR185      0.1808
     72  OG1      112.5650   19.2310   16.0100 O.3   185  THR185     -0.2208
     73  CG2      112.3820   21.2120   17.3730 C.3   185  THR185      0.0379
     74  N        116.0330   19.6540   15.1630 N.am  186  GLY186     -0.1939
     75  CA       116.8850   18.7020   14.4490 C.3   186  GLY186      0.2014
     76  C        117.5670   19.2810   13.2220 C.2   186  GLY186      0.2639
     77  O        117.9290   18.5440   12.3040 O.2   186  GLY186     -0.2714
     78  N        117.7600   20.5990   13.2150 N.am  187  SER187     -0.1949
     79  CA       118.3760   21.2880   12.0840 C.3   187  SER187      0.1924
     80  C        119.8520   20.9260   11.9410 C.2   187  SER187      0.2314
     81  O        120.6200   21.0570   12.8920 O.2   187  SER187     -0.2863
     82  CB       118.2330   22.8030   12.2490 C.3   187  SER187      0.2116
     83  OG       118.8240   23.4950   11.1630 O.3   187  SER187     -0.2180
@<TRIPOS>BOND
     1    66    64    1
     2    16    22    1
     3    16    17    1
     4    22    21    1
     5    83    82    1
     6    19    18    2
     7    64    63    1
     8    65    63    1
     9    28    27    1
    10    18    17    1
    11    18    23   am
    12    80    79    1
    13    80    81    2
    14    17    20    1
    15    79    82    1
    16    79    78    1
    17    21    20    1
    18    63    60    1
    19    35    34    1
    20    35    29    1
    21    77    76    2
    22    24    23    1
    23    24    27    1
    24    24    25    1
    25    34    33    1
    26    78    76   am
    27    76    75    1
    28    29    25   am
    29    29    30    1
    30    60    59    1
    31    60    61    1
    32    25    26    2
    33    33    30    1
    34    70    69    2
    35    59    53   am
    36    30    31    1
    37    61    67   am
    38    61    62    2
    39    75    74    1
    40    54    53    2
    41    53    52    1
    42    50    49    2
    43    69    74   am
    44    69    68    1
    45    67    68    1
    46    51    52    1
    47    49    48    1
    48    52    55    1
    49    68    71    1
    50    31    32    2
    51    31    36   am
    52    57    56    2
    53    72    71    1
    54    42    36    1
    55    42    41    1
    56    48    47    1
    57    36    37    1
    58    55    56    1
    59    71    73    1
    60    56    58   am
    61    47    45   am
    62    41    40    1
    63    45    46    2
    64    45    44    1
    65    43    44    1
    66    43    38   am
    67    37    40    1
    68    37    38    1
    69    12    14   ar
    70    12    10   ar
    71    14    15   ar
    72    38    39    2
    73     7     6    1
    74     7     8    2
    75     9     6    1
    76     9    10    1
    77     6     5    1
    78    10    11   ar
    79    15    13   ar
    80    11    13   ar
    81     4     3    2
    82     3     2    1
    83     1     2    1
