@<TRIPOS>MOLECULE
tmp/5no7A05.pdb
 86 80 0 0 0
SMALL
GASTEIGER

@<TRIPOS>ATOM
      1  N        102.9380   29.4380   -7.9520 N.3   199  ALA199     -0.1231
      2  CA       102.7910   28.1030   -8.5290 C.3   199  ALA199      0.1694
      3  C        101.9500   28.1650   -9.7990 C.2   199  ALA199      0.2592
      4  O        100.8840   28.7780   -9.8110 O.2   199  ALA199     -0.2718
      5  CB       102.1530   27.1590   -7.5210 C.3   199  ALA199      0.0304
      6  N        102.4340   27.5260  -10.8620 N.am  200  ARG200     -0.1966
      7  CA       101.7450   27.5240  -12.1530 C.3   200  ARG200      0.1729
      8  C        100.9780   26.2240  -12.3550 C.2   200  ARG200      0.2616
      9  O        101.3870   25.1760  -11.8550 O.2   200  ARG200     -0.2715
     10  CB       102.7540   27.7160  -13.2840 C.3   200  ARG200      0.0348
     11  CG       103.5070   29.0370  -13.2180 C.3   200  ARG200      0.0492
     12  CD       104.5960   29.1140  -14.2760 C.3   200  ARG200      0.2205
     13  NE       104.0390   29.1340  -15.6260 N.pl3 200  ARG200     -0.0865
     14  CZ       103.5940   30.2230  -16.2510 C.cat 200  ARG200      0.5346
     15  NH1      103.1040   30.1180  -17.4810 N.pl3 200  ARG200      0.1354
     16  NH2      103.6300   31.4160  -15.6630 N.pl3 200  ARG200      0.1354
     17  N         99.8660   26.2990  -13.0870 N.am  201  ARG201     -0.1963
     18  CA        99.0320   25.1270  -13.3740 C.3   201  ARG201      0.1729
     19  C         99.7860   24.2250  -14.3520 C.2   201  ARG201      0.2616
     20  O         99.5910   24.2780  -15.5630 O.2   201  ARG201     -0.2715
     21  CB        97.6750   25.5570  -13.9400 C.3   201  ARG201      0.0348
     22  CG        96.6320   24.4560  -13.9580 C.3   201  ARG201      0.0492
     23  CD        95.3310   24.9540  -14.5540 C.3   201  ARG201      0.2205
     24  NE        94.2420   23.9900  -14.3920 N.pl3 201  ARG201     -0.0865
     25  CZ        93.4470   23.8990  -13.3230 C.cat 201  ARG201      0.5346
     26  NH1       92.4850   22.9820  -13.2980 N.pl3 201  ARG201      0.1354
     27  NH2       93.6000   24.7070  -12.2790 N.pl3 201  ARG201      0.1354
     28  N        100.6400   23.3800  -13.7920 N.am  202  CYS202     -0.1968
     29  CA       101.6090   22.6080  -14.5590 C.3   202  CYS202      0.1712
     30  C        101.1420   21.2280  -15.0090 C.2   202  CYS202      0.2296
     31  O        101.1510   20.9210  -16.1980 O.2   202  CYS202     -0.2864
     32  CB       102.8670   22.4490  -13.7080 C.3   202  CYS202      0.0983
     33  SG       104.2130   21.6180  -14.5570 S.3   202  CYS202     -0.0798
     34  N         93.2760   18.9950  -21.0810 N.3   210  LYS210     -0.1245
     35  CA        94.6500   18.5010  -21.2320 C.3   210  LYS210      0.1561
     36  C         94.9360   17.2270  -20.4400 C.2   210  LYS210      0.2260
     37  O         94.9350   17.2610  -19.2100 O.2   210  LYS210     -0.2867
     38  CB        95.6450   19.5880  -20.8230 C.3   210  LYS210      0.0271
     39  CG        95.5950   20.7970  -21.7420 C.3   210  LYS210      0.0035
     40  CD        96.6020   21.8570  -21.3490 C.3   210  LYS210      0.0206
     41  CE        96.4700   23.0760  -22.2490 C.3   210  LYS210      0.1093
     42  NZ        97.3450   24.1900  -21.8040 N.3   210  LYS210     -0.1314
     43  N        102.6940   19.3030  -18.6830 N.3   214  VAL214     -0.1245
     44  CA       103.6150   20.1600  -19.4260 C.3   214  VAL214      0.1561
     45  C        104.7800   20.5710  -18.5190 C.2   214  VAL214      0.2260
     46  O        104.7560   21.6520  -17.9310 O.2   214  VAL214     -0.2867
     47  CB       102.8940   21.4020  -19.9860 C.3   214  VAL214      0.0252
     48  CG1      103.8480   22.2560  -20.8170 C.3   214  VAL214      0.0019
     49  CG2      101.7000   20.9740  -20.8280 C.3   214  VAL214      0.0019
     50  N        106.1960   24.1450  -18.0300 N.3   217  ASN217     -0.1240
     51  CA       105.3550   25.1930  -17.4510 C.3   217  ASN217      0.1653
     52  C        105.3770   25.2090  -15.9210 C.2   217  ASN217      0.2266
     53  O        104.7290   26.0490  -15.3010 O.2   217  ASN217     -0.2867
     54  CB       103.9180   24.9920  -17.9330 C.3   217  ASN217      0.1155
     55  CG       103.0980   26.2710  -17.9160 C.2   217  ASN217      0.2627
     56  OD1      103.6060   27.3610  -18.1820 O.2   217  ASN217     -0.2716
     57  ND2      101.8120   26.1330  -17.6130 N.am  217  ASN217     -0.0877
     58  N         96.6100   33.2400   -7.7490 N.3   236  GLU236     -0.1245
     59  CA        95.9620   32.3380   -8.6970 C.3   236  GLU236      0.1567
     60  C         94.6520   32.9770   -9.1360 C.2   236  GLU236      0.2260
     61  O         93.9270   33.5420   -8.3140 O.2   236  GLU236     -0.2867
     62  CB        95.6780   30.9800   -8.0580 C.3   236  GLU236      0.0388
     63  CG        96.9010   30.2850   -7.4790 C.3   236  GLU236      0.1160
     64  CD        97.9910   30.0390   -8.5020 C.2   236  GLU236      0.3649
     65  OE1       97.6730   29.8260   -9.6910 O.co2 236  GLU236     -0.2457
     66  OE2       99.1710   30.0510   -8.1070 O.co2 236  GLU236     -0.2457
     67  N         92.3270   31.2790  -11.4000 N.3   238  ASP238     -0.1239
     68  CA        91.5100   30.2650  -12.0620 C.3   238  ASP238      0.1674
     69  C         90.0310   30.4730  -11.7460 C.2   238  ASP238      0.2266
     70  O         89.6840   31.1430  -10.7750 O.2   238  ASP238     -0.2867
     71  CB        91.9320   28.8560  -11.6390 C.3   238  ASP238      0.1410
     72  CG        93.3620   28.5230  -12.0330 C.2   238  ASP238      0.3668
     73  OD1       94.2790   29.3120  -11.7120 O.co2 238  ASP238     -0.2456
     74  OD2       93.5670   27.4550  -12.6480 O.co2 238  ASP238     -0.2456
     75  N         99.9410   21.3660   -9.6040 N.3   250  TYR250     -0.1241
     76  CA       100.7090   22.6040   -9.4180 C.3   250  TYR250      0.1605
     77  C        102.1390   22.3140   -8.9490 C.2   250  TYR250      0.2264
     78  O        102.7860   23.1540   -8.3190 O.2   250  TYR250     -0.2867
     79  CB        99.9710   23.5440   -8.4600 C.3   250  TYR250      0.0534
     80  CG        98.8750   24.3170   -9.1510 C.ar  250  TYR250     -0.0201
     81  CD1       99.0410   25.6610   -9.4700 C.ar  250  TYR250     -0.0009
     82  CD2       97.6900   23.6960   -9.5270 C.ar  250  TYR250     -0.0009
     83  CE1       98.0460   26.3700  -10.1210 C.ar  250  TYR250      0.0417
     84  CE2       96.6890   24.3970  -10.1830 C.ar  250  TYR250      0.0417
     85  CZ        96.8730   25.7330  -10.4780 C.ar  250  TYR250      0.1957
     86  OH        95.8860   26.4410  -11.1250 O.3   250  TYR250     -0.2866
@<TRIPOS>BOND
     1    41    42    1
     2    41    40    1
     3    39    40    1
     4    39    38    1
     5    35    34    1
     6    35    38    1
     7    35    36    1
     8    49    47    1
     9    48    47    1
    10    36    37    2
    11    47    44    1
    12    44    43    1
    13    44    45    1
    14    45    46    2
    15    56    55    2
    16    50    51    1
    17    54    55    1
    18    54    51    1
    19    55    57   am
    20    15    14    1
    21    51    52    1
    22    14    16    1
    23    14    13    2
    24    31    30    2
    25    52    53    2
    26    13    12    1
    27    20    19    2
    28    30    29    1
    29    29    28    1
    30    29    32    1
    31    33    32    1
    32    23    24    1
    33    23    22    1
    34    24    25    2
    35    19    28   am
    36    19    18    1
    37    12    11    1
    38    22    21    1
    39    21    18    1
    40    18    17    1
    41    25    26    1
    42    25    27    1
    43    10    11    1
    44    10     7    1
    45    17     8   am
    46    74    72   ar
    47     8     7    1
    48     8     9    2
    49     7     6    1
    50    68    69    1
    51    68    71    1
    52    68    67    1
    53    72    73   ar
    54    72    71    1
    55    69    70    2
    56    86    85    1
    57     6     3   am
    58    85    84   ar
    59    85    83   ar
    60    84    82   ar
    61    83    81   ar
    62     4     3    2
    63     3     2    1
    64    65    64   ar
    65    75    76    1
    66    82    80   ar
    67    81    80   ar
    68    76    77    1
    69    76    79    1
    70    80    79    1
    71    60    59    1
    72    60    61    2
    73    77    78    2
    74    59    62    1
    75    59    58    1
    76     2     1    1
    77     2     5    1
    78    64    66   ar
    79    64    63    1
    80    62    63    1
