@<TRIPOS>MOLECULE
tmp/5no9D00.pdb
 93 89 0 0 0
SMALL
GASTEIGER

@<TRIPOS>ATOM
      1  N         -4.1540  -20.5450  -59.1610 N.3    90  ASP90      -0.1239
      2  CA        -5.4930  -20.2190  -59.6580 C.3    90  ASP90       0.1674
      3  C         -5.5710  -20.7870  -61.0700 C.2    90  ASP90       0.2266
      4  O         -5.1450  -20.1330  -62.0230 O.2    90  ASP90      -0.2867
      5  CB        -5.7330  -18.7140  -59.6410 C.3    90  ASP90       0.1410
      6  CG        -7.0820  -18.3110  -60.2320 C.2    90  ASP90       0.3668
      7  OD1       -7.9040  -19.1780  -60.5950 O.co2  90  ASP90      -0.2456
      8  OD2       -7.3270  -17.0950  -60.3270 O.co2  90  ASP90      -0.2456
      9  N         -3.9010  -23.5280  -67.9460 N.3    93  ILE93      -0.1231
     10  CA        -4.5570  -22.2300  -67.8990 C.3    93  ILE93       0.1692
     11  C         -4.5090  -21.7300  -66.4610 C.2    93  ILE93       0.2593
     12  O         -4.5640  -22.5190  -65.5120 O.2    93  ILE93      -0.2718
     13  CB        -6.0090  -22.3200  -68.4210 C.3    93  ILE93       0.0266
     14  CG1       -6.0030  -22.5320  -69.9360 C.3    93  ILE93       0.0019
     15  CG2       -6.8160  -21.0770  -68.0700 C.3    93  ILE93       0.0020
     16  CD1       -5.0370  -21.6260  -70.6760 C.3    93  ILE93       0.0001
     17  N         -4.3790  -20.4140  -66.3010 N.am   94  GLY94      -0.1942
     18  CA        -4.2830  -19.8300  -64.9760 C.3    94  GLY94       0.2014
     19  C         -2.8460  -19.5600  -64.5820 C.2    94  GLY94       0.2638
     20  O         -1.9900  -19.3970  -65.4560 O.2    94  GLY94      -0.2714
     21  N         -2.5410  -19.5300  -63.2840 N.am   95  HIS95      -0.1973
     22  CA        -1.1770  -19.1900  -62.9050 C.3    95  HIS95       0.1656
     23  C         -0.8690  -19.6190  -61.4780 C.2    95  HIS95       0.2291
     24  O         -1.7650  -19.9080  -60.6760 O.2    95  HIS95      -0.2864
     25  CB        -0.9360  -17.6930  -63.0160 C.3    95  HIS95       0.0771
     26  CG        -1.9510  -16.8940  -62.2760 C.ar   95  HIS95       0.0820
     27  ND1       -1.9130  -16.7180  -60.9080 N.ar   95  HIS95      -0.2267
     28  CD2       -3.0600  -16.2580  -62.7070 C.ar   95  HIS95       0.1154
     29  CE1       -2.9460  -15.9860  -60.5330 C.ar   95  HIS95       0.1986
     30  NE2       -3.6580  -15.6990  -61.6070 N.ar   95  HIS95      -0.2212
     31  N         -2.5070  -17.3070  -55.7690 N.3    98  ASP98      -0.1239
     32  CA        -3.7900  -16.6210  -55.7880 C.3    98  ASP98       0.1674
     33  C         -3.9830  -15.9560  -54.4320 C.2    98  ASP98       0.2266
     34  O         -3.6600  -16.5430  -53.3970 O.2    98  ASP98      -0.2867
     35  CB        -4.9450  -17.5930  -56.0750 C.3    98  ASP98       0.1410
     36  CG        -6.2150  -16.8910  -56.5230 C.2    98  ASP98       0.3668
     37  OD1       -6.1620  -15.6770  -56.8220 O.co2  98  ASP98      -0.2456
     38  OD2       -7.2750  -17.5510  -56.5690 O.co2  98  ASP98      -0.2456
     39  N         -7.1980  -13.8740  -52.5220 N.3   100  GLU100     -0.1245
     40  CA        -8.5700  -13.3810  -52.5220 C.3   100  GLU100      0.1567
     41  C         -8.8440  -12.6730  -51.2010 C.2   100  GLU100      0.2260
     42  O         -8.1490  -12.8940  -50.2070 O.2   100  GLU100     -0.2867
     43  CB        -9.5760  -14.5240  -52.7090 C.3   100  GLU100      0.0388
     44  CG        -9.3640  -15.3560  -53.9650 C.3   100  GLU100      0.1160
     45  CD        -9.8930  -14.6840  -55.2210 C.2   100  GLU100      0.3649
     46  OE1      -10.5110  -13.6000  -55.1140 O.co2 100  GLU100     -0.2457
     47  OE2       -9.7050  -15.2580  -56.3170 O.co2 100  GLU100     -0.2457
     48  N        -13.5430  -10.2120  -56.8290 N.3   121  ALA121     -0.1231
     49  CA       -13.9350  -10.8440  -58.0860 C.3   121  ALA121      0.1694
     50  C        -12.7300  -10.8810  -59.0250 C.2   121  ALA121      0.2592
     51  O        -11.6010  -10.5830  -58.6250 O.2   121  ALA121     -0.2718
     52  CB       -15.1250  -10.1010  -58.6980 C.3   121  ALA121      0.0304
     53  N        -12.9480  -11.2690  -60.2880 N.am  122  HIS122     -0.1976
     54  CA       -11.8190  -11.2360  -61.2160 C.3   122  HIS122      0.1656
     55  C        -11.2770   -9.8210  -61.3420 C.2   122  HIS122      0.2291
     56  O        -10.0580   -9.6080  -61.3450 O.2   122  HIS122     -0.2864
     57  CB       -12.1920  -11.7660  -62.5980 C.3   122  HIS122      0.0771
     58  CG       -11.1210  -11.5210  -63.6180 C.ar  122  HIS122      0.0820
     59  ND1      -10.0460  -12.3690  -63.7850 N.ar  122  HIS122     -0.2267
     60  CD2      -10.9340  -10.5020  -64.4920 C.ar  122  HIS122      0.1154
     61  CE1       -9.2550  -11.8950  -64.7330 C.ar  122  HIS122      0.1986
     62  NE2       -9.7710  -10.7620  -65.1760 N.ar  122  HIS122     -0.2212
     63  N        -11.6650  -17.2060  -64.1520 N.3   152  ASP152     -0.1225
     64  CA       -10.9140  -17.9350  -63.1420 C.3   152  ASP152      0.1805
     65  C        -11.6620  -17.9230  -61.8040 C.2   152  ASP152      0.2597
     66  O        -12.8610  -17.6210  -61.7420 O.2   152  ASP152     -0.2718
     67  CB        -9.5180  -17.3230  -63.0480 C.3   152  ASP152      0.1424
     68  CG        -9.4950  -15.8920  -63.5290 C.2   152  ASP152      0.3668
     69  OD1       -9.8310  -14.9990  -62.7210 O.co2 152  ASP152     -0.2456
     70  OD2       -9.1560  -15.6560  -64.7100 O.co2 152  ASP152     -0.2456
     71  N        -10.9620  -18.2630  -60.7280 N.am  153  HIS153     -0.1975
     72  CA       -11.6140  -18.3620  -59.4390 C.3   153  HIS153      0.1656
     73  C        -11.8790  -16.9780  -58.8760 C.2   153  HIS153      0.2291
     74  O        -11.2010  -15.9970  -59.2100 O.2   153  HIS153     -0.2864
     75  CB       -10.7740  -19.1920  -58.4710 C.3   153  HIS153      0.0771
     76  CG       -10.7420  -20.6480  -58.8130 C.ar  153  HIS153      0.0820
     77  ND1       -9.8750  -21.1770  -59.7460 N.ar  153  HIS153     -0.2267
     78  CD2      -11.4920  -21.6840  -58.3680 C.ar  153  HIS153      0.1154
     79  CE1      -10.0800  -22.4780  -59.8470 C.ar  153  HIS153      0.1986
     80  NE2      -11.0600  -22.8090  -59.0270 N.ar  153  HIS153     -0.2212
     81  N          1.0360  -12.9480  -60.8860 N.3   188  ASN188     -0.1225
     82  CA        -0.2990  -12.4650  -61.2330 C.3   188  ASN188      0.1785
     83  C         -1.1730  -12.2120  -60.0160 C.2   188  ASN188      0.2597
     84  O         -2.2700  -11.6590  -60.1680 O.2   188  ASN188     -0.2718
     85  CB        -1.0240  -13.4640  -62.1320 C.3   188  ASN188      0.1169
     86  CG        -0.4020  -13.5720  -63.4980 C.2   188  ASN188      0.2627
     87  OD1       -0.8040  -12.8770  -64.4250 O.2   188  ASN188     -0.2716
     88  ND2        0.5920  -14.4420  -63.6290 N.am  188  ASN188     -0.0877
     89  N         -0.7440  -12.6390  -58.8360 N.am  189  ALA189     -0.1979
     90  CA        -1.4930  -12.4360  -57.6030 C.3   189  ALA189      0.1597
     91  C         -0.8650  -11.3100  -56.7940 C.2   189  ALA189      0.2287
     92  O          0.3110  -10.9800  -56.9580 O.2   189  ALA189     -0.2864
     93  CB        -1.5440  -13.7290  -56.7770 C.3   189  ALA189      0.0319
@<TRIPOS>BOND
     1    16    14    1
     2    14    13    1
     3    13    15    1
     4    13    10    1
     5     9    10    1
     6    10    11    1
     7    11    17   am
     8    11    12    2
     9    17    18    1
    10    20    19    2
    11    62    61   ar
    12    62    60   ar
    13    18    19    1
    14    61    59   ar
    15    70    68   ar
    16    19    21   am
    17    60    58   ar
    18    87    86    2
    19    63    64    1
    20    59    58   ar
    21    88    86   am
    22    58    57    1
    23    68    67    1
    24    68    69   ar
    25    86    85    1
    26    21    22    1
    27    64    67    1
    28    64    65    1
    29    25    22    1
    30    25    26    1
    31    22    23    1
    32    28    26   ar
    33    28    30   ar
    34    57    54    1
    35    26    27   ar
    36    85    82    1
    37     4     3    2
    38    65    66    2
    39    65    71   am
    40    30    29   ar
    41    23    24    2
    42    56    55    2
    43    55    54    1
    44    82    81    1
    45    82    83    1
    46    54    53    1
    47     3     2    1
    48    27    29   ar
    49    71    72    1
    50     7     6   ar
    51     8     6   ar
    52    53    50   am
    53     6     5    1
    54    84    83    2
    55    83    89   am
    56    79    77   ar
    57    79    80   ar
    58    77    76   ar
    59     2     5    1
    60     2     1    1
    61    72    73    1
    62    72    75    1
    63    74    73    2
    64    80    78   ar
    65    50    51    2
    66    50    49    1
    67    89    90    1
    68    76    75    1
    69    76    78   ar
    70    52    49    1
    71    49    48    1
    72    90    91    1
    73    90    93    1
    74    92    91    2
    75    37    36   ar
    76    38    36   ar
    77    36    35    1
    78    47    45   ar
    79    35    32    1
    80    32    31    1
    81    32    33    1
    82    45    46   ar
    83    45    44    1
    84    33    34    2
    85    44    43    1
    86    43    40    1
    87    40    39    1
    88    40    41    1
    89    41    42    2
