@<TRIPOS>MOLECULE
tmp/5nobA00.pdb
 161 161 0 0 0
SMALL
GASTEIGER

@<TRIPOS>ATOM
      1  N         20.2580   -1.7290  -31.1350 N.3    80  HIS80      -0.1226
      2  CA        21.3030   -0.7860  -30.8330 C.3    80  HIS80       0.1752
      3  C         21.8040   -0.2160  -32.1580 C.2    80  HIS80       0.2597
      4  O         22.0450   -0.9660  -33.1180 O.2    80  HIS80      -0.2718
      5  CB        22.4420   -1.4700  -30.0730 C.3    80  HIS80       0.0759
      6  CG        23.6830   -0.6440  -30.0050 C.ar   80  HIS80       0.0818
      7  ND1       23.8930    0.3000  -29.0250 N.ar   80  HIS80      -0.2268
      8  CD2       24.7530   -0.5780  -30.8320 C.ar   80  HIS80       0.1154
      9  CE1       25.0450    0.9070  -29.2470 C.ar   80  HIS80       0.1986
     10  NE2       25.5880    0.3870  -30.3350 N.ar   80  HIS80      -0.2212
     11  N         21.9600    1.1010  -32.2020 N.am   81  GLY81      -0.1942
     12  CA        22.6460    1.7280  -33.3050 C.3    81  GLY81       0.2014
     13  C         23.8010    2.5740  -32.8110 C.2    81  GLY81       0.2640
     14  O         23.6730    3.3060  -31.8110 O.2    81  GLY81      -0.2714
     15  N         24.9290    2.4600  -33.5020 N.am   82  SER82      -0.1936
     16  CA        26.0830    3.3260  -33.2940 C.3    82  SER82       0.2040
     17  C         27.0280    3.1220  -34.4680 C.2    82  SER82       0.2485
     18  O         26.8960    2.1360  -35.1980 O.2    82  SER82      -0.2729
     19  CB        26.8120    2.9930  -31.9770 C.3    82  SER82       0.2129
     20  OG        27.4620    1.7220  -32.0590 O.3    82  SER82      -0.2179
     21  N         28.0030    4.0350  -34.6510 N.am   83  PRO83      -0.2715
     22  CA        29.0110    3.8210  -35.7020 C.3    83  PRO83       0.1536
     23  C         29.9810    2.6600  -35.4150 C.2    83  PRO83       0.2598
     24  O         30.8210    2.3500  -36.2410 O.2    83  PRO83      -0.2715
     25  CB        29.7650    5.1540  -35.7280 C.3    83  PRO83       0.0310
     26  CG        28.7920    6.1440  -35.1750 C.3    83  PRO83       0.0237
     27  CD        28.1020    5.3910  -34.0800 C.3    83  PRO83       0.0939
     28  N         29.8170    1.9760  -34.2880 N.am   84  PHE84      -0.1974
     29  CA        30.8400    1.0430  -33.8060 C.3    84  PHE84       0.1639
     30  C         30.4250   -0.4270  -33.7460 C.2    84  PHE84       0.2290
     31  O         31.0190   -1.2230  -33.0210 O.2    84  PHE84      -0.2864
     32  CB        31.3410    1.5320  -32.4580 C.3    84  PHE84       0.0560
     33  CG        31.7150    2.9760  -32.4720 C.ar   84  PHE84      -0.0200
     34  CD1       32.9120    3.3830  -33.0620 C.ar   84  PHE84      -0.0042
     35  CD2       30.8590    3.9320  -31.9440 C.ar   84  PHE84      -0.0042
     36  CE1       33.2570    4.7280  -33.0980 C.ar   84  PHE84      -0.0003
     37  CE2       31.2070    5.2790  -31.9720 C.ar   84  PHE84      -0.0003
     38  CZ        32.4080    5.6720  -32.5560 C.ar   84  PHE84      -0.0000
     39  N         33.1760   -3.1030  -34.1420 N.3    87  ALA87      -0.1231
     40  CA        33.9640   -3.3250  -32.9400 C.3    87  ALA87       0.1694
     41  C         33.1960   -4.1610  -31.9050 C.2    87  ALA87       0.2591
     42  O         33.7630   -5.0780  -31.3020 O.2    87  ALA87      -0.2718
     43  CB        34.4190   -2.0050  -32.3380 C.3    87  ALA87       0.0304
     44  N         31.9060   -3.8620  -31.7380 N.am   88  ILE88      -0.1980
     45  CA        31.0390   -4.5760  -30.7780 C.3    88  ILE88       0.1595
     46  C         30.8710   -6.0760  -31.0830 C.2    88  ILE88       0.2287
     47  O         30.9560   -6.9110  -30.1850 O.2    88  ILE88      -0.2864
     48  CB        29.6810   -3.8540  -30.6520 C.3    88  ILE88       0.0276
     49  CG1       29.9000   -2.4700  -30.0150 C.3    88  ILE88       0.0022
     50  CG2       28.6670   -4.6870  -29.8590 C.3    88  ILE88       0.0022
     51  CD1       28.8810   -1.4200  -30.4010 C.3    88  ILE88       0.0001
     52  N         32.4470   -7.2500  -27.9630 N.3    92  GLY92      -0.1210
     53  CA        31.3090   -7.0890  -27.0540 C.3    92  GLY92       0.1956
     54  C         31.0360   -5.6150  -26.8060 C.2    92  GLY92       0.2612
     55  O         31.8020   -4.7640  -27.2500 O.2    92  GLY92      -0.2717
     56  N         29.9610   -5.3080  -26.0860 N.am   93  PHE93      -0.1962
     57  CA        29.7150   -3.9290  -25.6700 C.3    93  PHE93       0.1771
     58  C         30.7150   -3.5290  -24.5910 C.2    93  PHE93       0.2619
     59  O         31.1620   -4.3760  -23.8210 O.2    93  PHE93      -0.2715
     60  CB        28.2850   -3.7750  -25.1650 C.3    93  PHE93       0.0574
     61  CG        27.2620   -3.7990  -26.2620 C.ar   93  PHE93      -0.0200
     62  CD1       27.0050   -2.6520  -27.0090 C.ar   93  PHE93      -0.0042
     63  CD2       26.5640   -4.9630  -26.5570 C.ar   93  PHE93      -0.0042
     64  CE1       26.0600   -2.6650  -28.0350 C.ar   93  PHE93      -0.0003
     65  CE2       25.6140   -4.9760  -27.5620 C.ar   93  PHE93      -0.0003
     66  CZ        25.3630   -3.8290  -28.3030 C.ar   93  PHE93      -0.0000
     67  N         31.0440   -2.2400  -24.5300 N.am   94  ASP94      -0.1971
     68  CA        32.1080   -1.7680  -23.6550 C.3    94  ASP94       0.1709
     69  C         31.7520   -0.3650  -23.1890 C.2    94  ASP94       0.2293
     70  O         31.8230    0.5830  -23.9710 O.2    94  ASP94      -0.2864
     71  CB        33.4410   -1.7890  -24.4360 C.3    94  ASP94       0.1436
     72  CG        34.6450   -1.4180  -23.5860 C.2    94  ASP94       0.3671
     73  OD1       34.4910   -0.9470  -22.4320 O.co2  94  ASP94      -0.2456
     74  OD2       35.7660   -1.5820  -24.0950 O.co2  94  ASP94      -0.2456
     75  N         33.7110    3.1460  -23.5830 N.3    97  HIS97      -0.1226
     76  CA        33.5430    4.0210  -24.7430 C.3    97  HIS97       0.1752
     77  C         32.2610    4.8600  -24.7010 C.2    97  HIS97       0.2596
     78  O         31.9270    5.5090  -25.6860 O.2    97  HIS97      -0.2718
     79  CB        33.5490    3.1950  -26.0400 C.3    97  HIS97       0.0759
     80  CG        34.8860    2.6140  -26.3940 C.ar   97  HIS97       0.0818
     81  ND1       35.8910    3.3580  -26.9750 N.ar   97  HIS97      -0.2268
     82  CD2       35.3730    1.3550  -26.2730 C.ar   97  HIS97       0.1154
     83  CE1       36.9490    2.5890  -27.1790 C.ar   97  HIS97       0.1986
     84  NE2       36.6580    1.3670  -26.7690 N.ar   97  HIS97      -0.2212
     85  N         31.5130    4.8310  -23.6010 N.am   98  ALA98      -0.1966
     86  CA        30.2480    5.5900  -23.5540 C.3    98  ALA98       0.1728
     87  C         30.4890    7.0940  -23.3840 C.2    98  ALA98       0.2616
     88  O         31.4640    7.5040  -22.7660 O.2    98  ALA98      -0.2715
     89  CB        29.3330    5.0760  -22.4600 C.3    98  ALA98       0.0334
     90  N         29.5850    7.8960  -23.9360 N.am   99  TYR99      -0.1974
     91  CA        29.6790    9.3590  -23.9170 C.3    99  TYR99       0.1639
     92  C         29.1260    9.9330  -22.6080 C.2    99  TYR99       0.2290
     93  O         27.9450    9.7440  -22.2810 O.2    99  TYR99      -0.2864
     94  CB        28.9410    9.9120  -25.1480 C.3    99  TYR99       0.0560
     95  CG        28.7690   11.4180  -25.2390 C.ar   99  TYR99      -0.0198
     96  CD1       29.8540   12.2950  -25.0920 C.ar   99  TYR99      -0.0009
     97  CD2       27.5200   11.9640  -25.5280 C.ar   99  TYR99      -0.0009
     98  CE1       29.6840   13.6740  -25.1960 C.ar   99  TYR99       0.0417
     99  CE2       27.3410   13.3360  -25.6400 C.ar   99  TYR99       0.0417
    100  CZ        28.4180   14.1870  -25.4710 C.ar   99  TYR99       0.1957
    101  OH        28.2140   15.5460  -25.5790 O.3    99  TYR99      -0.2866
    102  N         25.8710   11.9420  -22.5800 N.3   102  GLY102     -0.1210
    103  CA        24.6470   11.2510  -22.9620 C.3   102  GLY102      0.1956
    104  C         23.4610   11.6860  -22.1150 C.2   102  GLY102      0.2611
    105  O         23.6020   11.9440  -20.9150 O.2   102  GLY102     -0.2717
    106  N         22.2950   11.7720  -22.7570 N.am  103  MET103     -0.1979
    107  CA        21.0240   12.1220  -22.1080 C.3   103  MET103      0.1605
    108  C         20.8350   11.4180  -20.7570 C.2   103  MET103      0.2287
    109  O         20.3180   12.0030  -19.8080 O.2   103  MET103     -0.2864
    110  CB        19.8570   11.8020  -23.0560 C.3   103  MET103      0.0413
    111  CG        18.4850   12.2100  -22.5470 C.3   103  MET103      0.0598
    112  SD        17.1840   11.9470  -23.7700 S.3   103  MET103     -0.1393
    113  CE        17.1870   13.5180  -24.6370 C.3   103  MET103      0.0692
    114  N         26.3550    5.5780  -20.5520 N.3   107  GLY107     -0.1210
    115  CA        25.8940    4.2090  -20.7550 C.3   107  GLY107      0.1956
    116  C         25.8080    3.8350  -22.2270 C.2   107  GLY107      0.2612
    117  O         26.1150    4.6400  -23.1030 O.2   107  GLY107     -0.2717
    118  N         25.4080    2.5920  -22.4820 N.am  108  ILE108     -0.1965
    119  CA        25.1730    2.0820  -23.8310 C.3   108  ILE108      0.1727
    120  C         23.6540    2.0770  -24.0500 C.2   108  ILE108      0.2616
    121  O         22.9070    1.5840  -23.2160 O.2   108  ILE108     -0.2715
    122  CB        25.7700    0.6640  -23.9660 C.3   108  ILE108      0.0290
    123  CG1       27.2790    0.7240  -23.6450 C.3   108  ILE108      0.0022
    124  CG2       25.5390    0.0860  -25.3580 C.3   108  ILE108      0.0023
    125  CD1       27.8660   -0.5680  -23.1110 C.3   108  ILE108      0.0001
    126  N         23.2200    2.6510  -25.1690 N.am  109  TYR109     -0.1974
    127  CA        21.8180    2.9280  -25.4330 C.3   109  TYR109      0.1639
    128  C         21.1910    1.8970  -26.3380 C.2   109  TYR109      0.2290
    129  O         21.7920    1.4670  -27.3160 O.2   109  TYR109     -0.2864
    130  CB        21.6740    4.3170  -26.0720 C.3   109  TYR109      0.0560
    131  CG        21.8900    5.4440  -25.0850 C.ar  109  TYR109     -0.0198
    132  CD1       23.0710    5.5330  -24.3470 C.ar  109  TYR109     -0.0009
    133  CD2       20.9270    6.4270  -24.8990 C.ar  109  TYR109     -0.0009
    134  CE1       23.2820    6.5540  -23.4380 C.ar  109  TYR109      0.0417
    135  CE2       21.1300    7.4570  -23.9900 C.ar  109  TYR109      0.0417
    136  CZ        22.3080    7.5120  -23.2670 C.ar  109  TYR109      0.1957
    137  OH        22.5220    8.5240  -22.3540 O.3   109  TYR109     -0.2866
    138  N         20.9570    6.7800  -34.4500 N.3   120  TYR120     -0.1241
    139  CA        22.3050    6.7790  -33.8770 C.3   120  TYR120      0.1605
    140  C         23.3590    6.0810  -34.7290 C.2   120  TYR120      0.2264
    141  O         24.5380    6.0740  -34.3810 O.2   120  TYR120     -0.2867
    142  CB        22.2840    6.1400  -32.4820 C.3   120  TYR120      0.0534
    143  CG        21.3490    6.8180  -31.5130 C.ar  120  TYR120     -0.0201
    144  CD1       21.4630    8.1880  -31.2490 C.ar  120  TYR120     -0.0009
    145  CD2       20.3640    6.0930  -30.8390 C.ar  120  TYR120     -0.0009
    146  CE1       20.6090    8.8180  -30.3590 C.ar  120  TYR120      0.0417
    147  CE2       19.5060    6.7130  -29.9420 C.ar  120  TYR120      0.0417
    148  CZ        19.6290    8.0800  -29.7100 C.ar  120  TYR120      0.1957
    149  OH        18.7860    8.7140  -28.8120 O.3   120  TYR120     -0.2866
    150  N         25.9640    8.3540  -35.6470 N.3   123  GLY123     -0.1210
    151  CA        26.4230    9.1470  -34.4980 C.3   123  GLY123      0.1956
    152  C         25.2920    9.8000  -33.7290 C.2   123  GLY123      0.2611
    153  O         24.1260    9.6730  -34.1140 O.2   123  GLY123     -0.2717
    154  N         25.6280   10.5050  -32.6390 N.am  124  ILE124     -0.1979
    155  CA        24.6280   11.2710  -31.8710 C.3   124  ILE124      0.1595
    156  C         23.9490   12.2780  -32.7820 C.2   124  ILE124      0.2287
    157  O         24.6220   13.0500  -33.4640 O.2   124  ILE124     -0.2864
    158  CB        25.2240   12.0210  -30.6390 C.3   124  ILE124      0.0276
    159  CG1       26.0040   11.0660  -29.7230 C.3   124  ILE124      0.0022
    160  CG2       24.1300   12.7410  -29.8460 C.3   124  ILE124      0.0022
    161  CD1       25.2210    9.8470  -29.2860 C.3   124  ILE124      0.0001
@<TRIPOS>BOND
     1    24    23    2
     2    25    22    1
     3    25    26    1
     4    22    23    1
     5    22    21    1
     6   150   151    1
     7    23    28   am
     8    18    17    2
     9    26    27    1
    10   140   141    2
    11   140   139    1
    12    21    17   am
    13    21    27    1
    14   151   152    1
    15    17    16    1
    16   138   139    1
    17    28    29    1
    18    39    40    1
    19   153   152    2
    20   139   142    1
    21    29    30    1
    22    29    32    1
    23    30    31    2
    24   152   154   am
    25    15    16    1
    26    15    13   am
    27   157   156    2
    28    12    13    1
    29    12    11    1
    30    16    19    1
    31     4     3    2
    32    36    34   ar
    33    36    38   ar
    34    34    33   ar
    35    40    43    1
    36    40    41    1
    37    13    14    2
    38   156   155    1
    39   154   155    1
    40    38    37   ar
    41   142   143    1
    42    33    32    1
    43    33    35   ar
    44    11     3   am
    45     3     2    1
    46    20    19    1
    47    37    35   ar
    48    41    44   am
    49    41    42    2
    50   155   158    1
    51    44    45    1
    52   143   144   ar
    53   143   145   ar
    54   144   146   ar
    55     1     2    1
    56    46    45    1
    57    46    47    2
    58   145   147   ar
    59     2     5    1
    60     8    10   ar
    61     8     6   ar
    62    45    48    1
    63    48    49    1
    64    48    50    1
    65   158   160    1
    66   158   159    1
    67    51    49    1
    68   146   148   ar
    69    10     9   ar
    70     5     6    1
    71     6     7   ar
    72   147   148   ar
    73   159   161    1
    74   148   149    1
    75     9     7   ar
    76    66    64   ar
    77    66    65   ar
    78    64    62   ar
    79    52    53    1
    80    65    63   ar
    81   129   128    2
    82    55    54    2
    83    83    81   ar
    84    83    84   ar
    85    53    54    1
    86    62    61   ar
    87    81    80   ar
    88    54    56   am
    89    84    82   ar
    90    63    61   ar
    91    80    82   ar
    92    80    79    1
    93   128   127    1
    94    61    60    1
    95    56    57    1
    96   130   127    1
    97   130   131    1
    98    79    76    1
    99    78    77    2
   100    57    60    1
   101    57    58    1
   102    99    97   ar
   103    99   100   ar
   104   101   100    1
   105    97    95   ar
   106   100    98   ar
   107   127   126    1
   108   124   122    1
   109    95    94    1
   110    95    96   ar
   111    98    96   ar
   112   126   120   am
   113    94    91    1
   114   131   133   ar
   115   131   132   ar
   116   133   135   ar
   117    76    77    1
   118    76    75    1
   119    77    85   am
   120   113   112    1
   121    58    67   am
   122    58    59    2
   123    67    68    1
   124    71    68    1
   125    71    72    1
   126   132   134   ar
   127    74    72   ar
   128   120   119    1
   129   120   121    2
   130   135   136   ar
   131    70    69    2
   132   122   119    1
   133   122   123    1
   134    90    91    1
   135    90    87   am
   136    91    92    1
   137   119   118    1
   138   112   111    1
   139    68    69    1
   140   123   125    1
   141    85    86    1
   142    72    73   ar
   143    86    87    1
   144    86    89    1
   145   134   136   ar
   146    87    88    2
   147   136   137    1
   148   117   116    2
   149   110   111    1
   150   110   107    1
   151   103   102    1
   152   103   104    1
   153   106   104   am
   154   106   107    1
   155    92    93    2
   156   118   116   am
   157   116   115    1
   158   104   105    2
   159   107   108    1
   160   108   109    2
   161   115   114    1
