@<TRIPOS>MOLECULE
tmp/5nokB00.pdb
 190 184 0 0 0
SMALL
GASTEIGER

@<TRIPOS>ATOM
      1  N         60.4980   39.0040   35.1590 N.3   183  SER183     -0.1217
      2  CA        60.0820   38.1140   36.2380 C.3   183  SER183      0.1889
      3  C         60.2800   38.6170   37.6830 C.2   183  SER183      0.2288
      4  O         59.8450   37.9360   38.6120 O.2   183  SER183     -0.2866
      5  CB        60.8170   36.7780   36.0980 C.3   183  SER183      0.2089
      6  OG        60.9190   36.3520   34.7340 O.3   183  SER183     -0.2183
      7  N         60.6180   34.5090   23.1780 N.3   352  ASN352     -0.1240
      8  CA        61.8490   33.7970   23.6160 C.3   352  ASN352      0.1653
      9  C         61.9770   32.3490   23.0710 C.2   352  ASN352      0.2266
     10  O         61.5580   31.4020   23.7420 O.2   352  ASN352     -0.2867
     11  CB        61.9070   33.7930   25.1560 C.3   352  ASN352      0.1155
     12  CG        63.3240   33.7300   25.6800 C.2   352  ASN352      0.2627
     13  OD1       64.1330   34.6240   25.4190 O.2   352  ASN352     -0.2716
     14  ND2       63.6320   32.6800   26.4230 N.am  352  ASN352     -0.0877
     15  N         62.9580   28.8710   25.0410 N.3   355  ASP355     -0.1239
     16  CA        61.9890   28.3140   25.9860 C.3   355  ASP355      0.1674
     17  C         60.8000   27.5690   25.3260 C.2   355  ASP355      0.2266
     18  O         59.8970   27.0820   26.0180 O.2   355  ASP355     -0.2867
     19  CB        61.4880   29.4240   26.9150 C.3   355  ASP355      0.1410
     20  CG        62.5490   29.8760   27.9360 C.2   355  ASP355      0.3668
     21  OD1       63.2800   29.0230   28.4780 O.co2 355  ASP355     -0.2456
     22  OD2       62.6240   31.0920   28.2260 O.co2 355  ASP355     -0.2456
     23  N         63.2640   21.9490   29.5800 N.3   361  GLU361     -0.1245
     24  CA        62.1640   21.4860   30.4180 C.3   361  GLU361      0.1567
     25  C         61.3090   20.4080   29.7280 C.2   361  GLU361      0.2260
     26  O         60.7020   19.6480   30.4090 O.2   361  GLU361     -0.2867
     27  CB        61.2620   22.6290   30.8950 C.3   361  GLU361      0.0388
     28  CG        61.8610   23.5360   31.9590 C.3   361  GLU361      0.1160
     29  CD        62.7570   24.6350   31.3970 C.2   361  GLU361      0.3649
     30  OE1       63.2550   24.4870   30.2580 O.co2 361  GLU361     -0.2457
     31  OE2       62.9560   25.6620   32.0800 O.co2 361  GLU361     -0.2457
     32  N         72.2240   28.4530   24.2900 N.3   411  ARG411     -0.1245
     33  CA        72.7950   28.4650   25.6280 C.3   411  ARG411      0.1563
     34  C         73.1080   27.1070   26.2460 C.2   411  ARG411      0.2260
     35  O         72.4140   26.1170   26.0090 O.2   411  ARG411     -0.2867
     36  CB        71.8670   29.2250   26.5780 C.3   411  ARG411      0.0307
     37  CG        70.5270   28.5360   26.8120 C.3   411  ARG411      0.0489
     38  CD        69.6230   29.3960   27.6560 C.3   411  ARG411      0.2205
     39  NE        68.3320   28.7530   27.8910 N.pl3 411  ARG411     -0.0865
     40  CZ        67.3440   29.3000   28.5960 C.cat 411  ARG411      0.5346
     41  NH1       67.4980   30.5050   29.1500 N.pl3 411  ARG411      0.1354
     42  NH2       66.2010   28.6380   28.7580 N.pl3 411  ARG411      0.1354
     43  N         73.1310   25.5310   29.6810 N.3   413  ARG413     -0.1245
     44  CA        72.3800   25.8850   30.8730 C.3   413  ARG413      0.1563
     45  C         72.3850   24.7230   31.8530 C.2   413  ARG413      0.2260
     46  O         71.9950   23.5980   31.5010 O.2   413  ARG413     -0.2867
     47  CB        70.9350   26.2780   30.5200 C.3   413  ARG413      0.0307
     48  CG        70.2580   26.9880   31.6920 C.3   413  ARG413      0.0489
     49  CD        68.8590   27.5300   31.4460 C.3   413  ARG413      0.2205
     50  NE        67.9220   26.5070   31.0130 N.pl3 413  ARG413     -0.0865
     51  CZ        66.6420   26.4050   31.3750 C.cat 413  ARG413      0.5346
     52  NH1       66.0490   27.2540   32.2210 N.pl3 413  ARG413      0.1354
     53  NH2       65.9400   25.4050   30.8710 N.pl3 413  ARG413      0.1354
     54  N         70.5880   23.8010   34.5350 N.3   415  TYR415     -0.1241
     55  CA        69.2970   23.1530   34.7610 C.3   415  TYR415      0.1605
     56  C         69.0930   21.9530   33.8230 C.2   415  TYR415      0.2264
     57  O         68.6490   20.8760   34.2510 O.2   415  TYR415     -0.2867
     58  CB        68.1650   24.1670   34.5680 C.3   415  TYR415      0.0534
     59  CG        68.0420   25.2630   35.6280 C.ar  415  TYR415     -0.0201
     60  CD1       67.6620   24.9570   36.9430 C.ar  415  TYR415     -0.0009
     61  CD2       68.2460   26.5990   35.3070 C.ar  415  TYR415     -0.0009
     62  CE1       67.5250   25.9490   37.9160 C.ar  415  TYR415      0.0417
     63  CE2       68.1160   27.6050   36.2720 C.ar  415  TYR415      0.0417
     64  CZ        67.7400   27.2750   37.5720 C.ar  415  TYR415      0.1957
     65  OH        67.5870   28.2560   38.5240 O.3   415  TYR415     -0.2866
     66  N         67.9510   17.3030   34.2900 N.3   418  TRP418     -0.1241
     67  CA        66.8240   16.6590   33.6260 C.3   418  TRP418      0.1605
     68  C         67.2450   15.5730   32.6540 C.2   418  TRP418      0.2264
     69  O         66.5310   14.5740   32.5150 O.2   418  TRP418     -0.2867
     70  CB        65.9400   17.6950   32.9420 C.3   418  TRP418      0.0550
     71  CG        65.4610   18.7020   33.8890 C.ar  418  TRP418      0.0003
     72  CD1       65.0570   18.4930   35.1820 C.ar  418  TRP418      0.0946
     73  CD2       65.3330   20.0970   33.6460 C.ar  418  TRP418      0.0152
     74  NE1       64.6720   19.6840   35.7550 N.ar  418  TRP418     -0.2442
     75  CE2       64.8300   20.6830   34.8250 C.ar  418  TRP418      0.0810
     76  CE3       65.5820   20.9100   32.5400 C.ar  418  TRP418      0.0012
     77  CZ2       64.5810   22.0360   34.9230 C.ar  418  TRP418      0.0191
     78  CZ3       65.3330   22.2500   32.6320 C.ar  418  TRP418      0.0001
     79  CH2       64.8480   22.8070   33.8100 C.ar  418  TRP418      0.0015
     80  N         67.1890   22.1240   39.5180 N.3   455  ILE455     -0.1245
     81  CA        65.8890   21.5590   39.8360 C.3   455  ILE455      0.1561
     82  C         65.9090   20.0470   39.6200 C.2   455  ILE455      0.2260
     83  O         66.2460   19.5710   38.5380 O.2   455  ILE455     -0.2867
     84  CB        64.7940   22.1930   38.9590 C.3   455  ILE455      0.0252
     85  CG1       64.6380   23.6760   39.3030 C.3   455  ILE455      0.0019
     86  CG2       63.4650   21.4540   39.1170 C.3   455  ILE455      0.0019
     87  CD1       63.9370   24.4750   38.2230 C.3   455  ILE455      0.0001
     88  N         67.9190   32.6610   37.1060 N.3   499  GLU499     -0.1231
     89  CA        67.1500   33.3500   36.0610 C.3   499  GLU499      0.1699
     90  C         66.0400   34.2150   36.6510 C.2   499  GLU499      0.2592
     91  O         65.5050   35.0950   35.9710 O.2   499  GLU499     -0.2718
     92  CB        66.5930   32.3390   35.0560 C.3   499  GLU499      0.0402
     93  CG        67.6740   31.7370   34.1610 C.3   499  GLU499      0.1161
     94  CD        67.3790   30.3080   33.7130 C.2   499  GLU499      0.3649
     95  OE1       66.1940   29.9330   33.5170 O.co2 499  GLU499     -0.2457
     96  OE2       68.3530   29.5560   33.5590 O.co2 499  GLU499     -0.2457
     97  N         65.6950   33.9520   37.9110 N.am  500  VAL500     -0.1980
     98  CA        64.9170   34.8860   38.7320 C.3   500  VAL500      0.1595
     99  C         65.7290   35.1630   40.0010 C.2   500  VAL500      0.2287
    100  O         66.3880   34.2740   40.5320 O.2   500  VAL500     -0.2864
    101  CB        63.5130   34.3130   39.0620 C.3   500  VAL500      0.0276
    102  CG1       62.6550   35.3340   39.7990 C.3   500  VAL500      0.0022
    103  CG2       62.7960   33.8510   37.7920 C.3   500  VAL500      0.0022
    104  N         62.9580   33.0220   44.2140 N.3   503  GLU503     -0.1245
    105  CA        61.6840   32.3780   43.8480 C.3   503  GLU503      0.1567
    106  C         61.6060   30.9450   44.3770 C.2   503  GLU503      0.2260
    107  O         62.6290   30.3980   44.7980 O.2   503  GLU503     -0.2867
    108  CB        61.5520   32.3340   42.3280 C.3   503  GLU503      0.0388
    109  CG        62.7520   31.6770   41.6620 C.3   503  GLU503      0.1160
    110  CD        62.3630   30.7530   40.5340 C.2   503  GLU503      0.3649
    111  OE1       61.3450   30.0360   40.7070 O.co2 503  GLU503     -0.2457
    112  OE2       63.0770   30.7240   39.4980 O.co2 503  GLU503     -0.2457
    113  N         61.3520   28.0930   42.9030 N.3   505  SER505     -0.1217
    114  CA        62.2530   27.1480   42.2300 C.3   505  SER505      0.1889
    115  C         63.7740   27.4580   42.3590 C.2   505  SER505      0.2288
    116  O         64.5850   26.9600   41.5830 O.2   505  SER505     -0.2866
    117  CB        61.8040   26.8590   40.7980 C.3   505  SER505      0.2089
    118  OG        61.7680   28.0190   40.0210 O.3   505  SER505     -0.2183
    119  N         53.8910   31.9380   41.8170 N.3   554  ARG554     -0.1245
    120  CA        54.7550   32.0670   40.6610 C.3   554  ARG554      0.1563
    121  C         53.9680   32.9200   39.7080 C.2   554  ARG554      0.2260
    122  O         52.7270   32.8700   39.7060 O.2   554  ARG554     -0.2867
    123  CB        55.0640   30.7160   40.0450 C.3   554  ARG554      0.0307
    124  CG        55.7100   29.7330   41.0130 C.3   554  ARG554      0.0489
    125  CD        55.9030   28.3300   40.4190 C.3   554  ARG554      0.2205
    126  NE        56.6860   28.4230   39.2040 N.pl3 554  ARG554     -0.0865
    127  CZ        57.9920   28.6720   39.1530 C.cat 554  ARG554      0.5346
    128  NH1       58.7150   28.8080   40.2550 N.pl3 554  ARG554      0.1354
    129  NH2       58.5840   28.7940   37.9750 N.pl3 554  ARG554      0.1354
    130  N         55.5240   34.4360   36.2860 N.3   556  TRP556     -0.1227
    131  CA        56.2960   34.8280   35.0870 C.3   556  TRP556      0.1737
    132  C         56.3030   33.8070   33.9450 C.2   556  TRP556      0.2595
    133  O         56.6630   34.1620   32.8190 O.2   556  TRP556     -0.2718
    134  CB        57.7450   35.1610   35.4780 C.3   556  TRP556      0.0564
    135  CG        58.3950   34.0430   36.1770 C.ar  556  TRP556      0.0003
    136  CD1       59.0560   33.0010   35.6190 C.ar  556  TRP556      0.0946
    137  CD2       58.4070   33.8250   37.5780 C.ar  556  TRP556      0.0152
    138  NE1       59.4830   32.1230   36.5870 N.ar  556  TRP556     -0.2442
    139  CE2       59.1000   32.6120   37.8070 C.ar  556  TRP556      0.0810
    140  CE3       57.8980   34.5320   38.6690 C.ar  556  TRP556      0.0012
    141  CZ2       59.3000   32.0970   39.0780 C.ar  556  TRP556      0.0191
    142  CZ3       58.0720   34.0010   39.9430 C.ar  556  TRP556      0.0001
    143  CH2       58.7680   32.7890   40.1240 C.ar  556  TRP556      0.0015
    144  N         55.8950   32.5720   34.1980 N.am  557  ASP557     -0.1974
    145  CA        56.0560   31.5040   33.2080 C.3   557  ASP557      0.1709
    146  C         55.0830   31.5940   32.0190 C.2   557  ASP557      0.2293
    147  O         55.3260   31.0090   30.9690 O.2   557  ASP557     -0.2864
    148  CB        55.9260   30.1320   33.8840 C.3   557  ASP557      0.1436
    149  CG        57.0980   29.8270   34.8350 C.2   557  ASP557      0.3671
    150  OD1       58.2110   29.5370   34.3310 O.co2 557  ASP557     -0.2456
    151  OD2       56.8810   29.8460   36.0780 O.co2 557  ASP557     -0.2456
    152  N         57.3560   33.3900   29.4270 N.3   560  TRP560     -0.1227
    153  CA        58.5050   32.6850   28.8710 C.3   560  TRP560      0.1737
    154  C         58.1380   31.4200   28.0920 C.2   560  TRP560      0.2595
    155  O         58.8490   31.0360   27.1680 O.2   560  TRP560     -0.2718
    156  CB        59.5200   32.3640   29.9740 C.3   560  TRP560      0.0564
    157  CG        60.0110   33.5880   30.6740 C.ar  560  TRP560      0.0003
    158  CD1       59.7310   33.9660   31.9520 C.ar  560  TRP560      0.0946
    159  CD2       60.8420   34.6070   30.1240 C.ar  560  TRP560      0.0152
    160  NE1       60.3410   35.1690   32.2420 N.ar  560  TRP560     -0.2442
    161  CE2       61.0380   35.5810   31.1400 C.ar  560  TRP560      0.0810
    162  CE3       61.4490   34.7980   28.8670 C.ar  560  TRP560      0.0012
    163  CZ2       61.8090   36.7330   30.9420 C.ar  560  TRP560      0.0191
    164  CZ3       62.2340   35.9590   28.6660 C.ar  560  TRP560      0.0001
    165  CH2       62.4040   36.9050   29.7070 C.ar  560  TRP560      0.0015
    166  N         57.0380   30.7810   28.4600 N.am  561  PHE561     -0.1976
    167  CA        56.6720   29.4880   27.8900 C.3   561  PHE561      0.1639
    168  C         55.3440   29.4400   27.1530 C.2   561  PHE561      0.2290
    169  O         55.1650   28.5500   26.3190 O.2   561  PHE561     -0.2864
    170  CB        56.6530   28.4420   29.0140 C.3   561  PHE561      0.0560
    171  CG        58.0100   28.1980   29.6320 C.ar  561  PHE561     -0.0200
    172  CD1       58.8690   27.2300   29.1160 C.ar  561  PHE561     -0.0042
    173  CD2       58.4380   28.9630   30.7020 C.ar  561  PHE561     -0.0042
    174  CE1       60.1230   27.0160   29.6940 C.ar  561  PHE561     -0.0003
    175  CE2       59.6940   28.7640   31.2810 C.ar  561  PHE561     -0.0003
    176  CZ        60.5360   27.7940   30.7760 C.ar  561  PHE561     -0.0000
    177  N         55.7520   23.9980   38.6590 N.3   575  TRP575     -0.1241
    178  CA        56.9060   23.9020   39.5400 C.3   575  TRP575      0.1605
    179  C         56.4840   24.0610   40.9740 C.2   575  TRP575      0.2264
    180  O         57.2490   23.7430   41.8630 O.2   575  TRP575     -0.2867
    181  CB        58.0060   24.8940   39.2220 C.3   575  TRP575      0.0550
    182  CG        58.9080   24.5850   38.0600 C.ar  575  TRP575      0.0003
    183  CD1       59.3710   25.4920   37.1690 C.ar  575  TRP575      0.0946
    184  CD2       59.5360   23.3350   37.7180 C.ar  575  TRP575      0.0152
    185  NE1       60.2000   24.8920   36.2580 N.ar  575  TRP575     -0.2442
    186  CE2       60.3370   23.5760   36.5750 C.ar  575  TRP575      0.0810
    187  CE3       59.4490   22.0250   38.2140 C.ar  575  TRP575      0.0012
    188  CZ2       61.0500   22.5800   35.9390 C.ar  575  TRP575      0.0191
    189  CZ3       60.1810   21.0260   37.5850 C.ar  575  TRP575      0.0001
    190  CH2       60.9760   21.3090   36.4650 C.ar  575  TRP575      0.0015
@<TRIPOS>BOND
     1     9     8    1
     2     9    10    2
     3     7     8    1
     4     8    11    1
     5    32    33    1
     6    15    16    1
     7    11    12    1
     8    17    16    1
     9    17    18    2
    10    13    12    2
    11    33    34    1
    12    33    36    1
    13    12    14   am
    14    16    19    1
    15    35    34    2
    16   169   168    2
    17    36    37    1
    18    37    38    1
    19    19    20    1
    20   168   167    1
    21   155   154    2
    22    38    39    1
    23   167   166    1
    24   167   170    1
    25    39    40    2
    26    20    22   ar
    27    20    21   ar
    28   154   166   am
    29   154   153    1
    30    40    42    1
    31    40    41    1
    32   164   162   ar
    33   164   165   ar
    34   162   159   ar
    35   153   152    1
    36   153   156    1
    37   170   171    1
    38   172   171   ar
    39   172   174   ar
    40    23    24    1
    41   171   173   ar
    42    43    44    1
    43   174   176   ar
    44   165   163   ar
    45    25    26    2
    46    25    24    1
    47   156   157    1
    48   159   157   ar
    49   159   161   ar
    50    30    29   ar
    51    24    27    1
    52    47    44    1
    53    47    48    1
    54   157   158   ar
    55   173   175   ar
    56   176   175   ar
    57    53    51    1
    58    44    45    1
    59    27    28    1
    60   163   161   ar
    61   147   146    2
    62    50    51    2
    63    50    49    1
    64   161   160   ar
    65    51    52    1
    66    29    28    1
    67    29    31   ar
    68    49    48    1
    69    46    45    2
    70   158   160   ar
    71   146   145    1
    72    69    68    2
    73    76    78   ar
    74    76    73   ar
    75    78    79   ar
    76    68    67    1
    77   133   132    2
    78    70    67    1
    79    70    71    1
    80   145   148    1
    81   145   144    1
    82    95    94   ar
    83    96    94   ar
    84    67    66    1
    85    73    71   ar
    86    73    75   ar
    87    94    93    1
    88    79    77   ar
    89    56    57    2
    90    56    55    1
    91   148   149    1
    92    71    72   ar
    93   132   144   am
    94   132   131    1
    95    93    92    1
    96   150   149   ar
    97    54    55    1
    98    58    55    1
    99    58    59    1
   100     6     5    1
   101    75    77   ar
   102    75    74   ar
   103   149   151   ar
   104    92    89    1
   105   131   134    1
   106   131   130    1
   107     1     2    1
   108    72    74   ar
   109    61    59   ar
   110    61    63   ar
   111   134   135    1
   112   136   135   ar
   113   136   138   ar
   114    59    60   ar
   115   188   190   ar
   116   188   186   ar
   117    91    90    2
   118    89    90    1
   119    89    88    1
   120     5     2    1
   121   135   137   ar
   122     2     3    1
   123   185   186   ar
   124   185   183   ar
   125    63    64   ar
   126   190   189   ar
   127   186   184   ar
   128   138   139   ar
   129    90    97   am
   130    60    62   ar
   131   183   182   ar
   132    64    62   ar
   133    64    65    1
   134   137   139   ar
   135   137   140   ar
   136   189   187   ar
   137     3     4    2
   138   184   182   ar
   139   184   187   ar
   140   103   101    1
   141   139   141   ar
   142    97    98    1
   143   129   127    1
   144   182   181    1
   145    87    85    1
   146    83    82    2
   147   177   178    1
   148   140   142   ar
   149    98   101    1
   150    98    99    1
   151    84    86    1
   152    84    85    1
   153    84    81    1
   154   101   102    1
   155   141   143   ar
   156   127   126    2
   157   127   128    1
   158   126   125    1
   159   181   178    1
   160   112   110   ar
   161    80    81    1
   162   178   179    1
   163    82    81    1
   164   122   121    2
   165   121   120    1
   166   142   143   ar
   167    99   100    2
   168   118   117    1
   169   123   120    1
   170   123   124    1
   171   125   124    1
   172   110   111   ar
   173   110   109    1
   174   120   119    1
   175   117   114    1
   176   179   180    2
   177   116   115    2
   178   109   108    1
   179   114   115    1
   180   114   113    1
   181   108   105    1
   182   105   104    1
   183   105   106    1
   184   106   107    2
