@<TRIPOS>MOLECULE
tmp/5nonA00.pdb
 179 167 0 0 0
SMALL
GASTEIGER

@<TRIPOS>ATOM
      1  N        -12.1740   -6.0190   27.8910 N.3    24  TYR24      -0.1241
      2  CA       -13.1690   -6.9310   27.3890 C.3    24  TYR24       0.1605
      3  C        -14.3420   -7.0360   28.2590 C.2    24  TYR24       0.2264
      4  O        -15.4680   -7.2730   27.7970 O.2    24  TYR24      -0.2867
      5  CB       -12.5790   -8.3280   27.1200 C.3    24  TYR24       0.0534
      6  CG       -11.8800   -8.5520   25.8220 C.ar   24  TYR24      -0.0201
      7  CD1      -12.6040   -8.7850   24.6560 C.ar   24  TYR24      -0.0009
      8  CD2      -10.5090   -8.5690   25.7260 C.ar   24  TYR24      -0.0009
      9  CE1      -11.9780   -9.0780   23.4500 C.ar   24  TYR24       0.0417
     10  CE2       -9.8350   -8.8000   24.5250 C.ar   24  TYR24       0.0417
     11  CZ       -10.6050   -9.0580   23.4010 C.ar   24  TYR24       0.1957
     12  OH        -9.9180   -9.2700   22.2410 O.3    24  TYR24      -0.2866
     13  N        -18.2010   -1.2170   26.9990 N.3    29  LEU29      -0.1231
     14  CA       -17.4250   -1.5600   25.8280 C.3    29  LEU29       0.1693
     15  C        -18.4050   -1.5020   24.5720 C.2    29  LEU29       0.2591
     16  O        -18.0780   -0.9500   23.5040 O.2    29  LEU29      -0.2718
     17  CB       -16.7990   -2.8880   25.8700 C.3    29  LEU29       0.0284
     18  CG       -16.0580   -3.4930   24.6570 C.3    29  LEU29       0.0019
     19  CD1      -14.9100   -2.5300   24.4020 C.3    29  LEU29       0.0001
     20  CD2      -15.4210   -4.8310   24.8170 C.3    29  LEU29       0.0001
     21  N        -19.5780   -2.1120   24.7750 N.am   30  ALA30      -0.1980
     22  CA       -20.5040   -2.2540   23.6820 C.3    30  ALA30       0.1597
     23  C        -20.8320   -0.8840   23.1150 C.2    30  ALA30       0.2287
     24  O        -20.8090   -0.7170   21.8730 O.2    30  ALA30      -0.2864
     25  CB       -21.7600   -2.9550   24.0550 C.3    30  ALA30       0.0319
     26  N        -18.0170    0.5440   21.0070 N.3    33  LEU33      -0.1245
     27  CA       -17.4110   -0.1640   19.8990 C.3    33  LEU33       0.1561
     28  C        -17.0660    0.6760   18.6280 C.2    33  LEU33       0.2260
     29  O        -16.0690    0.4300   18.0120 O.2    33  LEU33      -0.2867
     30  CB       -18.2790   -1.2940   19.4000 C.3    33  LEU33       0.0270
     31  CG       -18.3240   -2.4830   20.2610 C.3    33  LEU33       0.0019
     32  CD1      -19.3410   -3.3850   19.6890 C.3    33  LEU33       0.0001
     33  CD2      -16.9220   -3.1960   20.2810 C.3    33  LEU33       0.0001
     34  N        -13.4470    0.7330   17.0300 N.3    37  LEU37      -0.1245
     35  CA       -13.3450    0.3640   15.6180 C.3    37  LEU37       0.1561
     36  C        -14.0240    1.3730   14.6000 C.2    37  LEU37       0.2260
     37  O        -15.0250    1.0800   13.9640 O.2    37  LEU37      -0.2867
     38  CB       -13.8260   -1.0030   15.3080 C.3    37  LEU37       0.0270
     39  CG       -12.8160   -1.9750   16.0450 C.3    37  LEU37       0.0019
     40  CD1      -13.2810   -3.3840   16.4910 C.3    37  LEU37       0.0001
     41  CD2      -11.4450   -2.0060   15.4070 C.3    37  LEU37       0.0001
     42  N        -16.7430    1.5600   10.8200 N.3    40  ALA40      -0.1231
     43  CA       -17.4710    0.2310   10.6040 C.3    40  ALA40       0.1694
     44  C        -19.0450    0.4530   10.5490 C.2    40  ALA40       0.2592
     45  O        -19.7580    0.0380    9.6260 O.2    40  ALA40      -0.2718
     46  CB       -17.0380   -0.6680   11.8250 C.3    40  ALA40       0.0304
     47  N        -19.5720    1.2170   11.5280 N.am   41  PHE41      -0.1976
     48  CA       -21.0190    1.2050   11.7790 C.3    41  PHE41       0.1639
     49  C        -21.8960    2.2300   11.0630 C.2    41  PHE41       0.2290
     50  O        -21.5410    3.3760   10.9340 O.2    41  PHE41      -0.2864
     51  CB       -21.2280    1.4620   13.3040 C.3    41  PHE41       0.0560
     52  CG       -20.7300    0.3320   14.1110 C.ar   41  PHE41      -0.0200
     53  CD1      -21.4850   -0.7740   14.2790 C.ar   41  PHE41      -0.0042
     54  CD2      -19.5010    0.3470   14.6540 C.ar   41  PHE41      -0.0042
     55  CE1      -21.0910   -1.8380   15.0620 C.ar   41  PHE41      -0.0003
     56  CE2      -19.0710   -0.6750   15.4450 C.ar   41  PHE41      -0.0003
     57  CZ       -19.8390   -1.8290   15.6030 C.ar   41  PHE41      -0.0000
     58  N        -26.8350   -6.4020   21.2220 N.3    56  LEU56      -0.1245
     59  CA       -26.3540   -5.3390   20.4300 C.3    56  LEU56       0.1561
     60  C        -26.9610   -5.5810   18.9860 C.2    56  LEU56       0.2260
     61  O        -26.8000   -6.6450   18.4280 O.2    56  LEU56      -0.2867
     62  CB       -24.8730   -5.4350   20.3110 C.3    56  LEU56       0.0270
     63  CG       -23.9490   -5.3830   21.5080 C.3    56  LEU56       0.0019
     64  CD1      -24.0060   -6.7680   22.0640 C.3    56  LEU56       0.0001
     65  CD2      -22.5450   -5.2810   21.0680 C.3    56  LEU56       0.0001
     66  N        -26.3930   -4.4470   15.4240 N.3    58  MET58      -0.1245
     67  CA       -25.3160   -3.8180   14.6990 C.3    58  MET58       0.1570
     68  C        -25.6340   -3.6660   13.2230 C.2    58  MET58       0.2261
     69  O        -25.8980   -4.7240   12.6060 O.2    58  MET58      -0.2867
     70  CB       -24.0410   -4.6920   14.8720 C.3    58  MET58       0.0387
     71  CG       -23.6070   -4.8540   16.3480 C.3    58  MET58       0.0595
     72  SD       -22.1780   -5.9320   16.4470 S.3    58  MET58      -0.1393
     73  CE       -20.8460   -4.9240   16.7880 C.3    58  MET58       0.0692
     74  N        -24.0070   -2.2510    9.6360 N.3    60  PHE60      -0.1241
     75  CA       -22.7920   -1.7990    9.0060 C.3    60  PHE60       0.1605
     76  C        -23.0340   -1.0220    7.6860 C.2    60  PHE60       0.2264
     77  O        -24.0500   -1.0460    7.0510 O.2    60  PHE60      -0.2867
     78  CB       -21.8730   -3.0230    8.7500 C.3    60  PHE60       0.0534
     79  CG       -21.5730   -3.7580    9.9660 C.ar   60  PHE60      -0.0203
     80  CD1      -20.6150   -3.3050   10.8660 C.ar   60  PHE60      -0.0042
     81  CD2      -22.3820   -4.8470   10.3800 C.ar   60  PHE60      -0.0042
     82  CE1      -20.3970   -4.0070   11.9910 C.ar   60  PHE60      -0.0003
     83  CE2      -22.1860   -5.4880   11.6470 C.ar   60  PHE60      -0.0003
     84  CZ       -21.2410   -5.0760   12.4620 C.ar   60  PHE60      -0.0000
     85  N        -26.8010   -7.6310   12.0460 N.3    69  TYR69      -0.1241
     86  CA       -27.1010   -8.7110   12.8410 C.3    69  TYR69       0.1605
     87  C        -27.2460   -8.2800   14.3090 C.2    69  TYR69       0.2264
     88  O        -26.7530   -7.2040   14.6930 O.2    69  TYR69      -0.2867
     89  CB       -26.0820   -9.8370   12.7890 C.3    69  TYR69       0.0534
     90  CG       -24.6680   -9.4670   12.8920 C.ar   69  TYR69      -0.0201
     91  CD1      -24.0810   -9.2680   14.1230 C.ar   69  TYR69      -0.0009
     92  CD2      -23.8610   -9.2760   11.7530 C.ar   69  TYR69      -0.0009
     93  CE1      -22.7430   -8.9650   14.2490 C.ar   69  TYR69       0.0417
     94  CE2      -22.4960   -8.9920   11.9020 C.ar   69  TYR69       0.0417
     95  CZ       -21.9870   -8.8060   13.1760 C.ar   69  TYR69       0.1957
     96  OH       -20.6220   -8.5500   13.2550 O.3    69  TYR69      -0.2866
     97  N        -26.3950   -9.4640   18.3150 N.3    71  GLU71      -0.1245
     98  CA       -25.4000  -10.2270   19.0960 C.3    71  GLU71       0.1567
     99  C        -25.9400  -10.1720   20.5520 C.2    71  GLU71       0.2260
    100  O        -26.6350   -9.1940   20.8900 O.2    71  GLU71      -0.2867
    101  CB       -24.0420   -9.5490   19.1920 C.3    71  GLU71       0.0388
    102  CG       -23.3380   -9.5180   17.8730 C.3    71  GLU71       0.1160
    103  CD       -22.8090  -10.8870   17.4710 C.2    71  GLU71       0.3649
    104  OE1      -23.3990  -11.4770   16.5800 O.co2  71  GLU71      -0.2457
    105  OE2      -21.8610  -11.4230   18.0270 O.co2  71  GLU71      -0.2457
    106  N        -24.6500  -11.1160   24.6900 N.3    73  PHE73      -0.1241
    107  CA       -23.5740  -11.5430   25.6250 C.3    73  PHE73       0.1605
    108  C        -24.1450  -12.7580   26.3840 C.2    73  PHE73       0.2264
    109  O        -25.1100  -12.6620   27.1230 O.2    73  PHE73      -0.2867
    110  CB       -23.1870  -10.4390   26.6270 C.3    73  PHE73       0.0534
    111  CG       -22.4900   -9.2490   26.0250 C.ar   73  PHE73      -0.0203
    112  CD1      -22.0350   -9.2220   24.7010 C.ar   73  PHE73      -0.0042
    113  CD2      -22.0840   -8.2070   26.8420 C.ar   73  PHE73      -0.0042
    114  CE1      -21.3320   -8.1340   24.1930 C.ar   73  PHE73      -0.0003
    115  CE2      -21.4570   -7.1000   26.3170 C.ar   73  PHE73      -0.0003
    116  CZ       -21.0900   -7.0700   24.9790 C.ar   73  PHE73      -0.0000
    117  N        -15.3120  -14.8190   27.7120 N.3    83  LYS83      -0.1197
    118  CA       -16.4950  -14.1120   27.1910 C.3    83  LYS83       0.1778
    119  C        -17.0880  -14.8760   25.9840 C.2    83  LYS83       0.2305
    120  O        -16.3320  -15.2850   25.1160 O.2    83  LYS83      -0.2863
    121  CB       -16.1620  -12.6870   26.7580 C.2    83  LYS83      -0.0042
    122  CG       -17.3760  -11.7050   26.5830 C.2    83  LYS83      -0.0273
    123  CD       -17.0120  -10.2980   26.2370 C.3    83  LYS83       0.0462
    124  CE       -18.1990   -9.3490   26.3930 C.3    83  LYS83       0.1140
    125  NZ       -17.6400   -7.9720   26.0840 N.3    83  LYS83      -0.1310
    126  N        -20.2150  -14.5590   23.0110 N.3    85  VAL85      -0.1245
    127  CA       -21.1040  -13.5990   22.4230 C.3    85  VAL85       0.1561
    128  C        -21.7180  -14.3560   21.1910 C.2    85  VAL85       0.2260
    129  O        -20.9980  -14.8300   20.3920 O.2    85  VAL85      -0.2867
    130  CB       -20.3810  -12.3680   21.9620 C.3    85  VAL85       0.0252
    131  CG1      -21.3900  -11.3350   21.2920 C.3    85  VAL85       0.0019
    132  CG2      -19.6120  -11.7650   23.1480 C.3    85  VAL85       0.0019
    133  N        -24.3780  -14.7290   17.9580 N.3    87  MET87      -0.1245
    134  CA       -25.1540  -14.0840   16.8820 C.3    87  MET87       0.1570
    135  C        -26.5510  -14.6810   16.9060 C.2    87  MET87       0.2261
    136  O        -26.7260  -15.8920   16.6740 O.2    87  MET87      -0.2867
    137  CB       -24.5110  -14.2840   15.5590 C.3    87  MET87       0.0387
    138  CG       -25.1690  -13.4280   14.4250 C.3    87  MET87       0.0595
    139  SD       -24.2040  -13.5180   12.8800 S.3    87  MET87      -0.1393
    140  CE       -22.5710  -12.8030   13.2830 C.3    87  MET87       0.0692
    141  N        -19.1110  -16.6450   19.2620 N.3   102  ASP102     -0.1239
    142  CA       -17.7400  -16.1930   19.4290 C.3   102  ASP102      0.1674
    143  C        -17.3160  -16.3720   20.8860 C.2   102  ASP102      0.2266
    144  O        -18.1050  -16.0540   21.7800 O.2   102  ASP102     -0.2867
    145  CB       -17.6280  -14.7340   19.0440 C.3   102  ASP102      0.1410
    146  CG       -17.6700  -14.5070   17.5000 C.2   102  ASP102      0.3668
    147  OD1      -17.1730  -15.3780   16.7660 O.co2 102  ASP102     -0.2456
    148  OD2      -18.1760  -13.4390   17.1010 O.co2 102  ASP102     -0.2456
    149  N        -13.9290  -15.5690   23.6000 N.3   104  ILE104     -0.1245
    150  CA       -12.7160  -14.8380   23.8030 C.3   104  ILE104      0.1561
    151  C        -12.2180  -15.2770   25.2030 C.2   104  ILE104      0.2260
    152  O        -12.9610  -15.2010   26.1790 O.2   104  ILE104     -0.2867
    153  CB       -12.8890  -13.3500   23.7350 C.3   104  ILE104      0.0252
    154  CG1      -13.3540  -12.9160   22.2860 C.3   104  ILE104      0.0019
    155  CG2      -11.6180  -12.5780   24.0370 C.3   104  ILE104      0.0019
    156  CD1      -14.4900  -11.9680   22.4680 C.3   104  ILE104      0.0001
    157  N        -12.9810  -10.3910   12.3690 N.3   140  PRO140     -0.2102
    158  CA       -13.5630   -9.4060   13.2930 C.3   140  PRO140      0.1504
    159  C        -12.9950   -9.5480   14.7780 C.2   140  PRO140      0.2575
    160  O        -12.8130   -8.5360   15.4550 O.2   140  PRO140     -0.2718
    161  CB       -15.0010   -9.7170   13.2690 C.3   140  PRO140      0.0282
    162  CG       -15.2690  -10.4110   11.9960 C.3   140  PRO140      0.0208
    163  CD       -13.9710  -11.0550   11.5500 C.3   140  PRO140      0.0893
    164  N        -12.7920  -10.8020   15.1840 N.am  141  LEU141     -0.1980
    165  CA       -12.2010  -11.0290   16.5450 C.3   141  LEU141      0.1596
    166  C        -10.7250  -10.5900   16.5830 C.2   141  LEU141      0.2287
    167  O        -10.3060  -10.0320   17.6000 O.2   141  LEU141     -0.2864
    168  CB       -12.3620  -12.4660   16.9490 C.3   141  LEU141      0.0297
    169  CG       -13.8000  -12.9500   17.0730 C.3   141  LEU141      0.0022
    170  CD1      -13.9440  -14.3450   17.6960 C.3   141  LEU141      0.0001
    171  CD2      -14.5460  -12.0240   18.0070 C.3   141  LEU141      0.0001
    172  N        -10.6820   -6.8150   16.8860 N.3   144  MET144     -0.1245
    173  CA       -10.9880   -6.3970   18.2390 C.3   144  MET144      0.1570
    174  C         -9.7560   -6.6240   19.1750 C.2   144  MET144      0.2261
    175  O         -9.4240   -5.7950   19.9030 O.2   144  MET144     -0.2867
    176  CB       -12.2320   -7.0980   18.7510 C.3   144  MET144      0.0387
    177  CG       -12.6720   -6.6610   20.1310 C.3   144  MET144      0.0595
    178  SD       -14.4340   -7.3130   20.1530 S.3   144  MET144     -0.1393
    179  CE       -14.2000   -9.0400   19.8380 C.3   144  MET144      0.0692
@<TRIPOS>BOND
     1    77    76    2
     2    76    75    1
     3    78    75    1
     4    78    79    1
     5    75    74    1
     6    45    44    2
     7    79    81   ar
     8    79    80   ar
     9    81    83   ar
    10    44    43    1
    11    44    47   am
    12    43    42    1
    13    43    46    1
    14    80    82   ar
    15    50    49    2
    16    49    48    1
    17    47    48    1
    18   163   162    1
    19   163   157    1
    20    83    84   ar
    21    92    94   ar
    22    92    90   ar
    23    48    51    1
    24    94    95   ar
    25    82    84   ar
    26   162   161    1
    27    85    86    1
    28   157   158    1
    29    69    68    2
    30    89    86    1
    31    89    90    1
    32    86    87    1
    33   139   140    1
    34   139   138    1
    35    90    91   ar
    36    95    96    1
    37    95    93   ar
    38    68    67    1
    39   161   158    1
    40   158   159    1
    41    51    52    1
    42    37    36    2
    43    52    53   ar
    44    52    54   ar
    45    91    93   ar
    46    53    55   ar
    47    87    88    2
    48   138   137    1
    49    36    35    1
    50    54    56   ar
    51    67    70    1
    52    67    66    1
    53   159   164   am
    54   159   160    2
    55    70    71    1
    56    55    57   ar
    57   164   165    1
    58    38    35    1
    59    38    39    1
    60    41    39    1
    61    56    57   ar
    62   137   134    1
    63    35    34    1
    64    39    40    1
    65    71    72    1
    66    72    73    1
    67   165   166    1
    68   165   168    1
    69   104   103   ar
    70   166   167    2
    71   136   135    2
    72   147   146   ar
    73   134   135    1
    74   134   133    1
    75   172   173    1
    76   168   169    1
    77   169   170    1
    78   169   171    1
    79   148   146   ar
    80   103   102    1
    81   103   105   ar
    82   146   145    1
    83   102   101    1
    84    29    28    2
    85   173   176    1
    86   173   174    1
    87    97    98    1
    88    61    60    2
    89    28    27    1
    90   176   177    1
    91    60    59    1
    92   145   142    1
    93    98   101    1
    94    98    99    1
    95   174   175    2
    96   141   142    1
    97    30    27    1
    98    30    31    1
    99   142   143    1
   100    32    31    1
   101   179   178    1
   102    27    26    1
   103   177   178    1
   104    31    33    1
   105    62    59    1
   106    62    63    1
   107   129   128    2
   108    59    58    1
   109    99   100    2
   110   143   144    2
   111    65    63    1
   112   128   127    1
   113   131   130    1
   114    63    64    1
   115    24    23    2
   116   130   127    1
   117   130   132    1
   118    12    11    1
   119   154   156    1
   120   154   153    1
   121   127   126    1
   122    23    22    1
   123    11     9   ar
   124    11    10   ar
   125     9     7   ar
   126    16    15    2
   127   149   150    1
   128    22    25    1
   129    22    21    1
   130   153   150    1
   131   153   155    1
   132   150   151    1
   133   114   112   ar
   134   114   116   ar
   135    19    18    1
   136    10     8   ar
   137    15    21   am
   138    15    14    1
   139     7     6   ar
   140    18    20    1
   141    18    17    1
   142   106   107    1
   143   112   111   ar
   144   116   115   ar
   145   120   119    2
   146   151   152    2
   147   107   108    1
   148   107   110    1
   149     8     6   ar
   150     6     5    1
   151    14    17    1
   152    14    13    1
   153   119   118    1
   154   111   110    1
   155   111   113   ar
   156   125   124    1
   157   123   124    1
   158   123   122    1
   159   115   113   ar
   160   108   109    2
   161   122   121    2
   162   121   118    1
   163     5     2    1
   164   118   117    1
   165     2     1    1
   166     2     3    1
   167     4     3    2
