@<TRIPOS>MOLECULE
tmp/5norA01.pdb
 90 84 0 0 0
SMALL
GASTEIGER

@<TRIPOS>ATOM
      1  N          2.5060   11.0250  -11.5720 N.3    63  GLN63      -0.1245
      2  CA         1.3970   11.9980  -11.5930 C.3    63  GLN63       0.1566
      3  C          1.3050   12.7890  -12.9110 C.2    63  GLN63       0.2260
      4  O          2.3060   13.2840  -13.4760 O.2    63  GLN63      -0.2867
      5  CB         1.5320   12.9810  -10.4430 C.3    63  GLN63       0.0367
      6  CG         0.3140   13.8900  -10.2980 C.3    63  GLN63       0.0905
      7  CD         0.3140   14.7170   -9.0210 C.2    63  GLN63       0.2608
      8  OE1        0.9120   14.3340   -8.0190 O.2    63  GLN63      -0.2717
      9  NE2       -0.3850   15.8730   -9.0460 N.am   63  GLN63      -0.0878
     10  N          1.3990   20.5740  -12.3060 N.3    72  GLY72      -0.1210
     11  CA         0.7570   20.2760  -11.0230 C.3    72  GLY72       0.1956
     12  C         -0.0930   21.3370  -10.3740 C.2    72  GLY72       0.2613
     13  O         -0.6750   21.0990   -9.2940 O.2    72  GLY72      -0.2717
     14  N         -0.1920   22.5160  -10.9940 N.am   73  THR73      -0.1938
     15  CA        -1.0280   23.5950  -10.4010 C.3    73  THR73       0.2028
     16  C         -2.3430   23.7910  -11.1070 C.2    73  THR73       0.2643
     17  O         -3.1270   24.6080  -10.6460 O.2    73  THR73      -0.2714
     18  CB        -0.2700   24.9420  -10.4230 C.3    73  THR73       0.1808
     19  OG1        0.0070   25.3060  -11.8000 O.3    73  THR73      -0.2208
     20  CG2        1.0690   24.8020   -9.6790 C.3    73  THR73       0.0379
     21  N         -2.6110   23.0750  -12.2000 N.am   74  GLY74      -0.1939
     22  CA        -3.7700   23.2980  -13.0410 C.3    74  GLY74       0.2014
     23  C         -4.6730   22.1080  -13.2180 C.2    74  GLY74       0.2639
     24  O         -4.6980   21.1700  -12.3650 O.2    74  GLY74      -0.2714
     25  N         -5.4090   22.1020  -14.3310 N.am   75  GLY75      -0.1954
     26  CA        -6.3700   21.0690  -14.5950 C.3    75  GLY75       0.1869
     27  C         -7.7910   21.4650  -14.2010 C.2    75  GLY75       0.2309
     28  O         -7.9820   22.3570  -13.3930 O.2    75  GLY75      -0.2863
     29  N        -14.3560   23.4470  -12.3730 N.3    81  GLU81      -0.1231
     30  CA       -12.9490   23.4680  -11.9580 C.3    81  GLU81       0.1699
     31  C        -12.6200   22.3170  -11.0070 C.2    81  GLU81       0.2592
     32  O        -11.5940   21.6530  -11.1290 O.2    81  GLU81      -0.2718
     33  CB       -12.6890   24.7670  -11.2080 C.3    81  GLU81       0.0402
     34  CG       -12.6000   25.9670  -12.1100 C.3    81  GLU81       0.1161
     35  CD       -11.3770   25.8700  -13.0060 C.2    81  GLU81       0.3649
     36  OE1      -10.2620   25.9590  -12.4060 O.co2  81  GLU81      -0.2457
     37  OE2      -11.5730   25.6740  -14.2590 O.co2  81  GLU81      -0.2457
     38  N        -13.4850   22.1380  -10.0090 N.am   82  LYS82      -0.1980
     39  CA       -13.2380   21.1580   -8.9250 C.3    82  LYS82       0.1596
     40  C        -14.5320   20.3920   -8.6850 C.2    82  LYS82       0.2287
     41  O        -15.6050   20.8910   -8.9830 O.2    82  LYS82      -0.2864
     42  CB       -12.8830   21.8580   -7.6060 C.3    82  LYS82       0.0298
     43  CG       -11.5090   22.4680   -7.5660 C.3    82  LYS82       0.0038
     44  CD       -11.4270   23.4690   -6.4110 C.3    82  LYS82       0.0206
     45  CE       -10.0660   24.1700   -6.2600 C.3    82  LYS82       0.1093
     46  NZ        -8.8560   23.3820   -6.7030 N.3    82  LYS82      -0.1314
     47  N         -5.3700   13.1200   -7.6670 N.3   101  ALA101     -0.1231
     48  CA        -4.5570   14.0810   -6.9620 C.3   101  ALA101      0.1694
     49  C         -5.5160   15.1560   -6.4490 C.2   101  ALA101      0.2592
     50  O         -6.5600   15.3170   -7.0080 O.2   101  ALA101     -0.2718
     51  CB        -3.5000   14.6850   -7.8930 C.3   101  ALA101      0.0304
     52  N         -5.1410   15.9220   -5.4500 N.am  102  ASN102     -0.1960
     53  CA        -5.9860   17.0330   -5.0420 C.3   102  ASN102      0.1819
     54  C         -5.1760   17.9980   -4.2070 C.2   102  ASN102      0.2621
     55  O         -3.9770   17.7730   -3.9620 O.2   102  ASN102     -0.2715
     56  CB        -7.2410   16.5130   -4.2450 C.3   102  ASN102      0.1195
     57  CG        -6.8690   15.8520   -2.9470 C.2   102  ASN102      0.2630
     58  OD1       -6.1030   16.3990   -2.1170 O.2   102  ASN102     -0.2716
     59  ND2       -7.4240   14.6540   -2.7340 N.am  102  ASN102     -0.0877
     60  N         -5.7900   19.0980   -3.8100 N.am  103  ALA103     -0.1977
     61  CA        -5.1270   20.1290   -3.0300 C.3   103  ALA103      0.1597
     62  C         -5.9090   20.4300   -1.7710 C.2   103  ALA103      0.2287
     63  O         -5.9310   21.5520   -1.3400 O.2   103  ALA103     -0.2864
     64  CB        -5.0290   21.4010   -3.8950 C.3   103  ALA103      0.0319
     65  N        -11.4410   18.8880   -3.8920 N.3   107  THR107     -0.1218
     66  CA       -10.7320   19.7600   -4.8760 C.3   107  THR107      0.1862
     67  C        -10.2480   18.8950   -6.0610 C.2   107  THR107      0.2287
     68  O         -9.2860   19.2340   -6.7490 O.2   107  THR107     -0.2866
     69  CB        -9.5550   20.5190   -4.2780 C.3   107  THR107      0.1770
     70  OG1       -8.6510   19.5790   -3.7050 O.3   107  THR107     -0.2211
     71  CG2      -10.0200   21.4800   -3.2120 C.3   107  THR107      0.0375
     72  N         -9.8820   17.6730   -9.8220 N.3   109  GLY109     -0.1210
     73  CA       -10.0370   18.3800  -11.0940 C.3   109  GLY109      0.1956
     74  C         -9.8100   17.3190  -12.1680 C.2   109  GLY109      0.2613
     75  O        -10.6590   16.4820  -12.4290 O.2   109  GLY109     -0.2717
     76  N         -8.6220   17.3690  -12.7450 N.am  110  SER110     -0.1938
     77  CA        -8.1860   16.3650  -13.7440 C.3   110  SER110      0.2055
     78  C         -6.9240   15.6440  -13.3490 C.2   110  SER110      0.2642
     79  O         -6.5930   14.5900  -13.9310 O.2   110  SER110     -0.2714
     80  CB        -8.0490   17.0060  -15.0940 C.3   110  SER110      0.2130
     81  OG        -7.1160   18.0660  -14.9620 O.3   110  SER110     -0.2179
     82  N         -6.1670   16.1820  -12.3910 N.am  111  GLN111     -0.1976
     83  CA        -4.9050   15.5130  -12.0410 C.3   111  GLN111      0.1601
     84  C         -5.0930   14.1760  -11.3080 C.2   111  GLN111      0.2287
     85  O         -5.9820   14.0420  -10.4760 O.2   111  GLN111     -0.2864
     86  CB        -4.0310   16.4270  -11.2320 C.3   111  GLN111      0.0394
     87  CG        -3.4900   17.5780  -12.0570 C.3   111  GLN111      0.0908
     88  CD        -2.5090   18.3490  -11.2130 C.2   111  GLN111      0.2608
     89  OE1       -1.4480   17.7910  -10.8110 O.2   111  GLN111     -0.2717
     90  NE2       -2.8240   19.6130  -10.9280 N.am  111  GLN111     -0.0878
@<TRIPOS>BOND
     1    80    81    1
     2    80    77    1
     3    26    25    1
     4    26    27    1
     5    25    23   am
     6    37    35   ar
     7    27    28    2
     8    79    78    2
     9    77    78    1
    10    77    76    1
    11     4     3    2
    12    78    82   am
    13    23    22    1
    14    23    24    2
    15    22    21    1
    16    35    36   ar
    17    35    34    1
    18     3     2    1
    19    76    74   am
    20    75    74    2
    21    82    83    1
    22    29    30    1
    23    10    11    1
    24    21    16   am
    25    74    73    1
    26    34    33    1
    27    87    86    1
    28    87    88    1
    29    83    84    1
    30    83    86    1
    31    30    33    1
    32    30    31    1
    33    19    18    1
    34     2     1    1
    35     2     5    1
    36    84    85    2
    37    88    90   am
    38    88    89    2
    39    32    31    2
    40    16    17    2
    41    16    15    1
    42    73    72    1
    43    11    12    1
    44    31    38   am
    45    14    15    1
    46    14    12   am
    47     5     6    1
    48    18    15    1
    49    18    20    1
    50    12    13    2
    51     6     7    1
    52    38    39    1
    53     9     7   am
    54     7     8    2
    55    41    40    2
    56    39    40    1
    57    39    42    1
    58    51    48    1
    59    47    48    1
    60    42    43    1
    61    43    44    1
    62    50    49    2
    63    48    49    1
    64    68    67    2
    65    46    45    1
    66    49    52   am
    67    44    45    1
    68    67    66    1
    69    52    53    1
    70    53    56    1
    71    53    54    1
    72    66    69    1
    73    66    65    1
    74    69    70    1
    75    69    71    1
    76    56    57    1
    77    54    55    2
    78    54    60   am
    79    64    61    1
    80    60    61    1
    81    61    62    1
    82    57    59   am
    83    57    58    2
    84    62    63    2
