@<TRIPOS>MOLECULE
tmp/5notA01.pdb
 66 60 0 0 0
SMALL
GASTEIGER

@<TRIPOS>ATOM
      1  N          2.5830   11.1420  -11.5030 N.3    63  GLN63      -0.1245
      2  CA         1.4350   12.0720  -11.5300 C.3    63  GLN63       0.1566
      3  C          1.3450   12.8170  -12.8080 C.2    63  GLN63       0.2260
      4  O          2.3520   13.3080  -13.3280 O.2    63  GLN63      -0.2867
      5  CB         1.5730   13.0970  -10.3810 C.3    63  GLN63       0.0367
      6  CG         0.3710   14.0510  -10.2700 C.3    63  GLN63       0.0905
      7  CD         0.2770   14.7860   -9.0130 C.2    63  GLN63       0.2608
      8  OE1        0.7150   14.2750   -7.9570 O.2    63  GLN63      -0.2717
      9  NE2       -0.3040   16.0200   -9.0470 N.am   63  GLN63      -0.0878
     10  N          1.5070   20.7280  -12.4050 N.3    72  GLY72      -0.1210
     11  CA         0.9370   20.3670  -11.0870 C.3    72  GLY72       0.1956
     12  C          0.0670   21.3490  -10.4340 C.2    72  GLY72       0.2613
     13  O         -0.5020   21.1080   -9.3640 O.2    72  GLY72      -0.2717
     14  N         -0.0720   22.5530  -10.9850 N.am   73  THR73      -0.1938
     15  CA        -0.8680   23.5880  -10.3750 C.3    73  THR73       0.2028
     16  C         -2.2210   23.7850  -11.0570 C.2    73  THR73       0.2643
     17  O         -2.9860   24.6510  -10.6320 O.2    73  THR73      -0.2714
     18  CB        -0.0940   24.9100  -10.3520 C.3    73  THR73       0.1808
     19  OG1        0.1530   25.3920  -11.6890 O.3    73  THR73      -0.2208
     20  CG2        1.1560   24.7950   -9.6560 C.3    73  THR73       0.0379
     21  N         -2.5400   23.0610  -12.1400 N.am   74  GLY74      -0.1939
     22  CA        -3.6860   23.2730  -12.9270 C.3    74  GLY74       0.2014
     23  C         -4.5870   22.0850  -13.1370 C.2    74  GLY74       0.2639
     24  O         -4.6570   21.1910  -12.2970 O.2    74  GLY74      -0.2714
     25  N         -5.3350   22.0690  -14.2340 N.am   75  GLY75      -0.1954
     26  CA        -6.3220   21.0790  -14.5000 C.3    75  GLY75       0.1869
     27  C         -7.7140   21.4980  -14.1640 C.2    75  GLY75       0.2309
     28  O         -7.9230   22.4150  -13.4130 O.2    75  GLY75      -0.2863
     29  N         -5.3060   13.2530   -7.6420 N.3   101  ALA101     -0.1231
     30  CA        -4.5180   14.2620   -6.9480 C.3   101  ALA101      0.1694
     31  C         -5.4500   15.3820   -6.4620 C.2   101  ALA101      0.2592
     32  O         -6.5440   15.5290   -6.9710 O.2   101  ALA101     -0.2718
     33  CB        -3.5340   14.7950   -7.9700 C.3   101  ALA101      0.0304
     34  N         -5.0540   16.1050   -5.4390 N.am  102  ASN102     -0.1960
     35  CA        -5.8340   17.1920   -4.9620 C.3   102  ASN102      0.1819
     36  C         -5.0090   18.1510   -4.1780 C.2   102  ASN102      0.2621
     37  O         -3.8430   17.8850   -3.9230 O.2   102  ASN102     -0.2715
     38  CB        -7.1240   16.6710   -4.2060 C.3   102  ASN102      0.1195
     39  CG        -6.7900   16.0440   -2.9310 C.2   102  ASN102      0.2630
     40  OD1       -6.0130   16.6000   -2.0980 O.2   102  ASN102     -0.2716
     41  ND2       -7.3050   14.8500   -2.7130 N.am  102  ASN102     -0.0877
     42  N         -5.6460   19.2700   -3.8820 N.am  103  ALA103     -0.1977
     43  CA        -5.0160   20.3300   -3.1040 C.3   103  ALA103      0.1597
     44  C         -5.8110   20.6490   -1.8870 C.2   103  ALA103      0.2287
     45  O         -5.8110   21.7850   -1.4410 O.2   103  ALA103     -0.2864
     46  CB        -4.9810   21.5560   -3.9760 C.3   103  ALA103      0.0319
     47  N        -11.3700   19.0250   -3.9120 N.3   107  THR107     -0.1218
     48  CA       -10.6420   19.8160   -4.8900 C.3   107  THR107      0.1862
     49  C        -10.2070   18.9330   -6.0630 C.2   107  THR107      0.2287
     50  O         -9.1710   19.2260   -6.7000 O.2   107  THR107     -0.2866
     51  CB        -9.4520   20.5720   -4.3130 C.3   107  THR107      0.1770
     52  OG1       -8.5060   19.7190   -3.7870 O.3   107  THR107     -0.2211
     53  CG2       -9.8300   21.5680   -3.2990 C.3   107  THR107      0.0375
     54  N         -9.8520   17.7070   -9.8050 N.3   109  GLY109     -0.1225
     55  CA        -9.9370   18.3820  -11.0760 C.3   109  GLY109      0.1811
     56  C         -9.7300   17.3200  -12.1570 C.2   109  GLY109      0.2280
     57  O        -10.5260   16.4540  -12.4290 O.2   109  GLY109     -0.2866
     58  N         -6.0700   16.2070  -12.4030 N.3   111  GLN111     -0.1245
     59  CA        -4.7980   15.5580  -12.0920 C.3   111  GLN111      0.1566
     60  C         -5.0220   14.2500  -11.3240 C.2   111  GLN111      0.2260
     61  O         -5.9510   14.1150  -10.5070 O.2   111  GLN111     -0.2867
     62  CB        -3.8790   16.4480  -11.2700 C.3   111  GLN111      0.0367
     63  CG        -3.3710   17.6590  -12.0400 C.3   111  GLN111      0.0905
     64  CD        -2.3550   18.3630  -11.2300 C.2   111  GLN111      0.2608
     65  OE1       -1.2800   17.8170  -10.9410 O.2   111  GLN111     -0.2717
     66  NE2       -2.6570   19.6290  -10.9130 N.am  111  GLN111     -0.0878
@<TRIPOS>BOND
     1    26    25    1
     2    26    27    1
     3    25    23   am
     4    27    28    2
     5     4     3    2
     6    23    22    1
     7    23    24    2
     8    22    21    1
     9     3     2    1
    10    57    56    2
    11    10    11    1
    12    58    59    1
    13    56    55    1
    14    21    16   am
    15    59    60    1
    16    59    62    1
    17    63    62    1
    18    63    64    1
    19    19    18    1
    20     2     1    1
    21     2     5    1
    22    60    61    2
    23    64    65    2
    24    64    66   am
    25    11    12    1
    26    55    54    1
    27    16    17    2
    28    16    15    1
    29    14    12   am
    30    14    15    1
    31    12    13    2
    32     5     6    1
    33    15    18    1
    34    18    20    1
    35     6     7    1
    36     9     7   am
    37     7     8    2
    38    33    30    1
    39    29    30    1
    40    32    31    2
    41    30    31    1
    42    50    49    2
    43    31    34   am
    44    49    48    1
    45    34    35    1
    46    35    38    1
    47    35    36    1
    48    48    51    1
    49    48    47    1
    50    51    52    1
    51    51    53    1
    52    38    39    1
    53    36    37    2
    54    36    42   am
    55    46    43    1
    56    42    43    1
    57    43    44    1
    58    39    41   am
    59    39    40    2
    60    44    45    2
