@<TRIPOS>MOLECULE
tmp/5novA00.pdb
 90 86 0 0 0
SMALL
GASTEIGER

@<TRIPOS>ATOM
      1  N          4.9870   14.7760  -12.6770 N.3    55  ARG55      -0.1245
      2  CA         5.4810   14.4050  -11.3730 C.3    55  ARG55       0.1563
      3  C          5.3810   12.8960  -11.2840 C.2    55  ARG55       0.2260
      4  O          4.2600   12.3560  -11.2870 O.2    55  ARG55      -0.2867
      5  CB         4.6110   15.0060  -10.2530 C.3    55  ARG55       0.0307
      6  CG         5.1370   14.6600   -8.8780 C.3    55  ARG55       0.0489
      7  CD         4.5400   15.5770   -7.8100 C.3    55  ARG55       0.2205
      8  NE         5.1600   15.3120   -6.5030 N.pl3  55  ARG55      -0.0865
      9  CZ         4.4790   14.9250   -5.4190 C.cat  55  ARG55       0.5346
     10  NH1        3.1310   14.7650   -5.4390 N.pl3  55  ARG55       0.1354
     11  NH2        5.1360   14.7020   -4.2900 N.pl3  55  ARG55       0.1354
     12  N          6.1810    4.9010   -6.0570 N.3    60  PHE60      -0.1227
     13  CA         5.0680    5.6070   -5.4700 C.3    60  PHE60       0.1736
     14  C          3.9190    5.8060   -6.4760 C.2    60  PHE60       0.2595
     15  O          2.9910    5.0810   -6.4190 O.2    60  PHE60      -0.2718
     16  CB         5.5010    6.8830   -4.7880 C.3    60  PHE60       0.0547
     17  CG         4.3980    7.6560   -4.1530 C.ar   60  PHE60      -0.0202
     18  CD1        3.3130    7.0450   -3.6240 C.ar   60  PHE60      -0.0042
     19  CD2        4.4860    9.0020   -4.0500 C.ar   60  PHE60      -0.0042
     20  CE1        2.3040    7.7740   -3.0520 C.ar   60  PHE60      -0.0003
     21  CE2        3.5030    9.7320   -3.4760 C.ar   60  PHE60      -0.0003
     22  CZ         2.3990    9.1180   -2.9870 C.ar   60  PHE60      -0.0000
     23  N          4.0200    6.7460   -7.3960 N.am   61  MET61      -0.1979
     24  CA         2.9700    7.0170   -8.3550 C.3    61  MET61       0.1605
     25  C          3.4220    7.8950   -9.5160 C.2    61  MET61       0.2287
     26  O          4.4650    8.4890   -9.4600 O.2    61  MET61      -0.2864
     27  CB         1.8390    7.7700   -7.6800 C.3    61  MET61       0.0413
     28  CG         2.3410    8.9250   -6.8560 C.3    61  MET61       0.0598
     29  SD         2.1500   10.3780   -7.8220 S.3    61  MET61      -0.1393
     30  CE         3.4180   11.3790   -7.2070 C.3    61  MET61       0.0692
     31  N          1.7610   11.0940  -11.6700 N.3    63  GLN63      -0.1245
     32  CA         0.7200   12.1040  -11.7270 C.3    63  GLN63       0.1566
     33  C          0.7540   12.9560  -12.9880 C.2    63  GLN63       0.2260
     34  O          1.8020   13.4950  -13.3350 O.2    63  GLN63      -0.2867
     35  CB         0.8380   13.0330  -10.5260 C.3    63  GLN63       0.0367
     36  CG        -0.1700   14.1610  -10.5270 C.3    63  GLN63       0.0905
     37  CD        -0.3130   14.7900   -9.1680 C.2    63  GLN63       0.2608
     38  OE1        0.0600   14.1680   -8.2050 O.2    63  GLN63      -0.2717
     39  NE2       -0.8550   16.0300   -9.0940 N.am   63  GLN63      -0.0878
     40  N         -6.1050   13.5330   -7.8910 N.3   101  ALA101     -0.1231
     41  CA        -5.1330   14.3060   -7.0960 C.3   101  ALA101      0.1694
     42  C         -6.0210   15.3840   -6.6240 C.2   101  ALA101      0.2592
     43  O         -7.0910   15.6100   -7.2120 O.2   101  ALA101     -0.2718
     44  CB        -4.0180   14.9170   -7.9790 C.3   101  ALA101      0.0304
     45  N         -5.6400   16.0680   -5.5920 N.am  102  ASN102     -0.1974
     46  CA        -6.4090   17.2110   -5.1480 C.3   102  ASN102      0.1688
     47  C         -5.5890   18.1500   -4.3180 C.2   102  ASN102      0.2292
     48  O         -4.5180   17.8410   -3.9030 O.2   102  ASN102     -0.2864
     49  CB        -7.6540   16.8000   -4.3800 C.3   102  ASN102      0.1181
     50  CG        -7.3190   16.0550   -3.1450 C.2   102  ASN102      0.2629
     51  OD1       -6.5620   16.4820   -2.3550 O.2   102  ASN102     -0.2716
     52  ND2       -7.8220   14.8980   -3.0400 N.am  102  ASN102     -0.0877
     53  N         -3.5720   10.4560  -10.5580 N.3   113  PHE113     -0.1241
     54  CA        -2.3700    9.7150  -10.3810 C.3   113  PHE113      0.1605
     55  C         -2.6770    8.2340  -10.4790 C.2   113  PHE113      0.2264
     56  O         -3.8540    7.8000  -10.3930 O.2   113  PHE113     -0.2867
     57  CB        -1.5780   10.0920   -9.1260 C.3   113  PHE113      0.0534
     58  CG        -2.2800    9.8030   -7.8120 C.ar  113  PHE113     -0.0203
     59  CD1       -3.1420   10.7350   -7.2750 C.ar  113  PHE113     -0.0042
     60  CD2       -2.0950    8.6180   -7.1490 C.ar  113  PHE113     -0.0042
     61  CE1       -3.8200   10.5010   -6.0830 C.ar  113  PHE113     -0.0003
     62  CE2       -2.7760    8.3630   -5.9350 C.ar  113  PHE113     -0.0003
     63  CZ        -3.6310    9.3070   -5.4270 C.ar  113  PHE113     -0.0000
     64  N         -3.5080    6.8220    1.5710 N.3   122  LEU122     -0.1245
     65  CA        -4.3870    7.7620    0.8860 C.3   122  LEU122      0.1561
     66  C         -5.8260    7.3480    0.8740 C.2   122  LEU122      0.2260
     67  O         -6.6400    8.1380    0.4240 O.2   122  LEU122     -0.2867
     68  CB        -3.9080    8.0320   -0.5470 C.3   122  LEU122      0.0270
     69  CG        -2.4000    8.4200   -0.6130 C.3   122  LEU122      0.0019
     70  CD1       -2.0410    8.4850   -2.0670 C.3   122  LEU122      0.0001
     71  CD2       -2.1740    9.7970    0.0250 C.3   122  LEU122      0.0001
     72  N         -8.7470    9.9720    1.4150 N.3   125  LYS125     -0.1231
     73  CA        -8.2390   11.3220    1.0850 C.3   125  LYS125      0.1693
     74  C         -8.3000   11.6420   -0.4390 C.2   125  LYS125      0.2592
     75  O         -8.6370   12.7400   -0.8720 O.2   125  LYS125     -0.2718
     76  CB        -6.7990   11.4160    1.6500 C.3   125  LYS125      0.0285
     77  CG        -6.1590   12.7760    1.4770 C.3   125  LYS125      0.0035
     78  CD        -4.8460   12.8130    2.2390 C.3   125  LYS125      0.0206
     79  CE        -4.0100   14.0110    1.8290 C.3   125  LYS125      0.1093
     80  NZ        -2.7530   14.0300    2.6300 N.3   125  LYS125     -0.1314
     81  N         -7.9960   10.6430   -1.2400 N.am  126  HIS126     -0.1976
     82  CA        -8.1840   10.6940   -2.6820 C.3   126  HIS126      0.1656
     83  C         -9.2150    9.7020   -3.1860 C.2   126  HIS126      0.2291
     84  O         -9.2130    8.5400   -2.7910 O.2   126  HIS126     -0.2864
     85  CB        -6.8520   10.3900   -3.3020 C.3   126  HIS126      0.0771
     86  CG        -5.8350   11.4040   -2.9400 C.ar  126  HIS126      0.0820
     87  ND1       -5.6810   12.5690   -3.6580 N.ar  126  HIS126     -0.2267
     88  CD2       -4.9890   11.4900   -1.8840 C.ar  126  HIS126      0.1154
     89  CE1       -4.7380   13.3130   -3.0900 C.ar  126  HIS126      0.1986
     90  NE2       -4.3000   12.6760   -2.0210 N.ar  126  HIS126     -0.2212
@<TRIPOS>BOND
     1    34    33    2
     2    33    32    1
     3     1     2    1
     4    32    31    1
     5    32    35    1
     6     2     3    1
     7     2     5    1
     8     4     3    2
     9    53    54    1
    10    36    35    1
    11    36    37    1
    12    55    56    2
    13    55    54    1
    14    54    57    1
    15     5     6    1
    16    25    26    2
    17    25    24    1
    18    37    39   am
    19    37    38    2
    20    57    58    1
    21     6     7    1
    22    24    27    1
    23    24    23    1
    24    44    41    1
    25    40    41    1
    26    29    30    1
    27    29    28    1
    28    58    59   ar
    29    58    60   ar
    30     7     8    1
    31    27    28    1
    32    23    14   am
    33    59    61   ar
    34    43    42    2
    35    60    62   ar
    36    41    42    1
    37    42    45   am
    38     8     9    2
    39    14    15    2
    40    14    13    1
    41    61    63   ar
    42    12    13    1
    43    62    63   ar
    44    45    46    1
    45    13    16    1
    46    10     9    1
    47     9    11    1
    48    46    49    1
    49    46    47    1
    50    16    17    1
    51    49    50    1
    52    47    48    2
    53    17    19   ar
    54    17    18   ar
    55    19    21   ar
    56    87    89   ar
    57    87    86   ar
    58    18    20   ar
    59    21    22   ar
    60    85    86    1
    61    85    82    1
    62    83    84    2
    63    83    82    1
    64    50    52   am
    65    50    51    2
    66    89    90   ar
    67    20    22   ar
    68    86    88   ar
    69    82    81    1
    70    70    69    1
    71    90    88   ar
    72    81    74   am
    73    75    74    2
    74    69    68    1
    75    69    71    1
    76    68    65    1
    77    74    73    1
    78    67    66    2
    79    66    65    1
    80    65    64    1
    81    73    72    1
    82    73    76    1
    83    77    76    1
    84    77    78    1
    85    79    78    1
    86    79    80    1
