@<TRIPOS>MOLECULE
tmp/5nowA00.pdb
 90 84 0 0 0
SMALL
GASTEIGER

@<TRIPOS>ATOM
      1  N          2.5940   11.2190  -11.5830 N.3    63  GLN63      -0.1245
      2  CA         1.4220   12.1460  -11.5630 C.3    63  GLN63       0.1566
      3  C          1.3460   12.8820  -12.9160 C.2    63  GLN63       0.2260
      4  O          2.4090   13.3500  -13.4460 O.2    63  GLN63      -0.2867
      5  CB         1.6100   13.2270  -10.4700 C.3    63  GLN63       0.0367
      6  CG         0.3150   14.0640  -10.3140 C.3    63  GLN63       0.0905
      7  CD         0.1950   14.8160   -9.0510 C.2    63  GLN63       0.2608
      8  OE1        0.4590   14.2310   -8.0150 O.2    63  GLN63      -0.2717
      9  NE2       -0.2660   16.0560   -9.0700 N.am   63  GLN63      -0.0878
     10  N          1.4230   20.8150  -12.3730 N.3    72  GLY72      -0.1210
     11  CA         0.8680   20.4340  -11.0460 C.3    72  GLY72       0.1956
     12  C         -0.0050   21.4660  -10.3820 C.2    72  GLY72       0.2613
     13  O         -0.6270   21.1770   -9.3730 O.2    72  GLY72      -0.2717
     14  N         -0.1550   22.6400  -10.9980 N.am   73  THR73      -0.1938
     15  CA        -0.9480   23.6940  -10.4020 C.3    73  THR73       0.2028
     16  C         -2.3040   23.9480  -11.1270 C.2    73  THR73       0.2643
     17  O         -3.0650   24.7970  -10.6500 O.2    73  THR73      -0.2714
     18  CB        -0.2110   25.0300  -10.4200 C.3    73  THR73       0.1808
     19  OG1        0.0100   25.4260  -11.7850 O.3    73  THR73      -0.2208
     20  CG2        1.1040   24.9580   -9.7590 C.3    73  THR73       0.0379
     21  N         -2.6720   23.1510  -12.1340 N.am   74  GLY74      -0.1939
     22  CA        -3.8580   23.3980  -12.9630 C.3    74  GLY74       0.2014
     23  C         -4.6860   22.1670  -13.1620 C.2    74  GLY74       0.2639
     24  O         -4.6960   21.2920  -12.3150 O.2    74  GLY74      -0.2714
     25  N         -5.3780   22.0900  -14.3210 N.am   75  GLY75      -0.1954
     26  CA        -6.4320   21.1620  -14.5590 C.3    75  GLY75       0.1869
     27  C         -7.8440   21.6330  -14.2320 C.2    75  GLY75       0.2309
     28  O         -8.1150   22.6020  -13.5270 O.2    75  GLY75      -0.2863
     29  N        -14.3330   23.5770  -12.6020 N.3    81  GLU81      -0.1231
     30  CA       -12.9530   23.5660  -12.1220 C.3    81  GLU81       0.1699
     31  C        -12.6170   22.4870  -11.0960 C.2    81  GLU81       0.2592
     32  O        -11.5980   21.8160  -11.2510 O.2    81  GLU81      -0.2718
     33  CB       -12.5400   24.9320  -11.5630 C.3    81  GLU81       0.0402
     34  CG       -11.0550   25.1130  -11.7730 C.3    81  GLU81       0.1161
     35  CD       -10.5170   26.3970  -11.2510 C.2    81  GLU81       0.3649
     36  OE1      -11.2620   27.1610  -10.5950 O.co2  81  GLU81      -0.2457
     37  OE2       -9.3270   26.6120  -11.4920 O.co2  81  GLU81      -0.2457
     38  N        -13.5070   22.3020  -10.1030 N.am   82  LYS82      -0.1980
     39  CA       -13.3760   21.3870   -9.0020 C.3    82  LYS82       0.1596
     40  C        -14.6280   20.5940   -8.7890 C.2    82  LYS82       0.2287
     41  O        -15.7600   21.0390   -9.0950 O.2    82  LYS82      -0.2864
     42  CB       -13.0520   22.1740   -7.6880 C.3    82  LYS82       0.0298
     43  CG       -11.5950   22.5630   -7.5540 C.3    82  LYS82       0.0038
     44  CD       -11.3190   23.6600   -6.5360 C.3    82  LYS82       0.0206
     45  CE        -9.8060   23.9020   -6.5610 C.3    82  LYS82       0.1093
     46  NZ        -9.3190   24.3460   -7.9130 N.3    82  LYS82      -0.1314
     47  N         -5.3360   13.2360   -7.7200 N.3   101  ALA101     -0.1231
     48  CA        -4.5560   14.2670   -7.0230 C.3   101  ALA101      0.1694
     49  C         -5.5420   15.3550   -6.4970 C.2   101  ALA101      0.2592
     50  O         -6.6670   15.5240   -7.0390 O.2   101  ALA101     -0.2718
     51  CB        -3.5750   14.9210   -8.0310 C.3   101  ALA101      0.0304
     52  N         -5.1330   16.1480   -5.4980 N.am  102  ASN102     -0.1960
     53  CA        -5.9600   17.2820   -5.0120 C.3   102  ASN102      0.1819
     54  C         -5.1300   18.3030   -4.2340 C.2   102  ASN102      0.2621
     55  O         -3.9350   18.0860   -4.0160 O.2   102  ASN102     -0.2715
     56  CB        -7.2170   16.8450   -4.1450 C.3   102  ASN102      0.1195
     57  CG        -6.8450   16.1400   -2.8590 C.2   102  ASN102      0.2630
     58  OD1       -6.0760   16.6790   -2.0680 O.2   102  ASN102     -0.2716
     59  ND2       -7.2750   14.9120   -2.6820 N.am  102  ASN102     -0.0877
     60  N         -5.7870   19.4020   -3.8570 N.am  103  ALA103     -0.1977
     61  CA        -5.1930   20.4900   -3.0510 C.3   103  ALA103      0.1597
     62  C         -6.0540   20.8270   -1.8700 C.2   103  ALA103      0.2287
     63  O         -6.1370   21.9840   -1.4980 O.2   103  ALA103     -0.2864
     64  CB        -5.0270   21.7370   -3.8980 C.3   103  ALA103      0.0319
     65  N        -11.5060   19.2080   -3.9290 N.3   107  THR107     -0.1218
     66  CA       -10.7350   19.9800   -4.9400 C.3   107  THR107      0.1862
     67  C        -10.2960   19.0890   -6.1100 C.2   107  THR107      0.2287
     68  O         -9.3190   19.3970   -6.7480 O.2   107  THR107     -0.2866
     69  CB        -9.5040   20.6700   -4.3180 C.3   107  THR107      0.1770
     70  OG1       -8.6400   19.6990   -3.7380 O.3   107  THR107     -0.2211
     71  CG2       -9.8840   21.7020   -3.2750 C.3   107  THR107      0.0375
     72  N         -9.9200   17.7750   -9.8590 N.3   109  GLY109     -0.1210
     73  CA       -10.1030   18.4170  -11.2130 C.3   109  GLY109      0.1956
     74  C         -9.8430   17.3390  -12.2700 C.2   109  GLY109      0.2613
     75  O        -10.6380   16.4580  -12.4890 O.2   109  GLY109     -0.2717
     76  N         -8.6630   17.4510  -12.9080 N.am  110  SER110     -0.1938
     77  CA        -8.1870   16.4970  -13.9020 C.3   110  SER110      0.2055
     78  C         -6.8780   15.7640  -13.4780 C.2   110  SER110      0.2642
     79  O         -6.6000   14.7040  -13.9570 O.2   110  SER110     -0.2714
     80  CB        -7.9870   17.1940  -15.2360 C.3   110  SER110      0.2130
     81  OG        -7.0770   18.2290  -15.0610 O.3   110  SER110     -0.2179
     82  N         -6.1130   16.3480  -12.5530 N.am  111  GLN111     -0.1976
     83  CA        -4.8610   15.6630  -12.1570 C.3   111  GLN111      0.1601
     84  C         -5.1090   14.3320  -11.4300 C.2   111  GLN111      0.2287
     85  O         -5.9840   14.2110  -10.6490 O.2   111  GLN111     -0.2864
     86  CB        -3.9560   16.5490  -11.3300 C.3   111  GLN111      0.0394
     87  CG        -3.3600   17.7150  -12.1110 C.3   111  GLN111      0.0908
     88  CD        -2.3660   18.4630  -11.2680 C.2   111  GLN111      0.2608
     89  OE1       -1.3400   17.9210  -10.9320 O.2   111  GLN111     -0.2717
     90  NE2       -2.6880   19.7000  -10.9200 N.am  111  GLN111     -0.0878
@<TRIPOS>BOND
     1    80    81    1
     2    80    77    1
     3    26    25    1
     4    26    27    1
     5    25    23   am
     6    27    28    2
     7    79    78    2
     8    77    78    1
     9    77    76    1
    10    78    82   am
    11     4     3    2
    12    23    22    1
    13    23    24    2
    14    22    21    1
    15     3     2    1
    16    76    74   am
    17    29    30    1
    18    82    83    1
    19    75    74    2
    20    10    11    1
    21    74    73    1
    22    83    84    1
    23    83    86    1
    24    21    16   am
    25    30    33    1
    26    30    31    1
    27    87    86    1
    28    87    88    1
    29    19    18    1
    30    34    33    1
    31    34    35    1
    32     1     2    1
    33     2     5    1
    34    37    35   ar
    35    84    85    2
    36    88    89    2
    37    88    90   am
    38    32    31    2
    39    35    36   ar
    40    73    72    1
    41    16    17    2
    42    16    15    1
    43    31    38   am
    44    11    12    1
    45    14    15    1
    46    14    12   am
    47     5     6    1
    48    18    15    1
    49    18    20    1
    50    12    13    2
    51     6     7    1
    52    38    39    1
    53    41    40    2
    54     9     7   am
    55     7     8    2
    56    39    40    1
    57    39    42    1
    58    51    48    1
    59    46    45    1
    60    47    48    1
    61    42    43    1
    62    43    44    1
    63    50    49    2
    64    48    49    1
    65    68    67    2
    66    45    44    1
    67    49    52   am
    68    67    66    1
    69    52    53    1
    70    53    54    1
    71    53    56    1
    72    66    69    1
    73    66    65    1
    74    69    70    1
    75    69    71    1
    76    54    55    2
    77    54    60   am
    78    56    57    1
    79    64    61    1
    80    60    61    1
    81    61    62    1
    82    57    59   am
    83    57    58    2
    84    62    63    2
