@<TRIPOS>MOLECULE
tmp/5noxA00.pdb
 66 60 0 0 0
SMALL
GASTEIGER

@<TRIPOS>ATOM
      1  N          2.6100   11.3270  -11.7130 N.3    63  GLN63      -0.1245
      2  CA         1.4760   12.2390  -11.6740 C.3    63  GLN63       0.1566
      3  C          1.3720   13.0070  -12.9720 C.2    63  GLN63       0.2260
      4  O          2.3960   13.4500  -13.5230 O.2    63  GLN63      -0.2867
      5  CB         1.6040   13.2530  -10.5520 C.3    63  GLN63       0.0367
      6  CG         0.4000   14.1730  -10.4060 C.3    63  GLN63       0.0905
      7  CD         0.3550   14.9550   -9.1010 C.2    63  GLN63       0.2608
      8  OE1        0.8960   14.5020   -8.1120 O.2    63  GLN63      -0.2717
      9  NE2       -0.1820   16.1450   -9.1160 N.am   63  GLN63      -0.0878
     10  N          1.4360   20.8910  -12.5240 N.3    72  GLY72      -0.1210
     11  CA         0.8040   20.5640  -11.2760 C.3    72  GLY72       0.1956
     12  C          0.0060   21.6340  -10.5420 C.2    72  GLY72       0.2613
     13  O         -0.6460   21.3830   -9.4740 O.2    72  GLY72      -0.2717
     14  N         -0.1070   22.8490  -11.1260 N.am   73  THR73      -0.1938
     15  CA        -0.9530   23.8940  -10.5500 C.3    73  THR73       0.2028
     16  C         -2.2970   24.0910  -11.2230 C.2    73  THR73       0.2643
     17  O         -3.0670   24.9480  -10.7740 O.2    73  THR73      -0.2714
     18  CB        -0.1900   25.2010  -10.5840 C.3    73  THR73       0.1808
     19  OG1        0.0160   25.6680  -11.9560 O.3    73  THR73      -0.2208
     20  CG2        1.1480   25.0670   -9.8560 C.3    73  THR73       0.0379
     21  N         -2.6100   23.3420  -12.2870 N.am   74  GLY74      -0.1939
     22  CA        -3.8020   23.5490  -13.0840 C.3    74  GLY74       0.2014
     23  C         -4.7030   22.3760  -13.2880 C.2    74  GLY74       0.2639
     24  O         -4.7070   21.4190  -12.4360 O.2    74  GLY74      -0.2714
     25  N         -5.4090   22.3460  -14.4210 N.am   75  GLY75      -0.1954
     26  CA        -6.4060   21.3410  -14.7080 C.3    75  GLY75       0.1869
     27  C         -7.8070   21.7080  -14.2550 C.2    75  GLY75       0.2309
     28  O         -8.0310   22.6340  -13.4490 O.2    75  GLY75      -0.2863
     29  N         -5.3270   13.3610   -7.7040 N.3   101  ALA101     -0.1231
     30  CA        -4.5510   14.3440   -6.9860 C.3   101  ALA101      0.1694
     31  C         -5.4770   15.4240   -6.4650 C.2   101  ALA101      0.2592
     32  O         -6.5520   15.6160   -7.0040 O.2   101  ALA101     -0.2718
     33  CB        -3.5010   14.9380   -7.9440 C.3   101  ALA101      0.0304
     34  N         -5.0840   16.1330   -5.4350 N.am  102  ASN102     -0.1960
     35  CA        -5.8820   17.2410   -4.9050 C.3   102  ASN102      0.1819
     36  C         -5.0790   18.1890   -4.0970 C.2   102  ASN102      0.2621
     37  O         -3.8980   17.9670   -3.8600 O.2   102  ASN102     -0.2715
     38  CB        -7.1870   16.7130   -4.1430 C.3   102  ASN102      0.1195
     39  CG        -6.8750   16.0500   -2.8790 C.2   102  ASN102      0.2630
     40  OD1       -6.1120   16.6160   -2.0500 O.2   102  ASN102     -0.2716
     41  ND2       -7.3260   14.8430   -2.6930 N.am  102  ASN102     -0.0877
     42  N         -5.7200   19.3030   -3.7170 N.am  103  ALA103     -0.1977
     43  CA        -5.0880   20.3660   -2.9090 C.3   103  ALA103      0.1597
     44  C         -5.9240   20.6730   -1.7050 C.2   103  ALA103      0.2287
     45  O         -5.9170   21.8050   -1.2320 O.2   103  ALA103     -0.2864
     46  CB        -4.9200   21.6400   -3.7500 C.3   103  ALA103      0.0319
     47  N        -11.4460   19.0970   -3.8390 N.3   107  THR107     -0.1218
     48  CA       -10.7150   19.9190   -4.8580 C.3   107  THR107      0.1862
     49  C        -10.2650   19.0320   -6.0330 C.2   107  THR107      0.2287
     50  O         -9.2260   19.3450   -6.6380 O.2   107  THR107     -0.2866
     51  CB        -9.5240   20.6510   -4.2250 C.3   107  THR107      0.1770
     52  OG1       -8.6130   19.7130   -3.6870 O.3   107  THR107     -0.2211
     53  CG2       -9.9410   21.6570   -3.1840 C.3   107  THR107      0.0375
     54  N         -9.8750   17.8140   -9.7990 N.3   109  GLY109     -0.1225
     55  CA       -10.0080   18.5330  -11.0980 C.3   109  GLY109      0.1811
     56  C         -9.8150   17.4570  -12.1810 C.2   109  GLY109      0.2280
     57  O        -10.6250   16.5840  -12.4220 O.2   109  GLY109     -0.2866
     58  N         -6.1140   16.4240  -12.4940 N.3   111  GLN111     -0.1245
     59  CA        -4.8380   15.7720  -12.1440 C.3   111  GLN111      0.1566
     60  C         -5.0460   14.4140  -11.4090 C.2   111  GLN111      0.2260
     61  O         -6.0060   14.2720  -10.5930 O.2   111  GLN111     -0.2867
     62  CB        -3.9780   16.6620  -11.3180 C.3   111  GLN111      0.0367
     63  CG        -3.3800   17.8300  -12.1180 C.3   111  GLN111      0.0905
     64  CD        -2.3990   18.5540  -11.2710 C.2   111  GLN111      0.2608
     65  OE1       -1.3370   18.0030  -10.8730 O.2   111  GLN111     -0.2717
     66  NE2       -2.7170   19.8520  -10.9630 N.am  111  GLN111     -0.0878
@<TRIPOS>BOND
     1    26    25    1
     2    26    27    1
     3    25    23   am
     4    27    28    2
     5     4     3    2
     6    23    22    1
     7    23    24    2
     8    22    21    1
     9     3     2    1
    10    10    11    1
    11    58    59    1
    12    57    56    2
    13    21    16   am
    14    56    55    1
    15    59    60    1
    16    59    62    1
    17    63    62    1
    18    63    64    1
    19    19    18    1
    20     1     2    1
    21     2     5    1
    22    60    61    2
    23    11    12    1
    24    64    66   am
    25    64    65    2
    26    16    17    2
    27    16    15    1
    28    14    15    1
    29    14    12   am
    30    55    54    1
    31    18    15    1
    32    18    20    1
    33     5     6    1
    34    12    13    2
    35     6     7    1
    36     9     7   am
    37     7     8    2
    38    33    30    1
    39    29    30    1
    40    32    31    2
    41    30    31    1
    42    50    49    2
    43    31    34   am
    44    49    48    1
    45    34    35    1
    46    35    38    1
    47    35    36    1
    48    48    51    1
    49    48    47    1
    50    51    52    1
    51    51    53    1
    52    38    39    1
    53    36    37    2
    54    36    42   am
    55    46    43    1
    56    42    43    1
    57    43    44    1
    58    39    41   am
    59    39    40    2
    60    44    45    2
