@<TRIPOS>MOLECULE
tmp/5noyA00.pdb
 84 77 0 0 0
SMALL
GASTEIGER

@<TRIPOS>ATOM
      1  N          2.6180   11.2970  -11.6670 N.3    63  GLN63      -0.1245
      2  CA         1.4860   12.2540  -11.6630 C.3    63  GLN63       0.1566
      3  C          1.3850   13.0050  -12.9720 C.2    63  GLN63       0.2260
      4  O          2.4220   13.4860  -13.5130 O.2    63  GLN63      -0.2867
      5  CB         1.6190   13.2280  -10.4970 C.3    63  GLN63       0.0367
      6  CG         0.4110   14.1960  -10.3860 C.3    63  GLN63       0.0905
      7  CD         0.2890   14.9080   -9.1050 C.2    63  GLN63       0.2608
      8  OE1        0.6450   14.3800   -8.0560 O.2    63  GLN63      -0.2717
      9  NE2       -0.2860   16.0970   -9.1310 N.am   63  GLN63      -0.0878
     10  N          1.4410   20.9310  -12.5210 N.3    72  GLY72      -0.1210
     11  CA         0.8700   20.5780  -11.2260 C.3    72  GLY72       0.1956
     12  C          0.0190   21.6200  -10.5580 C.2    72  GLY72       0.2613
     13  O         -0.5780   21.3740   -9.4890 O.2    72  GLY72      -0.2717
     14  N         -0.0930   22.8210  -11.1500 N.am   73  THR73      -0.1938
     15  CA        -0.9470   23.8870  -10.5840 C.3    73  THR73       0.2028
     16  C         -2.2980   24.1080  -11.2630 C.2    73  THR73       0.2643
     17  O         -3.0520   24.9800  -10.8150 O.2    73  THR73      -0.2714
     18  CB        -0.1720   25.2140  -10.5570 C.3    73  THR73       0.1808
     19  OG1        0.0600   25.6810  -11.9030 O.3    73  THR73      -0.2208
     20  CG2        1.0900   25.0800   -9.8240 C.3    73  THR73       0.0379
     21  N         -2.6170   23.3370  -12.3110 N.am   74  GLY74      -0.1939
     22  CA        -3.8180   23.5670  -13.1080 C.3    74  GLY74       0.2014
     23  C         -4.6850   22.3580  -13.3320 C.2    74  GLY74       0.2639
     24  O         -4.6720   21.4140  -12.4890 O.2    74  GLY74      -0.2714
     25  N         -5.3720   22.3310  -14.4670 N.am   75  GLY75      -0.1954
     26  CA        -6.3660   21.3350  -14.7850 C.3    75  GLY75       0.1869
     27  C         -7.7800   21.7360  -14.3660 C.2    75  GLY75       0.2309
     28  O         -7.9850   22.6480  -13.5550 O.2    75  GLY75      -0.2863
     29  N        -14.3350   23.6980  -12.5300 N.3    81  GLU81      -0.1231
     30  CA       -12.9370   23.7060  -12.1080 C.3    81  GLU81       0.1699
     31  C        -12.6000   22.5800  -11.1090 C.2    81  GLU81       0.2592
     32  O        -11.5800   21.8940  -11.2460 O.2    81  GLU81      -0.2718
     33  CB       -12.5350   25.0660  -11.5360 C.3    81  GLU81       0.0402
     34  CG       -11.0380   25.0430  -11.3210 C.3    81  GLU81       0.1161
     35  CD       -10.3780   26.3820  -11.1440 C.2    81  GLU81       0.3649
     36  OE1      -10.8320   27.1980  -10.3060 O.co2  81  GLU81      -0.2457
     37  OE2       -9.3470   26.5650  -11.8190 O.co2  81  GLU81      -0.2457
     38  N        -13.4580   22.3970  -10.1250 N.am   82  LYS82      -0.1980
     39  CA       -13.2860   21.4130   -9.0740 C.3    82  LYS82       0.1596
     40  C        -14.5840   20.6460   -8.8130 C.2    82  LYS82       0.2287
     41  O        -15.7080   21.1120   -9.1400 O.2    82  LYS82      -0.2864
     42  CB       -12.7920   22.0940   -7.7770 C.3    82  LYS82       0.0298
     43  CG       -11.4110   22.7440   -7.9120 C.3    82  LYS82       0.0038
     44  CD       -11.0530   23.6230   -6.7250 C.3    82  LYS82       0.0206
     45  CE       -10.0690   24.7120   -7.1280 C.3    82  LYS82       0.1093
     46  NZ        -9.0110   24.2010   -8.0470 N.3    82  LYS82      -0.1314
     47  N         -5.3490   13.3710   -7.7140 N.3   101  ALA101     -0.1231
     48  CA        -4.5600   14.3960   -7.0430 C.3   101  ALA101      0.1694
     49  C         -5.4920   15.4720   -6.5020 C.2   101  ALA101      0.2592
     50  O         -6.6060   15.6310   -7.0060 O.2   101  ALA101     -0.2718
     51  CB        -3.5500   14.9880   -8.0500 C.3   101  ALA101      0.0304
     52  N         -5.0730   16.2120   -5.4790 N.am  102  ASN102     -0.1960
     53  CA        -5.9070   17.3020   -4.9700 C.3   102  ASN102      0.1819
     54  C         -5.1090   18.3030   -4.1700 C.2   102  ASN102      0.2621
     55  O         -3.9390   18.0740   -3.9570 O.2   102  ASN102     -0.2715
     56  CB        -7.1850   16.7390   -4.2050 C.3   102  ASN102      0.1195
     57  CG        -6.8460   16.0930   -2.9080 C.2   102  ASN102      0.2630
     58  OD1       -6.0980   16.6760   -2.0820 O.2   102  ASN102     -0.2716
     59  ND2       -7.3460   14.9070   -2.6870 N.am  102  ASN102     -0.0877
     60  N         -5.7510   19.4150   -3.7810 N.am  103  ALA103     -0.1977
     61  CA        -5.1260   20.5010   -2.9930 C.3   103  ALA103      0.1597
     62  C         -5.9570   20.7900   -1.7830 C.2   103  ALA103      0.2287
     63  O         -5.9970   21.9530   -1.3480 O.2   103  ALA103     -0.2864
     64  CB        -4.9950   21.7480   -3.8350 C.3   103  ALA103      0.0319
     65  N        -11.4890   19.1470   -3.8790 N.3   107  THR107     -0.1218
     66  CA       -10.7470   19.9780   -4.8680 C.3   107  THR107      0.1862
     67  C        -10.2490   19.1010   -6.0590 C.2   107  THR107      0.2287
     68  O         -9.2150   19.4120   -6.6590 O.2   107  THR107     -0.2866
     69  CB        -9.5500   20.7200   -4.2760 C.3   107  THR107      0.1770
     70  OG1       -8.6150   19.8080   -3.7160 O.3   107  THR107     -0.2211
     71  CG2       -9.9490   21.7550   -3.2350 C.3   107  THR107      0.0375
     72  N         -9.8680   17.8610   -9.8080 N.3   109  GLY109     -0.1225
     73  CA        -9.9870   18.5580  -11.1270 C.3   109  GLY109      0.1811
     74  C         -9.7860   17.5090  -12.2260 C.2   109  GLY109      0.2280
     75  O        -10.6000   16.6250  -12.4780 O.2   109  GLY109     -0.2866
     76  N         -6.0820   16.4480  -12.5430 N.3   111  GLN111     -0.1245
     77  CA        -4.8190   15.7840  -12.2160 C.3   111  GLN111      0.1566
     78  C         -5.0480   14.4570  -11.4610 C.2   111  GLN111      0.2260
     79  O         -5.9940   14.3230  -10.6200 O.2   111  GLN111     -0.2867
     80  CB        -3.9550   16.6880  -11.3970 C.3   111  GLN111      0.0367
     81  CG        -3.3480   17.8480  -12.1760 C.3   111  GLN111      0.0905
     82  CD        -2.3910   18.6190  -11.3180 C.2   111  GLN111      0.2608
     83  OE1       -1.3110   18.0510  -10.9630 O.2   111  GLN111     -0.2717
     84  NE2       -2.7200   19.9160  -10.9990 N.am  111  GLN111     -0.0878
@<TRIPOS>BOND
     1    26    25    1
     2    26    27    1
     3    25    23   am
     4    27    28    2
     5     4     3    2
     6    23    22    1
     7    23    24    2
     8    22    21    1
     9     3     2    1
    10    76    77    1
    11    29    30    1
    12    10    11    1
    13    75    74    2
    14    21    16   am
    15    74    73    1
    16    77    78    1
    17    77    80    1
    18    81    80    1
    19    81    82    1
    20    30    33    1
    21    30    31    1
    22    19    18    1
    23    37    35   ar
    24     1     2    1
    25     2     5    1
    26    33    34    1
    27    78    79    2
    28    34    35    1
    29    82    84   am
    30    82    83    2
    31    16    17    2
    32    16    15    1
    33    32    31    2
    34    11    12    1
    35    14    15    1
    36    14    12   am
    37    35    36   ar
    38    73    72    1
    39    31    38   am
    40    15    18    1
    41    12    13    2
    42    18    20    1
    43     5     6    1
    44     6     7    1
    45    38    39    1
    46    41    40    2
    47     9     7   am
    48     7     8    2
    49    39    40    1
    50    39    42    1
    51    51    48    1
    52    46    45    1
    53    43    42    1
    54    43    44    1
    55    47    48    1
    56    45    44    1
    57    48    49    1
    58    50    49    2
    59    68    67    2
    60    49    52   am
    61    67    66    1
    62    52    53    1
    63    53    56    1
    64    53    54    1
    65    66    69    1
    66    66    65    1
    67    69    70    1
    68    69    71    1
    69    56    57    1
    70    54    55    2
    71    54    60   am
    72    64    61    1
    73    60    61    1
    74    61    62    1
    75    57    59   am
    76    57    58    2
    77    62    63    2
