@<TRIPOS>MOLECULE
tmp/5nozA00.pdb
 84 77 0 0 0
SMALL
GASTEIGER

@<TRIPOS>ATOM
      1  N          2.5950   11.2670  -11.5870 N.3    63  GLN63      -0.1245
      2  CA         1.4760   12.1680  -11.5650 C.3    63  GLN63       0.1566
      3  C          1.3720   12.9390  -12.8830 C.2    63  GLN63       0.2260
      4  O          2.4120   13.4190  -13.4190 O.2    63  GLN63      -0.2867
      5  CB         1.6190   13.1720  -10.4100 C.3    63  GLN63       0.0367
      6  CG         0.4260   14.1080  -10.2880 C.3    63  GLN63       0.0905
      7  CD         0.3420   14.8550   -9.0200 C.2    63  GLN63       0.2608
      8  OE1        0.6990   14.3490   -7.9810 O.2    63  GLN63      -0.2717
      9  NE2       -0.2870   16.0250   -9.0680 N.am   63  GLN63      -0.0878
     10  N          1.4060   20.8820  -12.4510 N.3    72  GLY72      -0.1210
     11  CA         0.8980   20.4680  -11.1710 C.3    72  GLY72       0.1956
     12  C          0.0550   21.5020  -10.4660 C.2    72  GLY72       0.2613
     13  O         -0.4890   21.2320   -9.4390 O.2    72  GLY72      -0.2717
     14  N         -0.0330   22.6890  -11.0420 N.am   73  THR73      -0.1938
     15  CA        -0.8940   23.6900  -10.4870 C.3    73  THR73       0.2028
     16  C         -2.2640   23.8910  -11.1690 C.2    73  THR73       0.2643
     17  O         -3.0450   24.7710  -10.7470 O.2    73  THR73      -0.2714
     18  CB        -0.1830   25.0310  -10.4430 C.3    73  THR73       0.1808
     19  OG1        0.0440   25.4980  -11.7940 O.3    73  THR73      -0.2208
     20  CG2        1.1110   24.9600   -9.6780 C.3    73  THR73       0.0379
     21  N         -2.5840   23.1340  -12.2200 N.am   74  GLY74      -0.1939
     22  CA        -3.8040   23.3700  -12.9820 C.3    74  GLY74       0.2014
     23  C         -4.6490   22.1690  -13.1570 C.2    74  GLY74       0.2639
     24  O         -4.6790   21.2430  -12.3160 O.2    74  GLY74      -0.2714
     25  N         -5.3520   22.2000  -14.2880 N.am   75  GLY75      -0.1954
     26  CA        -6.3550   21.1990  -14.5460 C.3    75  GLY75       0.1869
     27  C         -7.7630   21.6320  -14.2090 C.2    75  GLY75       0.2309
     28  O         -7.9900   22.5410  -13.4420 O.2    75  GLY75      -0.2863
     29  N        -14.3030   23.5980  -12.5120 N.3    81  GLU81      -0.1231
     30  CA       -12.9350   23.6430  -12.0230 C.3    81  GLU81       0.1699
     31  C        -12.5670   22.5530  -11.0450 C.2    81  GLU81       0.2592
     32  O        -11.5000   21.9380  -11.1800 O.2    81  GLU81      -0.2718
     33  CB       -12.6930   25.0070  -11.3220 C.3    81  GLU81       0.0402
     34  CG       -12.7560   26.1960  -12.2700 C.3    81  GLU81       0.1161
     35  CD       -11.7060   26.0600  -13.3800 C.2    81  GLU81       0.3649
     36  OE1      -10.5490   25.7430  -12.9940 O.co2  81  GLU81      -0.2457
     37  OE2      -12.0420   26.1920  -14.6060 O.co2  81  GLU81      -0.2457
     38  N        -13.4150   22.3690  -10.0400 N.am   82  LYS82      -0.1980
     39  CA       -13.2210   21.3510   -9.0450 C.3    82  LYS82       0.1596
     40  C        -14.5010   20.6070   -8.8050 C.2    82  LYS82       0.2287
     41  O        -15.6060   21.0580   -9.2280 O.2    82  LYS82      -0.2864
     42  CB       -12.8120   21.9320   -7.6750 C.3    82  LYS82       0.0298
     43  CG       -11.6250   22.8470   -7.6290 C.3    82  LYS82       0.0038
     44  CD       -11.6600   23.6610   -6.3360 C.3    82  LYS82       0.0206
     45  CE       -10.4240   24.5720   -6.3000 C.3    82  LYS82       0.1093
     46  NZ       -10.5150   25.6440   -5.2530 N.3    82  LYS82      -0.1314
     47  N         -5.3940   13.3670   -7.6810 N.3   101  ALA101     -0.1231
     48  CA        -4.5600   14.2970   -6.9750 C.3   101  ALA101      0.1694
     49  C         -5.5030   15.4240   -6.4820 C.2   101  ALA101      0.2592
     50  O         -6.5860   15.5670   -7.0240 O.2   101  ALA101     -0.2718
     51  CB        -3.5060   14.8700   -7.9450 C.3   101  ALA101      0.0304
     52  N         -5.1410   16.1390   -5.4340 N.am  102  ASN102     -0.1960
     53  CA        -5.9610   17.2710   -5.0020 C.3   102  ASN102      0.1819
     54  C         -5.1260   18.2400   -4.1920 C.2   102  ASN102      0.2621
     55  O         -3.9900   17.9780   -3.9530 O.2   102  ASN102     -0.2715
     56  CB        -7.2220   16.7860   -4.2020 C.3   102  ASN102      0.1195
     57  CG        -6.8620   16.1180   -2.9320 C.2   102  ASN102      0.2630
     58  OD1       -6.0890   16.6490   -2.0910 O.2   102  ASN102     -0.2716
     59  ND2       -7.3780   14.8900   -2.7590 N.am  102  ASN102     -0.0877
     60  N         -5.7690   19.3510   -3.8100 N.am  103  ALA103     -0.1977
     61  CA        -5.1580   20.4620   -3.0740 C.3   103  ALA103      0.1597
     62  C         -5.9110   20.7170   -1.8180 C.2   103  ALA103      0.2287
     63  O         -5.9510   21.8380   -1.3390 O.2   103  ALA103     -0.2864
     64  CB        -5.2510   21.6930   -3.9170 C.3   103  ALA103      0.0319
     65  N        -11.4670   19.1260   -3.8680 N.3   107  THR107     -0.1218
     66  CA       -10.7540   19.8920   -4.9140 C.3   107  THR107      0.1862
     67  C        -10.2260   19.0160   -6.0550 C.2   107  THR107      0.2287
     68  O         -9.1980   19.2730   -6.6530 O.2   107  THR107     -0.2866
     69  CB        -9.5730   20.6710   -4.3300 C.3   107  THR107      0.1770
     70  OG1       -8.6030   19.8160   -3.7490 O.3   107  THR107     -0.2211
     71  CG2       -9.9910   21.7430   -3.2910 C.3   107  THR107      0.0375
     72  N         -9.8660   17.7170   -9.8360 N.3   109  GLY109     -0.1225
     73  CA        -9.9460   18.4740  -11.0770 C.3   109  GLY109      0.1811
     74  C         -9.7250   17.4110  -12.1690 C.2   109  GLY109      0.2280
     75  O        -10.5530   16.5620  -12.4390 O.2   109  GLY109     -0.2866
     76  N         -6.0860   16.3480  -12.4300 N.3   111  GLN111     -0.1245
     77  CA        -4.8060   15.7090  -12.0820 C.3   111  GLN111      0.1566
     78  C         -5.0020   14.3660  -11.3680 C.2   111  GLN111      0.2260
     79  O         -5.9300   14.1960  -10.6180 O.2   111  GLN111     -0.2867
     80  CB        -3.9290   16.5660  -11.2550 C.3   111  GLN111      0.0367
     81  CG        -3.4060   17.7670  -11.9990 C.3   111  GLN111      0.0905
     82  CD        -2.4320   18.5150  -11.1600 C.2   111  GLN111      0.2608
     83  OE1       -1.3560   17.9550  -10.8150 O.2   111  GLN111     -0.2717
     84  NE2       -2.6920   19.8130  -10.8940 N.am  111  GLN111     -0.0878
@<TRIPOS>BOND
     1    37    35   ar
     2    26    25    1
     3    26    27    1
     4    25    23   am
     5    27    28    2
     6     4     3    2
     7    35    36   ar
     8    35    34    1
     9    23    22    1
    10    23    24    2
    11    22    21    1
    12     3     2    1
    13    29    30    1
    14    10    11    1
    15    75    74    2
    16    76    77    1
    17    34    33    1
    18    21    16   am
    19    74    73    1
    20    77    78    1
    21    77    80    1
    22    30    33    1
    23    30    31    1
    24    81    80    1
    25    81    82    1
    26    19    18    1
    27     1     2    1
    28     2     5    1
    29    78    79    2
    30    32    31    2
    31    11    12    1
    32    16    17    2
    33    16    15    1
    34    82    84   am
    35    82    83    2
    36    73    72    1
    37    31    38   am
    38    14    15    1
    39    14    12   am
    40    15    18    1
    41    12    13    2
    42    18    20    1
    43     5     6    1
    44     6     7    1
    45    38    39    1
    46    41    40    2
    47     9     7   am
    48    39    40    1
    49    39    42    1
    50     7     8    2
    51    51    48    1
    52    47    48    1
    53    42    43    1
    54    43    44    1
    55    50    49    2
    56    48    49    1
    57    68    67    2
    58    49    52   am
    59    44    45    1
    60    45    46    1
    61    67    66    1
    62    52    53    1
    63    53    56    1
    64    53    54    1
    65    66    69    1
    66    66    65    1
    67    69    70    1
    68    69    71    1
    69    56    57    1
    70    54    55    2
    71    54    60   am
    72    64    61    1
    73    60    61    1
    74    61    62    1
    75    57    59   am
    76    57    58    2
    77    62    63    2
