@<TRIPOS>MOLECULE
tmp/5np7E01.pdb
 156 147 0 0 0
SMALL
GASTEIGER

@<TRIPOS>ATOM
      1  N        115.1880  115.1250  159.1620 N.3   110  PHE110     -0.1227
      2  CA       114.9020  113.7450  159.6150 C.3   110  PHE110      0.1736
      3  C        114.0200  113.7250  160.9050 C.2   110  PHE110      0.2595
      4  O        114.1330  114.6420  161.7580 O.2   110  PHE110     -0.2718
      5  CB       116.2160  113.0150  159.8700 C.3   110  PHE110      0.0547
      6  CG       116.7460  113.1770  161.2670 C.ar  110  PHE110     -0.0202
      7  CD1      117.4190  114.3740  161.6720 C.ar  110  PHE110     -0.0042
      8  CD2      116.4560  112.1670  162.2360 C.ar  110  PHE110     -0.0042
      9  CE1      117.8430  114.5150  163.0000 C.ar  110  PHE110     -0.0003
     10  CE2      116.8600  112.3130  163.5570 C.ar  110  PHE110     -0.0003
     11  CZ       117.5770  113.4760  163.9350 C.ar  110  PHE110     -0.0000
     12  N        113.2300  112.6550  161.0790 N.am  111  ARG111     -0.1966
     13  CA       112.3230  112.4340  162.2590 C.3   111  ARG111      0.1729
     14  C        110.9950  113.2300  162.1880 C.2   111  ARG111      0.2617
     15  O        110.0520  112.9090  162.9210 O.2   111  ARG111     -0.2715
     16  CB       113.0700  112.4950  163.6570 C.3   111  ARG111      0.0348
     17  CG       112.7150  113.6020  164.6600 C.3   111  ARG111      0.0492
     18  CD       113.8130  113.8270  165.6690 C.3   111  ARG111      0.2205
     19  NE       113.2710  114.1100  167.0220 N.pl3 111  ARG111     -0.0865
     20  CZ       112.9530  113.2170  167.9850 C.cat 111  ARG111      0.5346
     21  NH1      113.1080  111.9020  167.8090 N.pl3 111  ARG111      0.1354
     22  NH2      112.4670  113.6430  169.1620 N.pl3 111  ARG111      0.1354
     23  N        110.9320  114.2280  161.3010 N.am  112  THR112     -0.1937
     24  CA       109.7840  115.1620  161.1710 C.3   112  THR112      0.2028
     25  C        108.4780  114.5080  160.7590 C.2   112  THR112      0.2643
     26  O        107.4450  114.9940  161.1780 O.2   112  THR112     -0.2714
     27  CB       110.0310  116.3450  160.2100 C.3   112  THR112      0.1808
     28  OG1      110.3900  115.8440  158.9250 O.3   112  THR112     -0.2208
     29  CG2      111.0990  117.3080  160.7240 C.3   112  THR112      0.0379
     30  N        108.5470  113.4350  159.9580 N.am  113  GLY113     -0.1939
     31  CA       107.3880  112.6300  159.5530 C.3   113  GLY113      0.2014
     32  C        106.9050  112.7080  158.1180 C.2   113  GLY113      0.2639
     33  O        105.6900  112.4950  157.8700 O.2   113  GLY113     -0.2714
     34  N        107.8170  113.0300  157.1920 N.am  114  LYS114     -0.1963
     35  CA       107.4690  113.1230  155.7540 C.3   114  LYS114      0.1728
     36  C        107.1170  111.7430  155.2080 C.2   114  LYS114      0.2617
     37  O        106.0880  111.5980  154.5590 O.2   114  LYS114     -0.2715
     38  CB       108.5340  113.7610  154.8950 C.3   114  LYS114      0.0311
     39  CG       109.1900  115.0300  155.3810 C.3   114  LYS114      0.0038
     40  CD       110.6220  115.0660  154.8620 C.3   114  LYS114      0.0206
     41  CE       111.5520  113.8690  155.1800 C.3   114  LYS114      0.1093
     42  NZ       112.0760  113.7610  156.5730 N.3   114  LYS114     -0.1314
     43  N        107.9620  110.7580  155.5380 N.am  115  THR115     -0.1937
     44  CA       107.7640  109.3230  155.3030 C.3   115  THR115      0.2028
     45  C        106.4340  108.8340  155.9660 C.2   115  THR115      0.2642
     46  O        105.6660  108.1040  155.3260 O.2   115  THR115     -0.2714
     47  CB       109.0290  108.5330  155.7690 C.3   115  THR115      0.1808
     48  OG1      110.2410  109.0600  155.1680 O.3   115  THR115     -0.2208
     49  CG2      108.9290  107.0320  155.5350 C.3   115  THR115      0.0379
     50  N        106.2050  109.2580  157.2140 N.am  116  GLN116     -0.1976
     51  CA       104.9550  109.0330  157.9280 C.3   116  GLN116      0.1601
     52  C        103.6590  109.3360  157.2570 C.2   116  GLN116      0.2287
     53  O        102.8330  108.4190  157.1330 O.2   116  GLN116     -0.2864
     54  CB       105.0000  109.4490  159.3990 C.3   116  GLN116      0.0394
     55  CG       105.7730  108.4580  160.2570 C.3   116  GLN116      0.0908
     56  CD       105.3440  107.0010  160.1600 C.2   116  GLN116      0.2608
     57  OE1      105.0060  106.4020  161.1840 O.2   116  GLN116     -0.2717
     58  NE2      105.3510  106.4160  158.9310 N.am  116  GLN116     -0.0878
     59  N        114.3960  105.3440  149.6560 N.3   144  GLU144     -0.1245
     60  CA       115.1420  105.2080  150.9140 C.3   144  GLU144      0.1567
     61  C        115.0830  103.8580  151.5990 C.2   144  GLU144      0.2260
     62  O        115.9050  103.5630  152.4730 O.2   144  GLU144     -0.2867
     63  CB       114.7850  106.3440  151.8830 C.3   144  GLU144      0.0388
     64  CG       115.0170  107.7680  151.3520 C.3   144  GLU144      0.1160
     65  CD       116.4740  108.2480  151.1520 C.2   144  GLU144      0.3649
     66  OE1      117.4690  107.4760  151.0910 O.co2 144  GLU144     -0.2457
     67  OE2      116.6410  109.4880  151.0420 O.co2 144  GLU144     -0.2457
     68  N        112.3590  102.9050  153.1360 N.3   146  THR146     -0.1218
     69  CA       111.6600  103.3070  154.3500 C.3   146  THR146      0.1862
     70  C        110.1930  102.9290  154.2770 C.2   146  THR146      0.2287
     71  O        109.3900  103.3640  155.1190 O.2   146  THR146     -0.2866
     72  CB       111.8170  104.8220  154.6430 C.3   146  THR146      0.1770
     73  OG1      111.3840  105.5880  153.5090 O.3   146  THR146     -0.2211
     74  CG2      113.2420  105.1840  155.0750 C.3   146  THR146      0.0375
     75  N        103.1360   99.7000  159.1660 N.3   151  ARG151     -0.1245
     76  CA       102.5770  101.0290  159.3470 C.3   151  ARG151      0.1563
     77  C        101.2550  101.2220  158.6500 C.2   151  ARG151      0.2260
     78  O        100.3640  101.8220  159.2480 O.2   151  ARG151     -0.2867
     79  CB       103.5760  102.1350  158.9950 C.3   151  ARG151      0.0307
     80  CG       104.8390  102.1750  159.8610 C.3   151  ARG151      0.0489
     81  CD       104.5990  102.2210  161.3760 C.3   151  ARG151      0.2205
     82  NE       103.9920  103.4980  161.7850 N.pl3 151  ARG151     -0.0865
     83  CZ       102.7120  103.7280  162.1020 C.cat 151  ARG151      0.5346
     84  NH1      102.3600  104.9610  162.4440 N.pl3 151  ARG151      0.1354
     85  NH2      101.7820  102.7720  162.1260 N.pl3 151  ARG151      0.1354
     86  N        108.7240  108.5930  147.4340 N.3   203  ASP203     -0.1225
     87  CA       109.4730  108.7930  148.6240 C.3   203  ASP203      0.1805
     88  C        110.8580  109.1240  148.2300 C.2   203  ASP203      0.2598
     89  O        111.6530  108.3230  147.7070 O.2   203  ASP203     -0.2718
     90  CB       109.4330  107.6160  149.5980 C.3   203  ASP203      0.1424
     91  CG       109.8830  108.0000  150.9980 C.2   203  ASP203      0.3668
     92  OD1      111.0320  108.5070  151.1600 O.co2 203  ASP203     -0.2456
     93  OD2      109.0920  107.7980  151.9480 O.co2 203  ASP203     -0.2456
     94  N        111.0970  110.3640  148.6040 N.am  204  SER204     -0.1952
     95  CA       112.3040  111.1110  148.4730 C.3   204  SER204      0.1924
     96  C        112.6530  111.3720  147.0350 C.2   204  SER204      0.2314
     97  O        113.7620  111.5440  146.7950 O.2   204  SER204     -0.2863
     98  CB       113.4290  110.4460  149.2860 C.3   204  SER204      0.2116
     99  OG       113.1220  110.4670  150.6520 O.3   204  SER204     -0.2180
    100  N        108.4300  113.3000  148.2810 N.3   247  THR247     -0.1218
    101  CA       109.1120  113.6080  149.5750 C.3   247  THR247      0.1862
    102  C        110.4100  114.3760  149.2390 C.2   247  THR247      0.2287
    103  O        111.0630  114.0910  148.2240 O.2   247  THR247     -0.2866
    104  CB       109.2540  112.3250  150.4700 C.3   247  THR247      0.1770
    105  OG1      107.9610  111.8370  150.8900 O.3   247  THR247     -0.2211
    106  CG2      110.1970  112.4990  151.6870 C.3   247  THR247      0.0375
    107  N        114.3480  115.8470  150.8870 N.3   249  GLN249     -0.1245
    108  CA       115.4960  116.1930  151.8030 C.3   249  GLN249      0.1566
    109  C        115.7620  117.7480  152.0020 C.2   249  GLN249      0.2260
    110  O        115.2760  118.5780  151.2320 O.2   249  GLN249     -0.2867
    111  CB       116.7730  115.4450  151.3720 C.3   249  GLN249      0.0367
    112  CG       117.8800  115.4430  152.4250 C.3   249  GLN249      0.0905
    113  CD       117.5880  114.5270  153.5930 C.2   249  GLN249      0.2608
    114  OE1      117.0060  113.4600  153.4220 O.2   249  GLN249     -0.2717
    115  NE2      118.0090  114.9250  154.7840 N.am  249  GLN249     -0.0878
    116  N        105.7920  114.0710  171.0920 N.3   280  GLU280     -0.1245
    117  CA       105.2740  113.4590  169.8470 C.3   280  GLU280      0.1567
    118  C        104.6590  114.4300  168.8460 C.2   280  GLU280      0.2260
    119  O        104.3690  114.0400  167.6920 O.2   280  GLU280     -0.2867
    120  CB       104.3140  112.3200  170.2120 C.3   280  GLU280      0.0388
    121  CG       104.9820  110.9650  170.5070 C.3   280  GLU280      0.1160
    122  CD       106.0500  110.9330  171.6240 C.2   280  GLU280      0.3649
    123  OE1      106.0430  111.7560  172.5830 O.co2 280  GLU280     -0.2457
    124  OE2      106.9240  110.0490  171.5300 O.co2 280  GLU280     -0.2457
    125  N        104.1370  117.6930  166.3320 N.3   282  ARG282     -0.1245
    126  CA       104.7810  118.1890  165.1340 C.3   282  ARG282      0.1563
    127  C        104.0040  119.3450  164.5500 C.2   282  ARG282      0.2260
    128  O        102.7850  119.4840  164.7780 O.2   282  ARG282     -0.2867
    129  CB       104.9420  117.0490  164.1450 C.3   282  ARG282      0.0307
    130  CG       106.3020  116.4360  164.2380 C.3   282  ARG282      0.0489
    131  CD       106.1560  114.9360  164.2200 C.3   282  ARG282      0.2205
    132  NE       107.3760  114.1890  164.5830 N.pl3 282  ARG282     -0.0865
    133  CZ       107.9910  114.1330  165.7760 C.cat 282  ARG282      0.5346
    134  NH1      107.5940  114.8570  166.8130 N.pl3 282  ARG282      0.1354
    135  NH2      109.0730  113.3680  165.9180 N.pl3 282  ARG282      0.1354
    136  N        101.9260  112.2370  165.9850 N.3   301  ILE301     -0.1231
    137  CA       102.1310  110.9060  165.4290 C.3   301  ILE301      0.1692
    138  C        101.6950  109.8910  166.4880 C.2   301  ILE301      0.2592
    139  O        102.3790  109.7250  167.5140 O.2   301  ILE301     -0.2718
    140  CB       103.5930  110.7180  164.8820 C.3   301  ILE301      0.0266
    141  CG1      104.0860  111.9150  164.0190 C.3   301  ILE301      0.0019
    142  CG2      103.8030  109.3620  164.1900 C.3   301  ILE301      0.0020
    143  CD1      103.3280  112.3420  162.7570 C.3   301  ILE301      0.0001
    144  N        100.5470  109.2470  166.2300 N.am  302  ASN302     -0.1960
    145  CA       100.0280  108.1220  167.0480 C.3   302  ASN302      0.1819
    146  C        100.3900  106.7750  166.4290 C.2   302  ASN302      0.2621
    147  O        100.7540  106.7090  165.2430 O.2   302  ASN302     -0.2715
    148  CB        98.5110  108.2830  167.3330 C.3   302  ASN302      0.1195
    149  CG        98.1340  109.6630  167.8990 C.2   302  ASN302      0.2630
    150  OD1       98.8660  110.2660  168.7010 O.2   302  ASN302     -0.2716
    151  ND2       96.9690  110.1600  167.4860 N.am  302  ASN302     -0.0877
    152  N        100.3130  105.7150  167.2420 N.am  303  ALA303     -0.1977
    153  CA       100.4190  104.3330  166.7670 C.3   303  ALA303      0.1597
    154  C         99.4130  103.9750  165.6330 C.2   303  ALA303      0.2287
    155  O         99.7170  103.1000  164.8330 O.2   303  ALA303     -0.2864
    156  CB       100.3770  103.3510  167.9330 C.3   303  ALA303      0.0319
@<TRIPOS>BOND
     1    97    96    2
     2    96    95    1
     3    86    87    1
     4    89    88    2
     5   103   102    2
     6    88    94   am
     7    88    87    1
     8   100   101    1
     9    95    94    1
    10    95    98    1
    11    87    90    1
    12   102   101    1
    13    98    99    1
    14   101   104    1
    15    90    91    1
    16    59    60    1
    17   104   105    1
    18   104   106    1
    19   107   108    1
    20    60    61    1
    21    60    63    1
    22    91    92   ar
    23    91    93   ar
    24    67    65   ar
    25    66    65   ar
    26    65    64    1
    27   110   109    2
    28    64    63    1
    29   111   108    1
    30   111   112    1
    31    61    62    2
    32   108   109    1
    33   112   113    1
    34    68    69    1
    35   114   113    2
    36    73    72    1
    37   113   115   am
    38    70    69    1
    39    70    71    2
    40    69    72    1
    41    37    36    2
    42    72    74    1
    43    40    41    1
    44    40    39    1
    45    38    39    1
    46    38    35    1
    47    48    47    1
    48    41    42    1
    49    36    43   am
    50    36    35    1
    51    44    43    1
    52    44    47    1
    53    44    45    1
    54    46    45    2
    55    49    47    1
    56    35    34    1
    57    45    50   am
    58    53    52    2
    59    34    32   am
    60    50    51    1
    61    52    51    1
    62    33    32    2
    63    51    54    1
    64    32    31    1
    65    77    78    2
    66    77    76    1
    67    28    27    1
    68    58    56   am
    69    79    76    1
    70    79    80    1
    71     1     2    1
    72    75    76    1
    73    54    55    1
    74    31    30    1
    75     2     5    1
    76     2     3    1
    77    80    81    1
    78     5     6    1
    79    30    25   am
    80    56    55    1
    81    56    57    2
    82    27    29    1
    83    27    24    1
    84    25    24    1
    85    25    26    2
    86     3    12   am
    87     3     4    2
    88    12    13    1
    89    24    23    1
    90     6     7   ar
    91     6     8   ar
    92    23    14   am
    93    81    82    1
    94     7     9   ar
    95    82    83    2
    96    83    85    1
    97    83    84    1
    98    14    13    1
    99    14    15    2
   100     8    10   ar
   101    13    16    1
   102   143   141    1
   103     9    11   ar
   104    10    11   ar
   105    16    17    1
   106   141   140    1
   107   129   130    1
   108   129   126    1
   109   142   140    1
   110   131   130    1
   111   131   132    1
   112   127   128    2
   113   127   126    1
   114   132   133    2
   115    17    18    1
   116   155   154    2
   117   140   137    1
   118   126   125    1
   119   147   146    2
   120   137   136    1
   121   137   138    1
   122   154   153    1
   123    18    19    1
   124   133   135    1
   125   133   134    1
   126   144   138   am
   127   144   145    1
   128   146   145    1
   129   146   152   am
   130   138   139    2
   131   153   152    1
   132   153   156    1
   133    19    20    2
   134   145   148    1
   135   148   149    1
   136   151   149   am
   137   119   118    2
   138    21    20    1
   139   149   150    2
   140    20    22    1
   141   118   117    1
   142   117   120    1
   143   117   116    1
   144   120   121    1
   145   121   122    1
   146   124   122   ar
   147   122   123   ar
