@<TRIPOS>MOLECULE
tmp/5np7E00.pdb
 92 93 0 0 0
SMALL
GASTEIGER

@<TRIPOS>ATOM
      1  N        110.9630  123.9630  142.2610 N.3   265  ALA265     -0.1231
      2  CA       110.2880  125.0810  142.8600 C.3   265  ALA265      0.1694
      3  C        109.0780  125.3670  142.0140 C.2   265  ALA265      0.2592
      4  O        107.9530  125.3020  142.5220 O.2   265  ALA265     -0.2718
      5  CB       111.2250  126.2620  143.0480 C.3   265  ALA265      0.0304
      6  N        109.3340  125.4890  140.7130 N.am  266  HIS266     -0.1976
      7  CA       108.4440  125.9770  139.6990 C.3   266  HIS266      0.1656
      8  C        107.4470  124.8700  139.3770 C.2   266  HIS266      0.2291
      9  O        106.2800  125.1600  139.0750 O.2   266  HIS266     -0.2864
     10  CB       109.3090  126.5250  138.5350 C.3   266  HIS266      0.0771
     11  CG       110.1030  127.7640  138.9080 C.ar  266  HIS266      0.0820
     12  ND1      109.9740  128.9620  138.2310 N.ar  266  HIS266     -0.2267
     13  CD2      110.9970  127.9960  139.9120 C.ar  266  HIS266      0.1154
     14  CE1      110.7460  129.8720  138.8020 C.ar  266  HIS266      0.1986
     15  NE2      111.3790  129.3150  139.8170 N.ar  266  HIS266     -0.2212
     16  N        106.2350  122.6760  141.7220 N.3   268  SER268     -0.1217
     17  CA       105.3460  122.5980  142.8630 C.3   268  SER268      0.1889
     18  C        104.1210  123.4860  142.6600 C.2   268  SER268      0.2288
     19  O        104.2170  124.7170  142.5240 O.2   268  SER268     -0.2866
     20  CB       106.1160  122.9500  144.1300 C.3   268  SER268      0.2089
     21  OG       106.3990  124.2930  144.1990 O.3   268  SER268     -0.2183
     22  N        102.3170  125.6320  155.5860 N.3   286  ILE286     -0.1231
     23  CA       102.3200  125.7660  154.1170 C.3   286  ILE286      0.1692
     24  C        103.4380  126.7230  153.7670 C.2   286  ILE286      0.2592
     25  O        103.7030  127.6640  154.5020 O.2   286  ILE286     -0.2718
     26  CB       100.9500  126.2440  153.5230 C.3   286  ILE286      0.0266
     27  CG1       99.7170  125.6300  154.2550 C.3   286  ILE286      0.0019
     28  CG2      100.8890  126.1250  151.9760 C.3   286  ILE286      0.0020
     29  CD1       99.5190  124.1130  154.2770 C.3   286  ILE286      0.0001
     30  N        104.0620  126.4480  152.6260 N.am  287  TYR287     -0.1962
     31  CA       105.0570  127.2980  152.0210 C.3   287  TYR287      0.1771
     32  C        104.4410  127.9750  150.7570 C.2   287  TYR287      0.2620
     33  O        103.8270  129.0430  150.8770 O.2   287  TYR287     -0.2715
     34  CB       106.2880  126.4280  151.7810 C.3   287  TYR287      0.0574
     35  CG       107.6410  127.0230  152.0520 C.ar  287  TYR287     -0.0198
     36  CD1      108.1250  127.1410  153.3870 C.ar  287  TYR287     -0.0009
     37  CD2      108.5070  127.3840  150.9680 C.ar  287  TYR287     -0.0009
     38  CE1      109.4070  127.6680  153.6400 C.ar  287  TYR287      0.0417
     39  CE2      109.7900  127.9000  151.2040 C.ar  287  TYR287      0.0417
     40  CZ       110.2440  128.0430  152.5240 C.ar  287  TYR287      0.1957
     41  OH       111.5190  128.5550  152.7130 O.3   287  TYR287     -0.2866
     42  N        104.5510  127.3550  149.5860 N.am  288  ASP288     -0.1957
     43  CA       104.0310  127.9200  148.3440 C.3   288  ASP288      0.1840
     44  C        102.8830  127.1070  147.7950 C.2   288  ASP288      0.2623
     45  O        103.0880  126.0160  147.2630 O.2   288  ASP288     -0.2715
     46  CB       105.1660  128.1580  147.3060 C.3   288  ASP288      0.1450
     47  CG       104.6830  128.1190  145.7950 C.2   288  ASP288      0.3671
     48  OD1      103.6720  128.7630  145.4280 O.co2 288  ASP288     -0.2456
     49  OD2      105.2750  127.3630  144.9960 O.co2 288  ASP288     -0.2456
     50  N        101.7050  127.7210  147.8120 N.am  289  SER289     -0.1936
     51  CA       100.5100  127.1390  147.2170 C.3   289  SER289      0.2040
     52  C         99.5610  128.2150  146.6770 C.2   289  SER289      0.2485
     53  O         98.9830  128.9040  147.4790 O.2   289  SER289     -0.2729
     54  CB        99.8160  126.1770  148.1960 C.3   289  SER289      0.2129
     55  OG        98.4520  126.0160  147.8680 O.3   289  SER289     -0.2179
     56  N         99.3340  128.2980  145.3410 N.am  290  PRO290     -0.2715
     57  CA        98.3920  129.2100  144.6700 C.3   290  PRO290      0.1536
     58  C         97.0600  129.3970  145.3660 C.2   290  PRO290      0.2599
     59  O         96.6620  130.5440  145.5250 O.2   290  PRO290     -0.2715
     60  CB        98.1850  128.5650  143.3070 C.3   290  PRO290      0.0310
     61  CG        99.4950  127.9680  143.0240 C.3   290  PRO290      0.0237
     62  CD       100.0760  127.5300  144.3330 C.3   290  PRO290      0.0939
     63  N         96.4500  128.3270  145.8760 N.am  291  CYS291     -0.1954
     64  CA        95.1030  128.4500  146.4830 C.3   291  CYS291      0.1843
     65  C         94.8700  129.1940  147.8280 C.2   291  CYS291      0.2625
     66  O         94.0630  130.1340  147.8490 O.2   291  CYS291     -0.2714
     67  CB        94.2390  127.1900  146.3730 C.3   291  CYS291      0.0997
     68  SG        94.9470  125.6700  145.7170 S.3   291  CYS291     -0.0797
     69  N         95.5520  128.8070  148.9030 N.am  292  LEU292     -0.1964
     70  CA        95.2670  129.2640  150.2630 C.3   292  LEU292      0.1713
     71  C         96.4830  129.9420  150.8680 C.2   292  LEU292      0.2458
     72  O         97.5810  129.5360  150.5270 O.2   292  LEU292     -0.2730
     73  CB        94.8500  128.0820  151.1190 C.3   292  LEU292      0.0310
     74  CG        95.5050  126.7070  150.8670 C.3   292  LEU292      0.0022
     75  CD1       96.7870  126.5210  151.6270 C.3   292  LEU292      0.0001
     76  CD2       94.5550  125.6210  151.2600 C.3   292  LEU292      0.0001
     77  N         96.3060  130.9390  151.7730 N.am  293  PRO293     -0.2716
     78  CA        97.5140  131.5390  152.3880 C.3   293  PRO293      0.1536
     79  C         98.2720  130.6250  153.3680 C.2   293  PRO293      0.2598
     80  O         97.7000  129.6290  153.8670 O.2   293  PRO293     -0.2715
     81  CB        96.9800  132.7860  153.0830 C.3   293  PRO293      0.0310
     82  CG        95.5450  132.4920  153.3420 C.3   293  PRO293      0.0237
     83  CD        95.0730  131.6270  152.2240 C.3   293  PRO293      0.0939
     84  N         99.5590  130.9620  153.5490 N.am  294  GLU294     -0.1978
     85  CA       100.4710  130.4790  154.5940 C.3   294  GLU294      0.1602
     86  C         99.7880  130.4420  155.9710 C.2   294  GLU294      0.2287
     87  O         99.2350  131.4540  156.4380 O.2   294  GLU294     -0.2864
     88  CB       101.7010  131.3930  154.6110 C.3   294  GLU294      0.0415
     89  CG       102.9460  130.8410  155.2950 C.3   294  GLU294      0.1163
     90  CD       103.9390  131.9200  155.7280 C.2   294  GLU294      0.3649
     91  OE1      103.7100  132.5440  156.7910 O.co2 294  GLU294     -0.2457
     92  OE2      104.9660  132.1310  155.0300 O.co2 294  GLU294     -0.2457
@<TRIPOS>BOND
     1    12    14   ar
     2    12    11   ar
     3    10    11    1
     4    10     7    1
     5    14    15   ar
     6    11    13   ar
     7     9     8    2
     8     8     7    1
     9     7     6    1
    10    15    13   ar
    11     6     3   am
    12    16    17    1
    13     3     4    2
    14     3     2    1
    15     1     2    1
    16    19    18    2
    17    18    17    1
    18     2     5    1
    19    17    20    1
    20    61    60    1
    21    61    62    1
    22    60    57    1
    23    20    21    1
    24    62    56    1
    25    57    56    1
    26    57    58    1
    27    49    47   ar
    28    56    52   am
    29    58    59    2
    30    58    63   am
    31    48    47   ar
    32    68    67    1
    33    47    46    1
    34    63    64    1
    35    67    64    1
    36    64    65    1
    37    52    51    1
    38    52    53    2
    39    51    50    1
    40    51    54    1
    41    45    44    2
    42    46    43    1
    43    44    50   am
    44    44    43    1
    45    65    66    2
    46    65    69   am
    47    55    54    1
    48    43    42    1
    49    69    70    1
    50    42    32   am
    51    70    71    1
    52    70    73    1
    53    72    71    2
    54    32    33    2
    55    32    31    1
    56    74    73    1
    57    74    76    1
    58    74    75    1
    59    71    77   am
    60    37    39   ar
    61    37    35   ar
    62    39    40   ar
    63    77    83    1
    64    77    78    1
    65    34    31    1
    66    34    35    1
    67    28    26    1
    68    31    30    1
    69    35    36   ar
    70    83    82    1
    71    78    81    1
    72    78    79    1
    73    40    41    1
    74    40    38   ar
    75    30    24   am
    76    81    82    1
    77    79    84   am
    78    79    80    2
    79    36    38   ar
    80    26    23    1
    81    26    27    1
    82    84    85    1
    83    24    23    1
    84    24    25    2
    85    23    22    1
    86    27    29    1
    87    85    88    1
    88    85    86    1
    89    88    89    1
    90    92    90   ar
    91    89    90    1
    92    90    91   ar
    93    86    87    2
