@<TRIPOS>MOLECULE
tmp/5np8A00.pdb
 101 97 0 0 0
SMALL
GASTEIGER

@<TRIPOS>ATOM
      1  N          7.6520    8.7420   22.1840 N.3   210  GLY210     -0.1210
      2  CA         8.0010    7.3790   22.6720 C.3   210  GLY210      0.1956
      3  C          8.4870    7.4440   24.0910 C.2   210  GLY210      0.2612
      4  O          8.5640    8.5180   24.6740 O.2   210  GLY210     -0.2717
      5  N          8.8740    6.3090   24.6220 N.am  211  ALA211     -0.1965
      6  CA         9.0170    6.1590   26.0410 C.3   211  ALA211      0.1728
      7  C         10.3900    6.4130   26.5540 C.2   211  ALA211      0.2616
      8  O         10.5370    7.1160   27.5700 O.2   211  ALA211     -0.2715
      9  CB         8.5600    4.7670   26.4430 C.3   211  ALA211      0.0334
     10  N         11.3950    5.8100   25.9160 N.am  212  LYS212     -0.1977
     11  CA        12.7160    5.7820   26.4730 C.3   212  LYS212      0.1596
     12  C         13.4920    6.8230   25.7160 C.2   212  LYS212      0.2287
     13  O         13.1730    7.1380   24.5500 O.2   212  LYS212     -0.2864
     14  CB        13.3460    4.3780   26.3690 C.3   212  LYS212      0.0298
     15  CG        12.4420    3.2450   26.7990 C.3   212  LYS212      0.0038
     16  CD        11.7050    3.5440   28.0940 C.3   212  LYS212      0.0206
     17  CE        12.6250    3.5580   29.2950 C.3   212  LYS212      0.1093
     18  NZ        11.8430    3.4330   30.5570 N.3   212  LYS212     -0.1314
     19  N          6.0480   13.1380   24.3020 N.3   234  GLY234     -0.1210
     20  CA         5.7510   11.8270   24.7930 C.3   234  GLY234      0.1956
     21  C          6.5700   11.5430   26.0440 C.2   234  GLY234      0.2612
     22  O          7.0720   12.4520   26.7550 O.2   234  GLY234     -0.2717
     23  N          6.7090   10.2810   26.3350 N.am  235  GLY235     -0.1956
     24  CA         7.3960    9.8770   27.5960 C.3   235  GLY235      0.1869
     25  C          8.8230   10.4110   27.7920 C.2   235  GLY235      0.2309
     26  O          9.2100   10.7980   28.8620 O.2   235  GLY235     -0.2863
     27  N          9.7980   13.9120   29.8900 N.3   238  PHE238     -0.1241
     28  CA         9.9850   14.0790   31.3290 C.3   238  PHE238      0.1605
     29  C         11.4410   14.0980   31.7740 C.2   238  PHE238      0.2264
     30  O         11.7730   14.8260   32.7110 O.2   238  PHE238     -0.2867
     31  CB         9.1520   13.0780   32.0950 C.3   238  PHE238      0.0534
     32  CG         7.6760   13.2510   31.8190 C.ar  238  PHE238     -0.0203
     33  CD1        6.9800   12.3370   30.9970 C.ar  238  PHE238     -0.0042
     34  CD2        7.0490   14.3870   32.2140 C.ar  238  PHE238     -0.0042
     35  CE1        5.6820   12.5890   30.6840 C.ar  238  PHE238     -0.0003
     36  CE2        5.7070   14.6350   31.9000 C.ar  238  PHE238     -0.0003
     37  CZ         5.0500   13.7200   31.1250 C.ar  238  PHE238     -0.0000
     38  N          7.8840    8.5220   33.6530 N.3   253  LEU253     -0.1245
     39  CA         9.0830    7.8850   33.1140 C.3   253  LEU253      0.1561
     40  C         10.3150    8.7900   33.2020 C.2   253  LEU253      0.2260
     41  O         10.2710    9.9630   32.8530 O.2   253  LEU253     -0.2867
     42  CB         8.9030    7.4560   31.6490 C.3   253  LEU253      0.0270
     43  CG         8.0330    6.3030   31.1680 C.3   253  LEU253      0.0019
     44  CD1        7.8080    6.4980   29.6770 C.3   253  LEU253      0.0001
     45  CD2        8.6430    4.9300   31.4430 C.3   253  LEU253      0.0001
     46  N         -0.3800    3.7170   36.0080 N.3   288  PHE288     -0.1241
     47  CA        -0.2600    3.3570   34.5920 C.3   288  PHE288      0.1605
     48  C         -1.3620    2.4010   34.2470 C.2   288  PHE288      0.2264
     49  O         -1.1510    1.1910   34.1650 O.2   288  PHE288     -0.2867
     50  CB         1.1230    2.7910   34.2730 C.3   288  PHE288      0.0534
     51  CG         1.3730    2.6150   32.8160 C.ar  288  PHE288     -0.0203
     52  CD1        1.6180    1.3710   32.2780 C.ar  288  PHE288     -0.0042
     53  CD2        1.3890    3.7240   31.9720 C.ar  288  PHE288     -0.0042
     54  CE1        1.8450    1.2050   30.9200 C.ar  288  PHE288     -0.0003
     55  CE2        1.6270    3.5750   30.6490 C.ar  288  PHE288     -0.0003
     56  CZ         1.8620    2.3120   30.1040 C.ar  288  PHE288     -0.0000
     57  N          1.6450   10.3180   37.3100 N.3   308  MET308     -0.1230
     58  CA         2.5460   10.3210   36.1700 C.3   308  MET308      0.1702
     59  C          1.8820   11.0810   35.0240 C.2   308  MET308      0.2593
     60  O          0.6780   10.9720   34.8670 O.2   308  MET308     -0.2718
     61  CB         2.8800    8.8830   35.7170 C.3   308  MET308      0.0401
     62  CG         1.6360    8.0430   35.6040 C.3   308  MET308      0.0596
     63  SD         2.0090    6.3980   35.0250 S.3   308  MET308     -0.1393
     64  CE         2.6290    5.7220   36.5750 C.3   308  MET308      0.0692
     65  N          2.6430   11.8530   34.2220 N.am  309  GLY309     -0.1942
     66  CA         2.0910   12.4140   32.9470 C.3   309  GLY309      0.2014
     67  C          1.9650   11.3470   31.8550 C.2   309  GLY309      0.2638
     68  O          2.9380   10.5920   31.5830 O.2   309  GLY309     -0.2714
     69  N          0.7880   11.2400   31.2240 N.am  310  LEU310     -0.1977
     70  CA         0.6070   10.2430   30.1350 C.3   310  LEU310      0.1596
     71  C          0.1670   10.8970   28.8170 C.2   310  LEU310      0.2287
     72  O         -0.0980   10.2210   27.8190 O.2   310  LEU310     -0.2864
     73  CB        -0.3770    9.1810   30.5250 C.3   310  LEU310      0.0297
     74  CG        -0.0380    8.2900   31.7520 C.3   310  LEU310      0.0022
     75  CD1       -1.1270    7.1880   31.9170 C.3   310  LEU310      0.0001
     76  CD2        1.3540    7.7020   31.6270 C.3   310  LEU310      0.0001
     77  N          4.4410    8.3790   19.6340 N.3   335  PRO335     -0.2102
     78  CA         3.3350    9.2740   19.9940 C.3   335  PRO335      0.1504
     79  C          3.6880   10.2490   21.1180 C.2   335  PRO335      0.2576
     80  O          4.7010   10.0930   21.8060 O.2   335  PRO335     -0.2718
     81  CB         2.2600    8.3210   20.5400 C.3   335  PRO335      0.0282
     82  CG         3.0990    7.1500   21.1000 C.3   335  PRO335      0.0208
     83  CD         4.3660    7.0630   20.3090 C.3   335  PRO335      0.0893
     84  N          2.8000   11.1870   21.3220 N.am  336  VAL336     -0.1966
     85  CA         3.0310   12.2590   22.3010 C.3   336  VAL336      0.1727
     86  C          2.2320   12.0330   23.5380 C.2   336  VAL336      0.2617
     87  O          2.3550   12.8180   24.4430 O.2   336  VAL336     -0.2715
     88  CB         2.8070   13.7130   21.7230 C.3   336  VAL336      0.0290
     89  CG1        3.7510   13.8910   20.5560 C.3   336  VAL336      0.0023
     90  CG2        1.3400   13.9770   21.3410 C.3   336  VAL336      0.0023
     91  N          1.5140   10.9010   23.5950 N.am  337  GLY337     -0.1940
     92  CA         0.9340   10.3690   24.7900 C.3   337  GLY337      0.2014
     93  C          0.4990    8.9240   24.6280 C.2   337  GLY337      0.2638
     94  O          0.7630    8.2900   23.5630 O.2   337  GLY337     -0.2714
     95  N         -0.1570    8.3730   25.6690 N.am  338  VAL338     -0.1977
     96  CA        -0.5460    6.9440   25.6360 C.3   338  VAL338      0.1596
     97  C         -1.8650    6.8240   24.8820 C.2   338  VAL338      0.2287
     98  O         -2.9510    6.7070   25.4730 O.2   338  VAL338     -0.2864
     99  CB        -0.6840    6.3010   27.0230 C.3   338  VAL338      0.0276
    100  CG1       -1.0250    4.8430   26.8720 C.3   338  VAL338      0.0022
    101  CG2        0.5960    6.4720   27.7560 C.3   338  VAL338      0.0022
@<TRIPOS>BOND
     1    77    78    1
     2    77    83    1
     3    78    81    1
     4    78    79    1
     5    83    82    1
     6    81    82    1
     7    89    88    1
     8    79    84   am
     9    79    80    2
    10    84    85    1
    11    90    88    1
    12    88    85    1
    13     1     2    1
    14    85    86    1
    15     2     3    1
    16    86    91   am
    17    86    87    2
    18    94    93    2
    19    91    92    1
    20     3     5   am
    21     3     4    2
    22    19    20    1
    23    13    12    2
    24     5     6    1
    25    93    92    1
    26    93    95   am
    27    20    21    1
    28    97    98    2
    29    97    96    1
    30    96    95    1
    31    96    99    1
    32    12    11    1
    33    10    11    1
    34    10     7   am
    35     6     9    1
    36     6     7    1
    37    21    23   am
    38    21    22    2
    39    23    24    1
    40    14    11    1
    41    14    15    1
    42     7     8    2
    43    15    16    1
    44   100    99    1
    45    99   101    1
    46    24    25    1
    47    25    26    2
    48    72    71    2
    49    16    17    1
    50    71    70    1
    51    17    18    1
    52    44    43    1
    53    27    28    1
    54    56    55   ar
    55    56    54   ar
    56    70    73    1
    57    70    69    1
    58    73    74    1
    59    55    53   ar
    60    35    33   ar
    61    35    37   ar
    62    54    52   ar
    63    33    32   ar
    64    37    36   ar
    65    43    45    1
    66    43    42    1
    67    69    67   am
    68    28    29    1
    69    28    31    1
    70    68    67    2
    71    76    74    1
    72    42    39    1
    73    74    75    1
    74    29    30    2
    75    32    31    1
    76    32    34   ar
    77    67    66    1
    78    36    34   ar
    79    53    51   ar
    80    52    51   ar
    81    51    50    1
    82    41    40    2
    83    66    65    1
    84    39    40    1
    85    39    38    1
    86    49    48    2
    87    65    59   am
    88    48    47    1
    89    50    47    1
    90    47    46    1
    91    60    59    2
    92    59    58    1
    93    63    62    1
    94    63    64    1
    95    62    61    1
    96    61    58    1
    97    58    57    1
