@<TRIPOS>MOLECULE
tmp/5np9A00.pdb
 123 115 0 0 0
SMALL
GASTEIGER

@<TRIPOS>ATOM
      1  N         11.0220    9.8690   -5.9740 N.3     8  THR8       -0.1218
      2  CA        10.7470    9.7850   -4.5440 C.3     8  THR8        0.1862
      3  C          9.4580   10.5180   -4.2120 C.2     8  THR8        0.2287
      4  O          9.0880   11.4860   -4.8820 O.2     8  THR8       -0.2866
      5  CB        11.8950   10.3620   -3.7120 C.3     8  THR8        0.1770
      6  OG1       12.0290   11.7710   -3.9610 O.3     8  THR8       -0.2211
      7  CG2       13.1860    9.6580   -4.0570 C.3     8  THR8        0.0375
      8  N          8.7480   11.2920   -0.7150 N.3    10  ASN10      -0.1226
      9  CA         8.8780   11.9210    0.5930 C.3    10  ASN10       0.1770
     10  C         10.3510   12.1940    0.8500 C.2    10  ASN10       0.2439
     11  O         11.2150   11.6030    0.1900 O.2    10  ASN10      -0.2733
     12  CB         8.2720   11.0370    1.7000 C.3    10  ASN10       0.1168
     13  CG         8.8700    9.6530    1.7380 C.2    10  ASN10       0.2627
     14  OD1       10.0900    9.4870    1.6990 O.2    10  ASN10      -0.2716
     15  ND2        8.0090    8.6410    1.8200 N.am   10  ASN10      -0.0877
     16  N         10.6760   13.0840    1.7950 N.am   11  PRO11      -0.2729
     17  CA        12.0940   13.3920    2.0340 C.3    11  PRO11       0.1401
     18  C         12.9110   12.1830    2.4430 C.2    11  PRO11       0.2269
     19  O         14.1060   12.1170    2.1250 O.2    11  PRO11      -0.2865
     20  CB        12.0450   14.4290    3.1640 C.3    11  PRO11       0.0296
     21  CG        10.6740   14.9590    3.1580 C.3    11  PRO11       0.0237
     22  CD         9.7940   13.8610    2.6900 C.3    11  PRO11       0.0939
     23  N         14.3680   10.3840   -0.4410 N.3    14  THR14      -0.1218
     24  CA        15.4910   11.1300   -0.9880 C.3    14  THR14       0.1862
     25  C         16.7470   10.9260   -0.1500 C.2    14  THR14       0.2287
     26  O         17.8360   10.7170   -0.6980 O.2    14  THR14      -0.2866
     27  CB        15.1380   12.6100   -1.0870 C.3    14  THR14       0.1770
     28  OG1       14.0060   12.7670   -1.9430 O.3    14  THR14      -0.2211
     29  CG2       16.3060   13.4060   -1.6600 C.3    14  THR14       0.0375
     30  N         15.4150   23.6040   -8.0540 N.3    36  ASP36      -0.1225
     31  CA        14.7500   24.7320   -7.4120 C.3    36  ASP36       0.1805
     32  C         15.0710   24.8170   -5.9190 C.2    36  ASP36       0.2598
     33  O         15.4540   23.8370   -5.2680 O.2    36  ASP36      -0.2718
     34  CB        13.2440   24.5970   -7.5830 C.3    36  ASP36       0.1424
     35  CG        12.5040   25.8920   -7.3330 C.2    36  ASP36       0.3668
     36  OD1       13.1240   26.9810   -7.3670 O.co2  36  ASP36      -0.2456
     37  OD2       11.2840   25.8050   -7.1100 O.co2  36  ASP36      -0.2456
     38  N         14.8990   26.0160   -5.3710 N.am   37  LEU37      -0.1966
     39  CA        14.8250   26.1450   -3.9220 C.3    37  LEU37       0.1728
     40  C         13.6620   25.2880   -3.4280 C.2    37  LEU37       0.2617
     41  O         12.5720   25.3100   -4.0090 O.2    37  LEU37      -0.2715
     42  CB        14.6390   27.6160   -3.5270 C.3    37  LEU37       0.0311
     43  CG        15.7880   28.5860   -3.8860 C.3    37  LEU37       0.0022
     44  CD1       15.4610   30.0320   -3.4740 C.3    37  LEU37       0.0001
     45  CD2       17.1070   28.1470   -3.2500 C.3    37  LEU37       0.0001
     46  N         13.9070   24.4970   -2.3860 N.am   38  GLY38      -0.1940
     47  CA        12.9340   23.5310   -1.9140 C.3    38  GLY38       0.2014
     48  C         12.8320   22.2430   -2.7170 C.2    38  GLY38       0.2639
     49  O         11.9420   21.4300   -2.4330 O.2    38  GLY38      -0.2714
     50  N         13.6960   22.0320   -3.7160 N.am   39  ALA39      -0.1963
     51  CA        13.6550   20.7840   -4.4820 C.3    39  ALA39       0.1728
     52  C         14.1130   19.6040   -3.6380 C.2    39  ALA39       0.2617
     53  O         13.4980   18.5340   -3.6720 O.2    39  ALA39      -0.2715
     54  CB        14.5140   20.8930   -5.7500 C.3    39  ALA39       0.0334
     55  N         15.1850   19.7770   -2.8720 N.am   40  GLY40      -0.1940
     56  CA        15.6260   18.7300   -1.9750 C.3    40  GLY40       0.2014
     57  C         17.1250   18.5240   -1.9940 C.2    40  GLY40       0.2639
     58  O         17.6150   17.4700   -1.5650 O.2    40  GLY40      -0.2714
     59  N         17.8720   19.5330   -2.4550 N.am   41  LYS41      -0.1963
     60  CA        19.3200   19.3780   -2.5520 C.3    41  LYS41       0.1728
     61  C         19.9330   19.2500   -1.1660 C.2    41  LYS41       0.2617
     62  O         20.7710   18.3700   -0.9120 O.2    41  LYS41      -0.2715
     63  CB        19.9350   20.5650   -3.3050 C.3    41  LYS41       0.0311
     64  CG        19.2880   20.8430   -4.6460 C.3    41  LYS41       0.0038
     65  CD        19.9310   22.0550   -5.3230 C.3    41  LYS41       0.0206
     66  CE        19.7320   23.3400   -4.5150 C.3    41  LYS41       0.1093
     67  NZ        18.3340   23.8490   -4.6380 N.3    41  LYS41      -0.1314
     68  N         19.5110   20.1180   -0.2480 N.am   42  THR42      -0.1937
     69  CA        20.0360   20.0410    1.1040 C.3    42  THR42       0.2028
     70  C         19.5110   18.7900    1.8070 C.2    42  THR42       0.2642
     71  O         20.2400   18.1530    2.5720 O.2    42  THR42      -0.2714
     72  CB        19.6870   21.3160    1.8700 C.3    42  THR42       0.1808
     73  OG1       20.4270   22.4140    1.2980 O.3    42  THR42      -0.2208
     74  CG2       20.0480   21.1730    3.3530 C.3    42  THR42       0.0379
     75  N         18.2570   18.4080    1.5310 N.am   43  THR43      -0.1950
     76  CA        17.7240   17.1640    2.0860 C.3    43  THR43       0.1897
     77  C         18.5610   15.9670    1.6330 C.2    43  THR43       0.2313
     78  O         18.9160   15.1090    2.4460 O.2    43  THR43      -0.2863
     79  CB        16.2570   16.9960    1.6870 C.3    43  THR43       0.1794
     80  OG1       15.5040   18.1220    2.1610 O.3    43  THR43      -0.2208
     81  CG2       15.6450   15.7050    2.2960 C.3    43  THR43       0.0378
     82  N         21.3940   23.7750    5.5020 N.3    60  SER60      -0.1217
     83  CA        21.6870   24.6390    4.3490 C.3    60  SER60       0.1889
     84  C         22.8580   25.5800    4.6360 C.2    60  SER60       0.2288
     85  O         22.7920   26.3770    5.5800 O.2    60  SER60      -0.2866
     86  CB        20.4610   25.4820    3.9760 C.3    60  SER60       0.2089
     87  OG        20.8320   26.4620    2.9970 O.3    60  SER60      -0.2183
     88  N         25.6920   22.4990   -3.9290 N.3   104  GLU104     -0.1245
     89  CA        24.3920   22.9830   -4.3800 C.3   104  GLU104      0.1567
     90  C         24.5710   24.2020   -5.2690 C.2   104  GLU104      0.2260
     91  O         25.4210   25.0580   -4.9970 O.2   104  GLU104     -0.2867
     92  CB        23.5020   23.3290   -3.1830 C.3   104  GLU104      0.0388
     93  CG        23.3680   22.1750   -2.1710 C.3   104  GLU104      0.1160
     94  CD        22.3010   22.4330   -1.1230 C.2   104  GLU104      0.3649
     95  OE1       21.3100   23.1420   -1.4140 O.co2 104  GLU104     -0.2457
     96  OE2       22.4630   21.9210    0.0040 O.co2 104  GLU104     -0.2457
     97  N         17.6190   17.3770   -9.1620 N.3   122  ILE122     -0.1245
     98  CA        16.4100   17.0790   -8.4010 C.3   122  ILE122      0.1561
     99  C         15.2930   17.9340   -8.9820 C.2   122  ILE122      0.2260
    100  O         15.3160   19.1650   -8.8740 O.2   122  ILE122     -0.2867
    101  CB        16.5960   17.3360   -6.8980 C.3   122  ILE122      0.0252
    102  CG1       17.7280   16.4660   -6.3470 C.3   122  ILE122      0.0019
    103  CG2       15.3140   17.0270   -6.1410 C.3   122  ILE122      0.0019
    104  CD1       17.9340   16.5890   -4.8240 C.3   122  ILE122      0.0001
    105  N          4.9930   16.3780   -3.0960 N.3   128  ASP128     -0.1239
    106  CA         6.1400   15.7800   -2.4290 C.3   128  ASP128      0.1674
    107  C          6.9050   14.8150   -3.3260 C.2   128  ASP128      0.2266
    108  O          7.7540   14.0680   -2.8290 O.2   128  ASP128     -0.2867
    109  CB         5.6910   15.0570   -1.1550 C.3   128  ASP128      0.1410
    110  CG         5.6930   15.9630    0.0620 C.2   128  ASP128      0.3668
    111  OD1        5.6430   17.2020   -0.1120 O.co2 128  ASP128     -0.2456
    112  OD2        5.7410   15.4310    1.1930 O.co2 128  ASP128     -0.2456
    113  N          9.5810   13.9340   -6.2690 N.3   130  ARG130     -0.1245
    114  CA        10.7450   14.4430   -6.9690 C.3   130  ARG130      0.1563
    115  C         11.2410   13.3940   -7.9430 C.2   130  ARG130      0.2260
    116  O         11.0170   12.1920   -7.7610 O.2   130  ARG130     -0.2867
    117  CB        11.8810   14.8180   -6.0180 C.3   130  ARG130      0.0307
    118  CG        11.4730   15.7530   -4.9040 C.3   130  ARG130      0.0489
    119  CD        11.0840   17.1250   -5.4210 C.3   130  ARG130      0.2205
    120  NE        10.9300   18.0660   -4.3120 N.pl3 130  ARG130     -0.0865
    121  CZ         9.7750   18.3490   -3.7150 C.cat 130  ARG130      0.5346
    122  NH1        8.6500   17.7740   -4.1220 N.pl3 130  ARG130      0.1354
    123  NH2        9.7480   19.2100   -2.7010 N.pl3 130  ARG130      0.1354
@<TRIPOS>BOND
     1    97    98    1
     2    99   100    2
     3    99    98    1
     4    98   101    1
     5    30    31    1
     6   115   116    2
     7   115   114    1
     8    34    31    1
     9    34    35    1
    10    31    32    1
    11    36    35   ar
    12    35    37   ar
    13   114   113    1
    14   114   117    1
    15   101   102    1
    16   101   103    1
    17   102   104    1
    18   117   118    1
    19     1     2    1
    20    32    38   am
    21    32    33    2
    22    54    51    1
    23   119   118    1
    24   119   120    1
    25    38    39    1
    26    65    64    1
    27    65    66    1
    28    90    91    2
    29    90    89    1
    30     4     3    2
    31    64    63    1
    32    67    66    1
    33     2     3    1
    34     2     5    1
    35    51    50    1
    36    51    52    1
    37    89    88    1
    38    89    92    1
    39   120   121    2
    40   122   121    1
    41     7     5    1
    42    41    40    2
    43     6     5    1
    44    39    42    1
    45    39    40    1
    46    43    42    1
    47    43    44    1
    48    43    45    1
    49    50    48   am
    50   121   123    1
    51    53    52    2
    52    52    55   am
    53    40    46   am
    54   107   108    2
    55   107   106    1
    56    63    60    1
    57    92    93    1
    58   105   106    1
    59    55    56    1
    60    48    49    2
    61    48    47    1
    62    60    59    1
    63    60    61    1
    64    59    57   am
    65   106   109    1
    66    46    47    1
    67    93    94    1
    68    57    56    1
    69    57    58    2
    70    28    27    1
    71    29    27    1
    72    95    94   ar
    73    61    62    2
    74    61    68   am
    75   109   110    1
    76    94    96   ar
    77    27    24    1
    78    24    23    1
    79    24    25    1
    80     8     9    1
    81    26    25    2
    82    68    69    1
    83   111   110   ar
    84   110   112   ar
    85    11    10    2
    86     9    10    1
    87     9    12    1
    88    10    16   am
    89    69    70    1
    90    69    72    1
    91    73    72    1
    92    75    70   am
    93    75    76    1
    94    77    76    1
    95    77    78    2
    96    79    76    1
    97    79    80    1
    98    79    81    1
    99    14    13    2
   100    12    13    1
   101    13    15   am
   102    16    17    1
   103    16    22    1
   104    70    71    2
   105    72    74    1
   106    17    18    1
   107    17    20    1
   108    19    18    2
   109    22    21    1
   110    87    86    1
   111    21    20    1
   112    86    83    1
   113    83    84    1
   114    83    82    1
   115    84    85    2
