@<TRIPOS>MOLECULE
tmp/5npbA01.pdb
 164 157 0 0 0
SMALL
GASTEIGER

@<TRIPOS>ATOM
      1  N         83.9150   18.6460   42.7910 N.3   234  PHE234     -0.1241
      2  CA        84.1580   17.2070   42.6590 C.3   234  PHE234      0.1605
      3  C         85.0380   16.7980   43.7960 C.2   234  PHE234      0.2264
      4  O         86.2720   16.8310   43.6440 O.2   234  PHE234     -0.2867
      5  CB        84.7840   16.8470   41.3040 C.3   234  PHE234      0.0534
      6  CG        85.2380   15.3900   41.1760 C.ar  234  PHE234     -0.0203
      7  CD1       84.6910   14.3480   41.9530 C.ar  234  PHE234     -0.0042
      8  CD2       86.2210   15.0750   40.2620 C.ar  234  PHE234     -0.0042
      9  CE1       85.1460   13.0260   41.8190 C.ar  234  PHE234     -0.0003
     10  CE2       86.6540   13.7720   40.1140 C.ar  234  PHE234     -0.0003
     11  CZ        86.1440   12.7570   40.8980 C.ar  234  PHE234     -0.0000
     12  N         78.3270   15.2450   43.3750 N.3   262  ASP262     -0.1225
     13  CA        79.1250   14.4550   42.4140 C.3   262  ASP262      0.1805
     14  C         79.1290   13.0150   42.9450 C.2   262  ASP262      0.2597
     15  O         78.3620   12.6270   43.8980 O.2   262  ASP262     -0.2718
     16  CB        80.5210   15.0870   42.3410 C.3   262  ASP262      0.1424
     17  CG        81.2660   14.7990   41.0240 C.2   262  ASP262      0.3668
     18  OD1       81.1450   13.6540   40.5260 O.co2 262  ASP262     -0.2456
     19  OD2       81.9250   15.7170   40.4960 O.co2 262  ASP262     -0.2456
     20  N         79.9810   12.1800   42.3610 N.am  263  LEU263     -0.1979
     21  CA        79.8330   10.7250   42.4790 C.3   263  LEU263      0.1596
     22  C         79.9760   10.0970   43.8640 C.2   263  LEU263      0.2287
     23  O         79.6020    8.9290   44.0540 O.2   263  LEU263     -0.2864
     24  CB        80.7570   10.0180   41.3870 C.3   263  LEU263      0.0297
     25  CG        82.2500   10.3320   41.3270 C.3   263  LEU263      0.0022
     26  CD1       82.8810   10.0900   42.6740 C.3   263  LEU263      0.0001
     27  CD2       83.0700    9.5840   40.2750 C.3   263  LEU263      0.0001
     28  N         86.0530    6.9220   43.9980 N.3   270  ILE270     -0.1245
     29  CA        85.8480    7.2050   42.6100 C.3   270  ILE270      0.1561
     30  C         85.6250    5.8730   41.8520 C.2   270  ILE270      0.2260
     31  O         84.7540    5.8020   41.0100 O.2   270  ILE270     -0.2867
     32  CB        87.0410    8.0020   42.0090 C.3   270  ILE270      0.0252
     33  CG1       87.0780    9.4250   42.6060 C.3   270  ILE270      0.0019
     34  CG2       86.9250    8.0880   40.4930 C.3   270  ILE270      0.0019
     35  CD1       88.4210   10.0810   42.4680 C.3   270  ILE270      0.0001
     36  N         80.0720    3.0130   40.5290 N.3   274  MET274     -0.1245
     37  CA        79.2810    3.6040   39.4950 C.3   274  MET274      0.1570
     38  C         78.2590    2.5830   38.9610 C.2   274  MET274      0.2261
     39  O         78.6330    1.4340   38.5860 O.2   274  MET274     -0.2867
     40  CB        80.1990    4.1070   38.3800 C.3   274  MET274      0.0387
     41  CG        79.4910    4.8630   37.3040 C.3   274  MET274      0.0595
     42  SD        80.5590    5.6540   36.0500 S.3   274  MET274     -0.1393
     43  CE        81.6240    6.7030   37.0800 C.3   274  MET274      0.0692
     44  N         74.5680   13.7570   40.0870 N.3   304  ILE304     -0.1245
     45  CA        75.2990   13.2130   38.9540 C.3   304  ILE304      0.1561
     46  C         74.8130   11.7790   38.6910 C.2   304  ILE304      0.2260
     47  O         74.5470   11.0050   39.5850 O.2   304  ILE304     -0.2867
     48  CB        76.8290   13.2350   39.1350 C.3   304  ILE304      0.0252
     49  CG1       77.5400   13.2120   37.7520 C.3   304  ILE304      0.0019
     50  CG2       77.3300   12.1370   40.0440 C.3   304  ILE304      0.0019
     51  CD1       79.0360   13.2980   37.8620 C.3   304  ILE304      0.0001
     52  N         75.6200    8.6620   35.4200 N.3   306  GLU306     -0.1245
     53  CA        76.4840    8.3170   34.2810 C.3   306  GLU306      0.1567
     54  C         75.8660    7.1270   33.5060 C.2   306  GLU306      0.2260
     55  O         74.9590    6.4240   34.0240 O.2   306  GLU306     -0.2867
     56  CB        77.8620    7.9380   34.7590 C.3   306  GLU306      0.0388
     57  CG        78.6390    9.0140   35.5360 C.3   306  GLU306      0.1160
     58  CD        78.5140    8.9280   37.0570 C.2   306  GLU306      0.3649
     59  OE1       77.5470    8.2560   37.4880 O.co2 306  GLU306     -0.2457
     60  OE2       79.3650    9.5500   37.8220 O.co2 306  GLU306     -0.2457
     61  N         86.9620    3.5220   36.2060 N.3   340  PHE340     -0.1241
     62  CA        86.2170    3.2030   37.4360 C.3   340  PHE340      0.1605
     63  C         86.1640    1.7270   37.6870 C.2   340  PHE340      0.2264
     64  O         85.8890    1.3050   38.8040 O.2   340  PHE340     -0.2867
     65  CB        84.7830    3.7600   37.3150 C.3   340  PHE340      0.0534
     66  CG        84.7550    5.1250   36.7220 C.ar  340  PHE340     -0.0203
     67  CD1       85.2490    6.2230   37.4550 C.ar  340  PHE340     -0.0042
     68  CD2       84.3120    5.3410   35.4330 C.ar  340  PHE340     -0.0042
     69  CE1       85.2770    7.4990   36.8800 C.ar  340  PHE340     -0.0003
     70  CE2       84.3490    6.6080   34.8670 C.ar  340  PHE340     -0.0003
     71  CZ        84.8060    7.6940   35.5990 C.ar  340  PHE340     -0.0000
     72  N         72.2710   15.8440   36.4710 N.3   373  TRP373     -0.1241
     73  CA        73.5520   16.0560   35.8310 C.3   373  TRP373      0.1605
     74  C         73.9020   14.6920   35.2080 C.2   373  TRP373      0.2264
     75  O         73.9990   13.7170   35.9210 O.2   373  TRP373     -0.2867
     76  CB        74.5460   16.4340   36.9170 C.3   373  TRP373      0.0550
     77  CG        75.9800   16.6840   36.5310 C.ar  373  TRP373      0.0003
     78  CD1       76.4560   16.9990   35.3030 C.ar  373  TRP373      0.0946
     79  CD2       77.0760   16.7920   37.4190 C.ar  373  TRP373      0.0152
     80  NE1       77.7990   17.2290   35.3500 N.ar  373  TRP373     -0.2442
     81  CE2       78.2110   17.1020   36.6430 C.ar  373  TRP373      0.0810
     82  CE3       77.2290   16.6340   38.7980 C.ar  373  TRP373      0.0012
     83  CZ2       79.4680   17.2790   37.2000 C.ar  373  TRP373      0.0191
     84  CZ3       78.4730   16.8060   39.3580 C.ar  373  TRP373      0.0001
     85  CH2       79.5980   17.1160   38.5540 C.ar  373  TRP373      0.0015
     86  N         76.8370   12.9470   33.3040 N.3   375  ASP375     -0.1225
     87  CA        78.2140   13.1050   32.9010 C.3   375  ASP375      0.1805
     88  C         78.6190   11.8640   32.0510 C.2   375  ASP375      0.2597
     89  O         77.9790   10.8210   32.1450 O.2   375  ASP375     -0.2718
     90  CB        79.0940   13.1770   34.1240 C.3   375  ASP375      0.1424
     91  CG        80.4420   13.7340   33.8380 C.2   375  ASP375      0.3668
     92  OD1       80.7390   14.2790   32.7850 O.co2 375  ASP375     -0.2456
     93  OD2       81.3720   13.6570   34.8750 O.co2 375  ASP375     -0.2456
     94  N         79.6710   12.0090   31.2300 N.am  376  LEU376     -0.1979
     95  CA        80.2710   10.8930   30.4370 C.3   376  LEU376      0.1596
     96  C         79.4170   10.3280   29.3160 C.2   376  LEU376      0.2287
     97  O         79.6460    9.1700   28.9060 O.2   376  LEU376     -0.2864
     98  CB        80.7530    9.7640   31.3410 C.3   376  LEU376      0.0297
     99  CG        81.4730   10.1560   32.6130 C.3   376  LEU376      0.0022
    100  CD1       81.8460    8.9280   33.3810 C.3   376  LEU376      0.0001
    101  CD2       82.7050   11.0280   32.3970 C.3   376  LEU376      0.0001
    102  N         82.0240    8.2390   27.1740 N.3   380  GLU380     -0.1245
    103  CA        83.4560    8.4400   27.4670 C.3   380  GLU380      0.1567
    104  C         84.3080    7.2570   26.9250 C.2   380  GLU380      0.2260
    105  O         85.4010    7.4570   26.4370 O.2   380  GLU380     -0.2867
    106  CB        83.6720    8.6320   28.9640 C.3   380  GLU380      0.0388
    107  CG        84.9530    8.0800   29.5930 C.3   380  GLU380      0.1160
    108  CD        86.0710    9.0810   29.6580 C.2   380  GLU380      0.3649
    109  OE1       87.2470    8.6570   29.5400 O.co2 380  GLU380     -0.2457
    110  OE2       85.7840   10.2830   29.8580 O.co2 380  GLU380     -0.2457
    111  N         77.1420   16.6840   29.0570 N.3   426  ARG426     -0.1245
    112  CA        78.4520   16.9790   28.4640 C.3   426  ARG426      0.1563
    113  C         78.5190   16.7570   26.9440 C.2   426  ARG426      0.2260
    114  O         79.4090   17.3090   26.2370 O.2   426  ARG426     -0.2867
    115  CB        79.4920   16.0620   29.1300 C.3   426  ARG426      0.0307
    116  CG        80.8460   16.6880   29.1940 C.3   426  ARG426      0.0489
    117  CD        81.7270   15.9860   30.1920 C.3   426  ARG426      0.2205
    118  NE        82.1990   14.7010   29.7280 N.pl3 426  ARG426     -0.0865
    119  CZ        83.2040   14.0380   30.2790 C.cat 426  ARG426      0.5346
    120  NH1       83.8530   14.5270   31.3290 N.pl3 426  ARG426      0.1354
    121  NH2       83.6090   12.8860   29.7540 N.pl3 426  ARG426      0.1354
    122  N         77.9490   21.9680   29.4650 N.3   440  TRP440     -0.1241
    123  CA        79.1520   22.6520   29.9510 C.3   440  TRP440      0.1605
    124  C         80.4080   22.1680   29.1760 C.2   440  TRP440      0.2264
    125  O         80.3860   21.0840   28.6340 O.2   440  TRP440     -0.2867
    126  CB        79.2900   22.5150   31.4310 C.3   440  TRP440      0.0550
    127  CG        79.9820   21.3190   31.9450 C.ar  440  TRP440      0.0003
    128  CD1       81.2520   21.2570   32.4310 C.ar  440  TRP440      0.0946
    129  CD2       79.4300   20.0260   32.0900 C.ar  440  TRP440      0.0152
    130  NE1       81.5320   19.9840   32.8510 N.ar  440  TRP440     -0.2442
    131  CE2       80.4380   19.2010   32.6130 C.ar  440  TRP440      0.0810
    132  CE3       78.2060   19.4540   31.7490 C.ar  440  TRP440      0.0012
    133  CZ2       80.2240   17.8540   32.8840 C.ar  440  TRP440      0.0191
    134  CZ3       78.0080   18.1210   32.0110 C.ar  440  TRP440      0.0001
    135  CH2       79.0270   17.3330   32.5310 C.ar  440  TRP440      0.0015
    136  N         86.2630   19.2950   31.3240 N.3   443  ASP443     -0.1239
    137  CA        87.2510   19.2600   32.3490 C.3   443  ASP443      0.1674
    138  C         88.4010   20.2280   32.0170 C.2   443  ASP443      0.2266
    139  O         89.5680   19.8480   31.9420 O.2   443  ASP443     -0.2867
    140  CB        87.7150   17.8210   32.6030 C.3   443  ASP443      0.1410
    141  CG        86.6010   16.9140   33.2230 C.2   443  ASP443      0.3668
    142  OD1       85.5620   17.4550   33.6550 O.co2 443  ASP443     -0.2456
    143  OD2       86.7770   15.6650   33.2740 O.co2 443  ASP443     -0.2456
    144  N         88.5660   23.4260   36.3970 N.3   476  PHE476     -0.1241
    145  CA        88.2910   22.0910   36.9190 C.3   476  PHE476      0.1605
    146  C         89.5190   21.2750   37.2330 C.2   476  PHE476      0.2264
    147  O         89.6230   20.6880   38.2920 O.2   476  PHE476     -0.2867
    148  CB        87.4460   21.3090   35.8790 C.3   476  PHE476      0.0534
    149  CG        87.1660   19.8860   36.3130 C.ar  476  PHE476     -0.0203
    150  CD1       86.0830   19.6050   37.1560 C.ar  476  PHE476     -0.0042
    151  CD2       88.0290   18.8560   35.9820 C.ar  476  PHE476     -0.0042
    152  CE1       85.8270   18.3100   37.5970 C.ar  476  PHE476     -0.0003
    153  CE2       87.7950   17.5640   36.4280 C.ar  476  PHE476     -0.0003
    154  CZ        86.6980   17.2930   37.2500 C.ar  476  PHE476     -0.0000
    155  N         82.9490   25.0240   39.6010 N.3   503  HIS503     -0.1241
    156  CA        83.0810   23.5660   39.8320 C.3   503  HIS503      0.1621
    157  C         84.5560   23.1460   39.6310 C.2   503  HIS503      0.2264
    158  O         85.1630   23.6300   38.7540 O.2   503  HIS503     -0.2867
    159  CB        82.1310   22.8510   38.8770 C.3   503  HIS503      0.0745
    160  CG        82.2590   21.3560   38.8870 C.ar  503  HIS503      0.0817
    161  ND1       81.9550   20.5910   39.9860 N.ar  503  HIS503     -0.2268
    162  CD2       82.6470   20.4810   37.9140 C.ar  503  HIS503      0.1154
    163  CE1       82.1750   19.3140   39.7110 C.ar  503  HIS503      0.1986
    164  NE2       82.5850   19.2190   38.4590 N.ar  503  HIS503     -0.2212
@<TRIPOS>BOND
     1   114   113    2
     2   105   104    2
     3   104   103    1
     4   113   112    1
     5   102   103    1
     6   103   106    1
     7   112   111    1
     8   112   115    1
     9   125   124    2
    10    97    96    2
    11   106   107    1
    12   115   116    1
    13   124   123    1
    14   116   117    1
    15    96    95    1
    16   122   123    1
    17   109   108   ar
    18   107   108    1
    19   108   110   ar
    20   118   117    1
    21   118   119    2
    22   121   119    1
    23   123   126    1
    24   119   120    1
    25    95    94    1
    26    95    98    1
    27    94    88   am
    28   136   137    1
    29    98    99    1
    30   126   127    1
    31   132   134   ar
    32   132   129   ar
    33   139   138    2
    34   127   129   ar
    35   127   128   ar
    36   134   135   ar
    37   138   137    1
    38    88    89    2
    39    88    87    1
    40   129   131   ar
    41   137   140    1
    42   101    99    1
    43   128   130   ar
    44   135   133   ar
    45   140   141    1
    46   131   130   ar
    47   131   133   ar
    48    99   100    1
    49    92    91   ar
    50    87    86    1
    51    87    90    1
    52   141   143   ar
    53   141   142   ar
    54    54    55    2
    55    54    53    1
    56    91    90    1
    57    91    93   ar
    58    53    56    1
    59    53    52    1
    60    56    57    1
    61    70    68   ar
    62    70    71   ar
    63    74    73    1
    64    74    75    2
    65    78    80   ar
    66    78    77   ar
    67    80    81   ar
    68    68    66   ar
    69    57    58    1
    70    71    69   ar
    71    73    72    1
    72    73    76    1
    73   148   149    1
    74   148   145    1
    75   151   149   ar
    76   151   153   ar
    77    42    43    1
    78    42    41    1
    79    61    62    1
    80   149   150   ar
    81   144   145    1
    82   153   154   ar
    83    77    76    1
    84    77    79   ar
    85    81    83   ar
    86    81    79   ar
    87    66    65    1
    88    66    67   ar
    89    69    67   ar
    90   145   146    1
    91    58    59   ar
    92    58    60   ar
    93   150   152   ar
    94    83    85   ar
    95   146   147    2
    96   154   152   ar
    97    41    40    1
    98    65    62    1
    99    79    82   ar
   100    62    63    1
   101    63    64    2
   102    49    51    1
   103    49    48    1
   104   162   164   ar
   105   162   160   ar
   106    40    37    1
   107   164   163   ar
   108    85    84   ar
   109    39    38    2
   110    46    45    1
   111    46    47    2
   112   158   157    2
   113    82    84   ar
   114   159   160    1
   115   159   156    1
   116   160   161   ar
   117    45    48    1
   118    45    44    1
   119    38    37    1
   120    48    50    1
   121    37    36    1
   122   155   156    1
   123   157   156    1
   124   163   161   ar
   125    10     8   ar
   126    10    11   ar
   127     8     6   ar
   128    27    25    1
   129    34    32    1
   130    19    17   ar
   131    18    17   ar
   132    11     9   ar
   133    31    30    2
   134    17    16    1
   135     6     5    1
   136     6     7   ar
   137     5     2    1
   138    25    24    1
   139    25    26    1
   140    24    21    1
   141     9     7   ar
   142    30    29    1
   143    32    33    1
   144    32    29    1
   145    16    13    1
   146    20    21    1
   147    20    14   am
   148    13    14    1
   149    13    12    1
   150    35    33    1
   151    21    22    1
   152    29    28    1
   153     2     1    1
   154     2     3    1
   155    14    15    2
   156     4     3    2
   157    22    23    2
