@<TRIPOS>MOLECULE
tmp/5npcA01.pdb
 169 163 0 0 0
SMALL
GASTEIGER

@<TRIPOS>ATOM
      1  N         31.4750   86.2500   28.6710 N.3   142  TYR142     -0.1241
      2  CA        31.3280   86.6730   30.0410 C.3   142  TYR142      0.1605
      3  C         30.9980   88.1510   30.1210 C.2   142  TYR142      0.2264
      4  O         31.6870   88.9710   29.5340 O.2   142  TYR142     -0.2867
      5  CB        32.5940   86.3790   30.8270 C.3   142  TYR142      0.0534
      6  CG        32.5110   86.8100   32.2690 C.ar  142  TYR142     -0.0201
      7  CD1       32.0070   85.9520   33.2570 C.ar  142  TYR142     -0.0009
      8  CD2       32.9220   88.0890   32.6480 C.ar  142  TYR142     -0.0009
      9  CE1       31.9220   86.3640   34.5760 C.ar  142  TYR142      0.0417
     10  CE2       32.8550   88.5000   33.9640 C.ar  142  TYR142      0.0417
     11  CZ        32.3390   87.6330   34.9200 C.ar  142  TYR142      0.1957
     12  OH        32.2800   88.0830   36.2110 O.3   142  TYR142     -0.2866
     13  N         25.7890   81.8730   42.7950 N.3   234  PHE234     -0.1241
     14  CA        27.1540   81.3430   42.7030 C.3   234  PHE234      0.1605
     15  C         27.8660   81.9220   43.8820 C.2   234  PHE234      0.2264
     16  O         28.4190   83.0040   43.7440 O.2   234  PHE234     -0.2867
     17  CB        27.8430   81.7690   41.3840 C.3   234  PHE234      0.0534
     18  CG        29.3230   81.4060   41.2910 C.ar  234  PHE234     -0.0203
     19  CD1       29.8980   80.3710   42.0470 C.ar  234  PHE234     -0.0042
     20  CD2       30.1490   82.1130   40.4360 C.ar  234  PHE234     -0.0042
     21  CE1       31.2660   80.0630   41.9330 C.ar  234  PHE234     -0.0003
     22  CE2       31.5000   81.7980   40.3260 C.ar  234  PHE234     -0.0003
     23  CZ        32.0590   80.7860   41.0720 C.ar  234  PHE234     -0.0000
     24  N         25.8630   75.3870   43.3030 N.3   262  ASP262     -0.1225
     25  CA        26.9740   75.7240   42.3890 C.3   262  ASP262      0.1805
     26  C         28.2430   75.0020   42.8900 C.2   262  ASP262      0.2597
     27  O         28.1780   74.1430   43.7880 O.2   262  ASP262     -0.2718
     28  CB        27.1370   77.2600   42.2820 C.3   262  ASP262      0.1424
     29  CG        27.7780   77.7140   40.9360 C.2   262  ASP262      0.3668
     30  OD1       28.7300   77.0160   40.4470 O.co2 262  ASP262     -0.2456
     31  OD2       27.3690   78.7850   40.4090 O.co2 262  ASP262     -0.2456
     32  N         29.3990   75.3440   42.3470 N.am  263  LEU263     -0.1979
     33  CA        30.5770   74.4550   42.4220 C.3   263  LEU263      0.1596
     34  C         31.1780   74.2360   43.8220 C.2   263  LEU263      0.2287
     35  O         32.0230   73.3500   44.0010 O.2   263  LEU263     -0.2864
     36  CB        31.6660   74.9020   41.4100 C.3   263  LEU263      0.0297
     37  CG        32.2070   76.3240   41.4330 C.3   263  LEU263      0.0022
     38  CD1       32.8300   76.6500   42.7680 C.3   263  LEU263      0.0001
     39  CD2       33.2000   76.5750   40.2950 C.3   263  LEU263      0.0001
     40  N         25.2490   71.3740   39.9920 N.3   304  ILE304     -0.1245
     41  CA        26.1100   71.6930   38.8660 C.3   304  ILE304      0.1561
     42  C         27.1180   70.5510   38.6730 C.2   304  ILE304      0.2260
     43  O         27.6500   69.9670   39.6370 O.2   304  ILE304     -0.2867
     44  CB        26.8470   73.0510   39.0530 C.3   304  ILE304      0.0252
     45  CG1       27.2670   73.6490   37.6890 C.3   304  ILE304      0.0019
     46  CG2       28.0500   72.9360   39.9650 C.3   304  ILE304      0.0019
     47  CD1       27.9170   75.0030   37.7760 C.3   304  ILE304      0.0001
     48  N         30.3140   69.7460   35.4900 N.3   306  GLU306     -0.1245
     49  CA        31.0610   70.2650   34.3190 C.3   306  GLU306      0.1567
     50  C         31.7440   69.1380   33.5400 C.2   306  GLU306      0.2260
     51  O         31.9570   68.0270   34.0870 O.2   306  GLU306     -0.2867
     52  CB        32.0980   71.2820   34.7660 C.3   306  GLU306      0.0388
     53  CG        31.5100   72.4900   35.4900 C.3   306  GLU306      0.1160
     54  CD        31.5350   72.3930   37.0020 C.2   306  GLU306      0.3649
     55  OE1       31.6870   71.2700   37.5370 O.co2 306  GLU306     -0.2457
     56  OE2       31.4020   73.4600   37.6610 O.co2 306  GLU306     -0.2457
     57  N         40.4420   77.0170   36.1500 N.3   340  PHE340     -0.1241
     58  CA        40.3270   76.2050   37.3710 C.3   340  PHE340      0.1605
     59  C         41.6010   75.4430   37.6910 C.2   340  PHE340      0.2264
     60  O         41.8360   75.0670   38.8500 O.2   340  PHE340     -0.2867
     61  CB        39.1480   75.2260   37.2110 C.3   340  PHE340      0.0534
     62  CG        37.9230   75.8900   36.6930 C.ar  340  PHE340     -0.0203
     63  CD1       37.1770   76.7470   37.5350 C.ar  340  PHE340     -0.0042
     64  CD2       37.5330   75.7380   35.3520 C.ar  340  PHE340     -0.0042
     65  CE1       36.0360   77.4070   37.0560 C.ar  340  PHE340     -0.0003
     66  CE2       36.4070   76.4090   34.8640 C.ar  340  PHE340     -0.0003
     67  CZ        35.6500   77.2410   35.7160 C.ar  340  PHE340     -0.0000
     68  N         22.3610   70.4140   36.4820 N.3   373  TRP373     -0.1241
     69  CA        22.8240   71.6040   35.8260 C.3   373  TRP373      0.1605
     70  C         24.1760   71.2480   35.1580 C.2   373  TRP373      0.2264
     71  O         25.1300   70.9340   35.8300 O.2   373  TRP373     -0.2867
     72  CB        22.9620   72.6620   36.8910 C.3   373  TRP373      0.0550
     73  CG        23.4350   74.0050   36.4950 C.ar  373  TRP373      0.0003
     74  CD1       23.4370   74.5510   35.2430 C.ar  373  TRP373      0.0946
     75  CD2       23.8970   75.0130   37.3720 C.ar  373  TRP373      0.0152
     76  NE1       23.9140   75.8240   35.2920 N.ar  373  TRP373     -0.2442
     77  CE2       24.2010   76.1430   36.5850 C.ar  373  TRP373      0.0810
     78  CE3       24.0970   75.0790   38.7550 C.ar  373  TRP373      0.0012
     79  CZ2       24.7040   77.3290   37.1270 C.ar  373  TRP373      0.0191
     80  CZ3       24.5890   76.2610   39.3050 C.ar  373  TRP373      0.0001
     81  CH2       24.8840   77.3780   38.4880 C.ar  373  TRP373      0.0015
     82  N         27.1180   72.7380   33.1830 N.3   375  ASN375     -0.1225
     83  CA        27.6740   74.0400   32.8170 C.3   375  ASN375      0.1785
     84  C         28.9800   73.8290   32.0260 C.2   375  ASN375      0.2597
     85  O         29.6060   72.7810   32.1580 O.2   375  ASN375     -0.2718
     86  CB        27.9350   74.8160   34.0880 C.3   375  ASN375      0.1169
     87  CG        28.1710   76.2910   33.8640 C.2   375  ASN375      0.2627
     88  OD1       28.8510   76.9000   34.6490 O.2   375  ASN375     -0.2716
     89  ND2       27.6540   76.8490   32.8200 N.am  375  ASN375     -0.0877
     90  N         29.3540   74.8230   31.2050 N.am  376  LEU376     -0.1980
     91  CA        30.6240   74.8870   30.4570 C.3   376  LEU376      0.1596
     92  C         30.7010   73.9230   29.2790 C.2   376  LEU376      0.2287
     93  O         31.7960   73.5510   28.8750 O.2   376  LEU376     -0.2864
     94  CB        31.8690   74.7090   31.3500 C.3   376  LEU376      0.0297
     95  CG        31.9080   75.4310   32.6870 C.3   376  LEU376      0.0022
     96  CD1       33.2060   75.1240   33.4010 C.3   376  LEU376      0.0001
     97  CD2       31.7230   76.9290   32.5140 C.3   376  LEU376      0.0001
     98  N         33.8180   75.0810   27.1400 N.3   380  GLU380     -0.1245
     99  CA        34.3580   76.4340   27.3670 C.3   380  GLU380      0.1567
    100  C         35.8250   76.5660   26.8850 C.2   380  GLU380      0.2260
    101  O         36.1920   77.5860   26.3380 O.2   380  GLU380     -0.2867
    102  CB        34.2600   76.8540   28.8410 C.3   380  GLU380      0.0388
    103  CG        34.8660   78.2320   29.1220 C.3   380  GLU380      0.1160
    104  CD        34.4460   78.7940   30.4540 C.2   380  GLU380      0.3649
    105  OE1       35.1060   78.4760   31.4740 O.co2 380  GLU380     -0.2457
    106  OE2       33.4440   79.5500   30.4850 O.co2 380  GLU380     -0.2457
    107  N         23.9850   75.0410   29.0150 N.3   426  ARG426     -0.1245
    108  CA        24.3890   76.3290   28.4600 C.3   426  ARG426      0.1563
    109  C         24.6160   76.2750   26.9620 C.2   426  ARG426      0.2260
    110  O         24.6910   77.3070   26.3080 O.2   426  ARG426     -0.2867
    111  CB        25.7120   76.7140   29.1320 C.3   426  ARG426      0.0307
    112  CG        25.9760   78.1760   29.1760 C.3   426  ARG426      0.0489
    113  CD        26.9980   78.5050   30.2390 C.3   426  ARG426      0.2205
    114  NE        28.3420   78.2680   29.7660 N.pl3 426  ARG426     -0.0865
    115  CZ        29.4300   78.7840   30.3110 C.cat 426  ARG426      0.5346
    116  NH1       29.3540   79.5290   31.3970 N.pl3 426  ARG426      0.1354
    117  NH2       30.6150   78.5530   29.7590 N.pl3 426  ARG426      0.1354
    118  N         19.9080   78.3810   29.3930 N.3   440  TRP440     -0.1241
    119  CA        19.9300   79.7600   29.8650 C.3   440  TRP440      0.1605
    120  C         21.0230   80.5610   29.1070 C.2   440  TRP440      0.2264
    121  O         21.9550   79.9680   28.5320 O.2   440  TRP440     -0.2867
    122  CB        20.0910   79.8170   31.3750 C.3   440  TRP440      0.0550
    123  CG        21.4810   79.7740   31.8810 C.ar  440  TRP440      0.0003
    124  CD1       22.2050   80.8330   32.3380 C.ar  440  TRP440      0.0946
    125  CD2       22.3140   78.6160   32.0390 C.ar  440  TRP440      0.0152
    126  NE1       23.4360   80.4200   32.7590 N.ar  440  TRP440     -0.2442
    127  CE2       23.5400   79.0620   32.5670 C.ar  440  TRP440      0.0810
    128  CE3       22.1540   77.2520   31.7580 C.ar  440  TRP440      0.0012
    129  CZ2       24.6050   78.1880   32.8370 C.ar  440  TRP440      0.0191
    130  CZ3       23.2070   76.3890   32.0110 C.ar  440  TRP440      0.0001
    131  CH2       24.4240   76.8630   32.5230 C.ar  440  TRP440      0.0015
    132  N         26.4030   84.1610   31.2990 N.3   443  ASP443     -0.1239
    133  CA        26.8970   85.0390   32.3210 C.3   443  ASP443      0.1674
    134  C         26.6270   86.5380   32.0440 C.2   443  ASP443      0.2266
    135  O         27.5400   87.3640   32.0270 O.2   443  ASP443     -0.2867
    136  CB        28.3700   84.7380   32.5560 C.3   443  ASP443      0.1410
    137  CG        28.6120   83.3260   33.0740 C.2   443  ASP443      0.3668
    138  OD1       27.6460   82.6410   33.4480 O.co2 443  ASP443     -0.2456
    139  OD2       29.7890   82.9010   33.1050 O.co2 443  ASP443     -0.2456
    140  N         23.9210   88.3260   36.4340 N.3   476  PHE476     -0.1241
    141  CA        24.8850   87.4190   37.0130 C.3   476  PHE476      0.1605
    142  C         26.2390   88.0310   37.3370 C.2   476  PHE476      0.2264
    143  O         26.7290   87.8990   38.4600 O.2   476  PHE476     -0.2867
    144  CB        25.0970   86.2450   36.0440 C.3   476  PHE476      0.0534
    145  CG        26.1860   85.3050   36.4800 C.ar  476  PHE476     -0.0203
    146  CD1       25.9240   84.2830   37.3950 C.ar  476  PHE476     -0.0042
    147  CD2       27.4930   85.4930   36.0460 C.ar  476  PHE476     -0.0042
    148  CE1       26.9400   83.4430   37.8210 C.ar  476  PHE476     -0.0003
    149  CE2       28.5030   84.6570   36.4690 C.ar  476  PHE476     -0.0003
    150  CZ        28.2300   83.6390   37.3570 C.ar  476  PHE476     -0.0000
    151  N         19.7840   84.3160   39.6470 N.3   503  HIS503     -0.1241
    152  CA        21.1030   83.7130   39.8200 C.3   503  HIS503      0.1621
    153  C         22.1850   84.7530   39.5670 C.2   503  HIS503      0.2264
    154  O         22.1790   85.4100   38.5480 O.2   503  HIS503     -0.2867
    155  CB        21.2370   82.5140   38.8750 C.3   503  HIS503      0.0745
    156  CG        22.5650   81.8120   38.9560 C.ar  503  HIS503      0.0817
    157  ND1       23.0120   81.1750   40.0960 N.ar  503  HIS503     -0.2268
    158  CD2       23.5460   81.6600   38.0280 C.ar  503  HIS503      0.1154
    159  CE1       24.2070   80.6560   39.8630 C.ar  503  HIS503      0.1986
    160  NE2       24.5530   80.9330   38.6180 N.ar  503  HIS503     -0.2212
    161  N         26.4590   86.1760   41.0130 N.3   505  GLN505     -0.1245
    162  CA        27.6490   85.9860   41.8250 C.3   505  GLN505      0.1566
    163  C         27.3400   86.5530   43.1810 C.2   505  GLN505      0.2260
    164  O         26.7730   87.6320   43.2800 O.2   505  GLN505     -0.2867
    165  CB        28.8390   86.7190   41.2080 C.3   505  GLN505      0.0367
    166  CG        29.2780   86.1350   39.8710 C.3   505  GLN505      0.0905
    167  CD        30.3520   86.9550   39.1490 C.2   505  GLN505      0.2608
    168  OE1       30.5650   88.1460   39.4320 O.2   505  GLN505     -0.2717
    169  NE2       31.0150   86.3160   38.1960 N.am  505  GLN505     -0.0878
@<TRIPOS>BOND
     1   110   109    2
     2   101   100    2
     3   100    99    1
     4   109   108    1
     5    98    99    1
     6    99   102    1
     7   108   107    1
     8   108   111    1
     9   121   120    2
    10     1     2    1
    11   102   103    1
    12    93    92    2
    13   120   119    1
    14   103   104    1
    15   111   112    1
    16   112   113    1
    17    92    91    1
    18   118   119    1
    19     4     3    2
    20   117   115    1
    21   114   113    1
    22   114   115    2
    23   119   122    1
    24     2     3    1
    25     2     5    1
    26   115   116    1
    27   104   106   ar
    28   104   105   ar
    29    91    90    1
    30    91    94    1
    31     5     6    1
    32    90    84   am
    33   132   133    1
    34    94    95    1
    35   122   123    1
    36   128   130   ar
    37   128   125   ar
    38   123   125   ar
    39   123   124   ar
    40   130   131   ar
    41    84    85    2
    42    84    83    1
    43   135   134    2
    44   125   127   ar
    45   134   133    1
    46     6     8   ar
    47     6     7   ar
    48   133   136    1
    49   124   126   ar
    50    97    95    1
    51   131   129   ar
    52   136   137    1
    53   127   126   ar
    54   127   129   ar
    55     8    10   ar
    56    95    96    1
    57    83    82    1
    58    83    86    1
    59    89    87   am
    60   137   139   ar
    61   137   138   ar
    62     7     9   ar
    63    50    51    2
    64    50    49    1
    65    87    86    1
    66    87    88    2
    67    10    11   ar
    68    49    52    1
    69    49    48    1
    70     9    11   ar
    71    52    53    1
    72    66    64   ar
    73    66    67   ar
    74    11    12    1
    75    70    69    1
    76    70    71    2
    77    74    76   ar
    78    74    73   ar
    79    76    77   ar
    80    64    62   ar
    81    53    54    1
    82    67    65   ar
    83    69    68    1
    84    69    72    1
    85   144   145    1
    86   144   141    1
    87   147   149   ar
    88   147   145   ar
    89    57    58    1
    90   140   141    1
    91   149   150   ar
    92   145   146   ar
    93    73    72    1
    94    73    75   ar
    95    77    79   ar
    96    77    75   ar
    97    62    61    1
    98    62    63   ar
    99    54    55   ar
   100    54    56   ar
   101   141   142    1
   102    65    63   ar
   103    79    81   ar
   104    61    58    1
   105   142   143    2
   106   150   148   ar
   107    58    59    1
   108    75    78   ar
   109   146   148   ar
   110    45    47    1
   111    45    44    1
   112    59    60    2
   113   158   160   ar
   114   158   156   ar
   115   169   167   am
   116    81    80   ar
   117   154   153    2
   118   160   159   ar
   119    42    41    1
   120    42    43    2
   121    78    80   ar
   122    41    44    1
   123    41    40    1
   124   155   156    1
   125   155   152    1
   126   156   157   ar
   127    44    46    1
   128   167   168    2
   129   167   166    1
   130   153   152    1
   131   151   152    1
   132   159   157   ar
   133   166   165    1
   134    39    37    1
   135    22    20   ar
   136    22    23   ar
   137    31    29   ar
   138    20    18   ar
   139    30    29   ar
   140    29    28    1
   141   161   162    1
   142    23    21   ar
   143   165   162    1
   144    18    17    1
   145    18    19   ar
   146    17    14    1
   147    36    37    1
   148    36    33    1
   149    37    38    1
   150   162   163    1
   151    21    19   ar
   152    28    25    1
   153    32    33    1
   154    32    26   am
   155    25    26    1
   156    25    24    1
   157    33    34    1
   158    14    13    1
   159    14    15    1
   160    26    27    2
   161   163   164    2
   162    16    15    2
   163    34    35    2
