@<TRIPOS>MOLECULE
tmp/5npdA01.pdb
 160 155 0 0 0
SMALL
GASTEIGER

@<TRIPOS>ATOM
      1  N         31.4720   86.3050   28.6880 N.3   142  TYR142     -0.1241
      2  CA        31.3180   86.7510   30.0310 C.3   142  TYR142      0.1605
      3  C         30.9660   88.2220   30.0820 C.2   142  TYR142      0.2264
      4  O         31.6810   89.0320   29.5480 O.2   142  TYR142     -0.2867
      5  CB        32.6010   86.5080   30.8040 C.3   142  TYR142      0.0534
      6  CG        32.5350   86.9740   32.2260 C.ar  142  TYR142     -0.0201
      7  CD1       31.9900   86.1530   33.2260 C.ar  142  TYR142     -0.0009
      8  CD2       32.9900   88.2360   32.5810 C.ar  142  TYR142     -0.0009
      9  CE1       31.9210   86.5900   34.5280 C.ar  142  TYR142      0.0417
     10  CE2       32.9160   88.6830   33.8710 C.ar  142  TYR142      0.0417
     11  CZ        32.3620   87.8580   34.8440 C.ar  142  TYR142      0.1957
     12  OH        32.3120   88.3260   36.1340 O.3   142  TYR142     -0.2866
     13  N         25.7560   82.0240   42.8370 N.3   234  PHE234     -0.1241
     14  CA        27.1110   81.4590   42.7090 C.3   234  PHE234      0.1605
     15  C         27.8740   82.0220   43.8470 C.2   234  PHE234      0.2264
     16  O         28.4440   83.1020   43.6950 O.2   234  PHE234     -0.2867
     17  CB        27.7850   81.8110   41.3690 C.3   234  PHE234      0.0534
     18  CG        29.2700   81.4560   41.2930 C.ar  234  PHE234     -0.0203
     19  CD1       29.8250   80.3940   42.0210 C.ar  234  PHE234     -0.0042
     20  CD2       30.1120   82.2030   40.4830 C.ar  234  PHE234     -0.0042
     21  CE1       31.1870   80.0750   41.9140 C.ar  234  PHE234     -0.0003
     22  CE2       31.4740   81.8880   40.3850 C.ar  234  PHE234     -0.0003
     23  CZ        32.0160   80.8480   41.1130 C.ar  234  PHE234     -0.0000
     24  N         25.8440   75.4920   43.2390 N.3   262  ASP262     -0.1225
     25  CA        26.9540   75.8010   42.3090 C.3   262  ASP262      0.1805
     26  C         28.2330   75.0740   42.8650 C.2   262  ASP262      0.2597
     27  O         28.1550   74.2180   43.7780 O.2   262  ASP262     -0.2718
     28  CB        27.1020   77.3280   42.2340 C.3   262  ASP262      0.1424
     29  CG        27.7300   77.8260   40.9170 C.2   262  ASP262      0.3668
     30  OD1       28.7070   77.1690   40.4240 O.co2 262  ASP262     -0.2456
     31  OD2       27.2440   78.8750   40.4010 O.co2 262  ASP262     -0.2456
     32  N         29.3980   75.4060   42.3270 N.am  263  LEU263     -0.1979
     33  CA        30.5910   74.5200   42.4090 C.3   263  LEU263      0.1596
     34  C         31.1770   74.3010   43.7940 C.2   263  LEU263      0.2287
     35  O         32.0070   73.3840   43.9780 O.2   263  LEU263     -0.2864
     36  CB        31.6810   74.9420   41.3760 C.3   263  LEU263      0.0297
     37  CG        32.1630   76.3850   41.3040 C.3   263  LEU263      0.0022
     38  CD1       32.6990   76.7790   42.6620 C.3   263  LEU263      0.0001
     39  CD2       33.2040   76.6260   40.2040 C.3   263  LEU263      0.0001
     40  N         25.3090   71.4530   40.0800 N.3   304  ILE304     -0.1245
     41  CA        26.1350   71.8030   38.9380 C.3   304  ILE304      0.1561
     42  C         27.1460   70.6610   38.6940 C.2   304  ILE304      0.2260
     43  O         27.6460   70.0370   39.6200 O.2   304  ILE304     -0.2867
     44  CB        26.8430   73.1620   39.1060 C.3   304  ILE304      0.0252
     45  CG1       27.2710   73.7250   37.7350 C.3   304  ILE304      0.0019
     46  CG2       28.0670   73.0760   39.9970 C.3   304  ILE304      0.0019
     47  CD1       27.9230   75.0930   37.8110 C.3   304  ILE304      0.0001
     48  N         30.2800   69.7690   35.4500 N.3   306  GLU306     -0.1245
     49  CA        31.0420   70.3420   34.3010 C.3   306  GLU306      0.1567
     50  C         31.7520   69.2390   33.4990 C.2   306  GLU306      0.2260
     51  O         31.9290   68.1230   34.0170 O.2   306  GLU306     -0.2867
     52  CB        32.0790   71.3430   34.7980 C.3   306  GLU306      0.0388
     53  CG        31.5080   72.5790   35.4950 C.3   306  GLU306      0.1160
     54  CD        31.5600   72.5450   37.0150 C.2   306  GLU306      0.3649
     55  OE1       31.7930   71.4420   37.5840 O.co2 306  GLU306     -0.2457
     56  OE2       31.3490   73.6420   37.6350 O.co2 306  GLU306     -0.2457
     57  N         40.5180   76.9870   36.1000 N.3   340  PHE340     -0.1241
     58  CA        40.3890   76.1990   37.3210 C.3   340  PHE340      0.1605
     59  C         41.6750   75.4210   37.6160 C.2   340  PHE340      0.2264
     60  O         41.9160   75.0250   38.7640 O.2   340  PHE340     -0.2867
     61  CB        39.1560   75.2740   37.1940 C.3   340  PHE340      0.0534
     62  CG        37.9270   75.9930   36.6950 C.ar  340  PHE340     -0.0203
     63  CD1       37.2380   76.9080   37.5310 C.ar  340  PHE340     -0.0042
     64  CD2       37.4870   75.8320   35.3710 C.ar  340  PHE340     -0.0042
     65  CE1       36.1110   77.6000   37.0600 C.ar  340  PHE340     -0.0003
     66  CE2       36.3660   76.5300   34.8980 C.ar  340  PHE340     -0.0003
     67  CZ        35.6690   77.4060   35.7420 C.ar  340  PHE340     -0.0000
     68  N         22.3960   70.4550   36.4750 N.3   373  TRP373     -0.1241
     69  CA        22.8350   71.6480   35.8280 C.3   373  TRP373      0.1605
     70  C         24.2070   71.2930   35.1680 C.2   373  TRP373      0.2264
     71  O         25.1390   70.9440   35.8450 O.2   373  TRP373     -0.2867
     72  CB        22.9610   72.7110   36.9070 C.3   373  TRP373      0.0550
     73  CG        23.4490   74.0530   36.5160 C.ar  373  TRP373      0.0003
     74  CD1       23.4910   74.5810   35.2730 C.ar  373  TRP373      0.0946
     75  CD2       23.8860   75.0770   37.3990 C.ar  373  TRP373      0.0152
     76  NE1       23.9410   75.8680   35.3200 N.ar  373  TRP373     -0.2442
     77  CE2       24.1990   76.1980   36.6140 C.ar  373  TRP373      0.0810
     78  CE3       24.0490   75.1600   38.7820 C.ar  373  TRP373      0.0012
     79  CZ2       24.6720   77.3870   37.1560 C.ar  373  TRP373      0.0191
     80  CZ3       24.5200   76.3340   39.3210 C.ar  373  TRP373      0.0001
     81  CH2       24.8280   77.4400   38.5070 C.ar  373  TRP373      0.0015
     82  N         27.1600   72.8930   33.2360 N.3   375  ASN375     -0.1225
     83  CA        27.7260   74.1620   32.8360 C.3   375  ASN375      0.1785
     84  C         29.0140   73.9380   32.0000 C.2   375  ASN375      0.2597
     85  O         29.6020   72.8620   32.0610 O.2   375  ASN375     -0.2718
     86  CB        28.0310   74.9720   34.0740 C.3   375  ASN375      0.1169
     87  CG        28.2900   76.4350   33.7840 C.2   375  ASN375      0.2627
     88  OD1       29.0650   77.0660   34.4840 O.2   375  ASN375     -0.2716
     89  ND2       27.7080   76.9530   32.7550 N.am  375  ASN375     -0.0877
     90  N         29.4150   74.9440   31.1980 N.am  376  LEU376     -0.1980
     91  CA        30.6790   74.9380   30.4190 C.3   376  LEU376      0.1596
     92  C         30.7120   73.9670   29.2470 C.2   376  LEU376      0.2287
     93  O         31.8010   73.6040   28.7700 O.2   376  LEU376     -0.2864
     94  CB        31.9220   74.7300   31.3120 C.3   376  LEU376      0.0297
     95  CG        31.9550   75.5150   32.6170 C.3   376  LEU376      0.0022
     96  CD1       33.2430   75.2320   33.3540 C.3   376  LEU376      0.0001
     97  CD2       31.7720   77.0270   32.4140 C.3   376  LEU376      0.0001
     98  N         33.8190   75.1420   27.0630 N.3   380  GLU380     -0.1245
     99  CA        34.3480   76.4920   27.2470 C.3   380  GLU380      0.1567
    100  C         35.8260   76.6310   26.7800 C.2   380  GLU380      0.2260
    101  O         36.2220   77.6450   26.2300 O.2   380  GLU380     -0.2867
    102  CB        34.2420   76.9360   28.6940 C.3   380  GLU380      0.0388
    103  CG        34.6730   78.3780   28.8970 C.3   380  GLU380      0.1160
    104  CD        34.3380   78.9080   30.2750 C.2   380  GLU380      0.3649
    105  OE1       35.0110   78.4780   31.2460 O.co2 380  GLU380     -0.2457
    106  OE2       33.4010   79.7410   30.3850 O.co2 380  GLU380     -0.2457
    107  N         24.0690   75.1340   29.0110 N.3   426  ARG426     -0.1245
    108  CA        24.4670   76.4250   28.4440 C.3   426  ARG426      0.1563
    109  C         24.6990   76.3880   26.9590 C.2   426  ARG426      0.2260
    110  O         24.7760   77.4450   26.3070 O.2   426  ARG426     -0.2867
    111  CB        25.7990   76.8320   29.1000 C.3   426  ARG426      0.0307
    112  CG        26.0030   78.2970   29.1860 C.3   426  ARG426      0.0489
    113  CD        27.0280   78.6330   30.2420 C.3   426  ARG426      0.2205
    114  NE        28.3690   78.3940   29.7550 N.pl3 426  ARG426     -0.0865
    115  CZ        29.4710   78.8830   30.3040 C.cat 426  ARG426      0.5346
    116  NH1       29.4150   79.6040   31.4060 N.pl3 426  ARG426      0.1354
    117  NH2       30.6540   78.6840   29.7190 N.pl3 426  ARG426      0.1354
    118  N         19.9740   78.5170   29.3680 N.3   440  TRP440     -0.1241
    119  CA        19.9410   79.8770   29.9020 C.3   440  TRP440      0.1605
    120  C         21.0170   80.7050   29.1630 C.2   440  TRP440      0.2264
    121  O         21.9950   80.1250   28.6540 O.2   440  TRP440     -0.2867
    122  CB        20.0870   79.8860   31.4080 C.3   440  TRP440      0.0550
    123  CG        21.4850   79.8540   31.9490 C.ar  440  TRP440      0.0003
    124  CD1       22.1830   80.9080   32.4450 C.ar  440  TRP440      0.0946
    125  CD2       22.3310   78.7110   32.0760 C.ar  440  TRP440      0.0152
    126  NE1       23.4160   80.5060   32.8550 N.ar  440  TRP440     -0.2442
    127  CE2       23.5430   79.1590   32.6220 C.ar  440  TRP440      0.0810
    128  CE3       22.1920   77.3620   31.7550 C.ar  440  TRP440      0.0012
    129  CZ2       24.6190   78.2960   32.8740 C.ar  440  TRP440      0.0191
    130  CZ3       23.2580   76.5110   31.9910 C.ar  440  TRP440      0.0001
    131  CH2       24.4700   76.9880   32.5160 C.ar  440  TRP440      0.0015
    132  N         26.4090   84.2580   31.2720 N.3   443  ASP443     -0.1239
    133  CA        26.9430   85.1080   32.3060 C.3   443  ASP443      0.1674
    134  C         26.6790   86.5990   32.0180 C.2   443  ASP443      0.2266
    135  O         27.5880   87.4250   31.9490 O.2   443  ASP443     -0.2867
    136  CB        28.4140   84.8060   32.5680 C.3   443  ASP443      0.1410
    137  CG        28.6580   83.4150   33.2050 C.2   443  ASP443      0.3668
    138  OD1       27.6820   82.7650   33.6230 O.co2 443  ASP443     -0.2456
    139  OD2       29.8450   82.9810   33.2820 O.co2 443  ASP443     -0.2456
    140  N         23.9640   88.4590   36.3930 N.3   476  PHE476     -0.1241
    141  CA        24.9520   87.5460   36.9630 C.3   476  PHE476      0.1605
    142  C         26.3040   88.1620   37.3200 C.2   476  PHE476      0.2264
    143  O         26.7890   87.9890   38.4330 O.2   476  PHE476     -0.2867
    144  CB        25.1970   86.3920   35.9940 C.3   476  PHE476      0.0534
    145  CG        26.2830   85.4400   36.4600 C.ar  476  PHE476     -0.0203
    146  CD1       26.0150   84.4550   37.4230 C.ar  476  PHE476     -0.0042
    147  CD2       27.5860   85.5750   36.0030 C.ar  476  PHE476     -0.0042
    148  CE1       27.0090   83.5910   37.8580 C.ar  476  PHE476     -0.0003
    149  CE2       28.5990   84.7310   36.4630 C.ar  476  PHE476     -0.0003
    150  CZ        28.3150   83.7430   37.3900 C.ar  476  PHE476     -0.0000
    151  N         19.7740   84.3980   39.6410 N.3   503  HIS503     -0.1241
    152  CA        21.0980   83.7860   39.8220 C.3   503  HIS503      0.1621
    153  C         22.1930   84.8400   39.5680 C.2   503  HIS503      0.2264
    154  O         22.1200   85.5410   38.6070 O.2   503  HIS503     -0.2867
    155  CB        21.2340   82.5910   38.8980 C.3   503  HIS503      0.0745
    156  CG        22.5840   81.9360   38.9460 C.ar  503  HIS503      0.0817
    157  ND1       23.0000   81.1910   40.0160 N.ar  503  HIS503     -0.2268
    158  CD2       23.6020   81.8990   38.0420 C.ar  503  HIS503      0.1154
    159  CE1       24.2090   80.7110   39.7780 C.ar  503  HIS503      0.1986
    160  NE2       24.6070   81.1410   38.5980 N.ar  503  HIS503     -0.2212
@<TRIPOS>BOND
     1   101   100    2
     2   110   109    2
     3   100    99    1
     4   109   108    1
     5    98    99    1
     6    99   102    1
     7   108   107    1
     8   108   111    1
     9   121   120    2
    10     1     2    1
    11   102   103    1
    12    93    92    2
    13   103   104    1
    14   111   112    1
    15   120   119    1
    16   112   113    1
    17    92    91    1
    18   118   119    1
    19     4     3    2
    20   117   115    1
    21   114   113    1
    22   114   115    2
    23   119   122    1
    24     2     3    1
    25     2     5    1
    26   104   106   ar
    27   104   105   ar
    28   115   116    1
    29    91    90    1
    30    91    94    1
    31     5     6    1
    32    90    84   am
    33   132   133    1
    34    94    95    1
    35   122   123    1
    36   128   130   ar
    37   128   125   ar
    38   135   134    2
    39   123   125   ar
    40   123   124   ar
    41   130   131   ar
    42    84    85    2
    43    84    83    1
    44   134   133    1
    45   125   127   ar
    46     6     8   ar
    47     6     7   ar
    48   133   136    1
    49    97    95    1
    50   124   126   ar
    51   131   129   ar
    52   136   137    1
    53     8    10   ar
    54    95    96    1
    55   127   126   ar
    56   127   129   ar
    57    89    87   am
    58    83    82    1
    59    83    86    1
    60   137   139   ar
    61   137   138   ar
    62     7     9   ar
    63    50    51    2
    64    50    49    1
    65    87    86    1
    66    87    88    2
    67    10    11   ar
    68    49    52    1
    69    49    48    1
    70     9    11   ar
    71    52    53    1
    72    11    12    1
    73    66    64   ar
    74    66    67   ar
    75    70    69    1
    76    70    71    2
    77    74    76   ar
    78    74    73   ar
    79    76    77   ar
    80    64    62   ar
    81    53    54    1
    82    67    65   ar
    83    69    68    1
    84    69    72    1
    85   144   145    1
    86   144   141    1
    87   147   145   ar
    88   147   149   ar
    89    57    58    1
    90   140   141    1
    91   145   146   ar
    92   149   150   ar
    93    73    72    1
    94    73    75   ar
    95    77    79   ar
    96    77    75   ar
    97    62    61    1
    98    62    63   ar
    99   141   142    1
   100    54    55   ar
   101    54    56   ar
   102    65    63   ar
   103    79    81   ar
   104    61    58    1
   105   142   143    2
   106    58    59    1
   107   150   148   ar
   108    75    78   ar
   109   146   148   ar
   110    59    60    2
   111    45    47    1
   112    45    44    1
   113   158   160   ar
   114   158   156   ar
   115    81    80   ar
   116   160   159   ar
   117   154   153    2
   118    42    41    1
   119    42    43    2
   120    78    80   ar
   121   155   156    1
   122   155   152    1
   123    41    44    1
   124    41    40    1
   125   156   157   ar
   126    44    46    1
   127   153   152    1
   128   151   152    1
   129   159   157   ar
   130    39    37    1
   131    22    20   ar
   132    22    23   ar
   133    31    29   ar
   134    30    29   ar
   135    20    18   ar
   136    29    28    1
   137    23    21   ar
   138    18    17    1
   139    18    19   ar
   140    37    36    1
   141    37    38    1
   142    17    14    1
   143    36    33    1
   144    21    19   ar
   145    28    25    1
   146    25    26    1
   147    25    24    1
   148    32    33    1
   149    32    26   am
   150    33    34    1
   151    14    13    1
   152    14    15    1
   153    26    27    2
   154    16    15    2
   155    34    35    2
