@<TRIPOS>MOLECULE
tmp/5npfA00.pdb
 191 186 0 0 0
SMALL
GASTEIGER

@<TRIPOS>ATOM
      1  N         57.0110   75.8320   72.4470 N.3    32  TYR32      -0.1241
      2  CA        55.8540   75.0190   72.7450 C.3    32  TYR32       0.1605
      3  C         56.2320   73.7990   73.5780 C.2    32  TYR32       0.2264
      4  O         57.3680   73.3770   73.5040 O.2    32  TYR32      -0.2867
      5  CB        55.1670   74.5780   71.4370 C.3    32  TYR32       0.0534
      6  CG        56.0470   73.8170   70.3880 C.ar   32  TYR32      -0.0201
      7  CD1       56.1770   72.4170   70.4420 C.ar   32  TYR32      -0.0009
      8  CD2       56.7220   74.5040   69.3170 C.ar   32  TYR32      -0.0009
      9  CE1       56.9030   71.7230   69.4790 C.ar   32  TYR32       0.0417
     10  CE2       57.4740   73.8180   68.3700 C.ar   32  TYR32       0.0417
     11  CZ        57.5970   72.4050   68.4440 C.ar   32  TYR32       0.1957
     12  OH        58.3650   71.6480   67.5080 O.3    32  TYR32      -0.2866
     13  N         57.7070   58.5620   63.7150 N.3   403  GLU403     -0.1245
     14  CA        58.6360   59.7000   63.5070 C.3   403  GLU403      0.1567
     15  C         59.3320   60.0020   64.8130 C.2   403  GLU403      0.2260
     16  O         60.5830   60.1590   64.8650 O.2   403  GLU403     -0.2867
     17  CB        57.8570   60.9210   62.9870 C.3   403  GLU403      0.0388
     18  CG        58.7010   62.1210   62.6830 C.3   403  GLU403      0.1160
     19  CD        57.9210   63.2900   62.2300 C.2   403  GLU403      0.3649
     20  OE1       56.7260   63.1940   62.0090 O.co2 403  GLU403     -0.2457
     21  OE2       58.4830   64.5070   62.0130 O.co2 403  GLU403     -0.2457
     22  N         55.8030   64.1970   67.6750 N.3   407  TYR407     -0.1241
     23  CA        55.1200   64.2920   66.3660 C.3   407  TYR407      0.1605
     24  C         54.7040   62.8370   66.0420 C.2   407  TYR407      0.2264
     25  O         55.4390   62.0640   65.4180 O.2   407  TYR407     -0.2867
     26  CB        56.0680   64.8520   65.2840 C.3   407  TYR407      0.0534
     27  CG        56.9430   66.0210   65.6720 C.ar  407  TYR407     -0.0201
     28  CD1       56.4860   67.0790   66.4440 C.ar  407  TYR407     -0.0009
     29  CD2       58.2510   66.1070   65.2060 C.ar  407  TYR407     -0.0009
     30  CE1       57.2740   68.1780   66.7220 C.ar  407  TYR407      0.0417
     31  CE2       59.0690   67.1860   65.4920 C.ar  407  TYR407      0.0417
     32  CZ        58.6150   68.2330   66.2330 C.ar  407  TYR407      0.1957
     33  OH        59.4170   69.3120   66.4960 O.3   407  TYR407     -0.2866
     34  N         53.4130   60.2990   64.4530 N.3   409  TYR409     -0.1241
     35  CA        53.0290   59.9220   63.1090 C.3   409  TYR409      0.1605
     36  C         53.7760   58.6670   62.7120 C.2   409  TYR409      0.2264
     37  O         55.0450   58.6500   62.7680 O.2   409  TYR409     -0.2867
     38  CB        53.2710   61.0420   62.0980 C.3   409  TYR409      0.0534
     39  CG        52.6080   62.3000   62.5030 C.ar  409  TYR409     -0.0201
     40  CD1       51.1970   62.3260   62.6890 C.ar  409  TYR409     -0.0009
     41  CD2       53.3280   63.4560   62.7640 C.ar  409  TYR409     -0.0009
     42  CE1       50.5770   63.4780   63.1200 C.ar  409  TYR409      0.0417
     43  CE2       52.6960   64.5910   63.2130 C.ar  409  TYR409      0.0417
     44  CZ        51.3210   64.6020   63.3850 C.ar  409  TYR409      0.1957
     45  OH        50.6820   65.7330   63.8250 O.3   409  TYR409     -0.2866
     46  N         58.9930   61.0140   54.2730 N.3   414  ASP414     -0.1225
     47  CA        60.0790   61.9710   54.0570 C.3   414  ASP414      0.1805
     48  C         61.2290   61.7830   55.0490 C.2   414  ASP414      0.2597
     49  O         62.3810   62.1860   54.7150 O.2   414  ASP414     -0.2718
     50  CB        59.5530   63.4050   54.0940 C.3   414  ASP414      0.1424
     51  CG        58.8030   63.7060   55.3750 C.2   414  ASP414      0.3668
     52  OD1       57.7520   63.0340   55.6300 O.co2 414  ASP414     -0.2456
     53  OD2       59.2310   64.6100   56.0900 O.co2 414  ASP414     -0.2456
     54  N         60.9340   61.2060   56.2040 N.am  415  VAL415     -0.1980
     55  CA        61.8930   60.9160   57.2620 C.3   415  VAL415      0.1595
     56  C         62.4380   59.5130   57.0870 C.2   415  VAL415      0.2287
     57  O         63.6550   59.2800   57.2880 O.2   415  VAL415     -0.2864
     58  CB        61.2730   61.0980   58.6710 C.3   415  VAL415      0.0276
     59  CG1       62.3230   60.9220   59.7470 C.3   415  VAL415      0.0022
     60  CG2       60.6710   62.4860   58.8170 C.3   415  VAL415      0.0022
     61  N         52.0890   61.4350   53.4480 N.3   469  HIS469     -0.1241
     62  CA        53.1380   61.7940   54.3910 C.3   469  HIS469      0.1621
     63  C         53.3860   60.7080   55.4260 C.2   469  HIS469      0.2264
     64  O         54.5390   60.4520   55.8460 O.2   469  HIS469     -0.2867
     65  CB        52.7610   63.0980   55.0550 C.3   469  HIS469      0.0745
     66  CG        53.6530   63.5080   56.1730 C.ar  469  HIS469      0.0817
     67  ND1       53.3430   63.2300   57.4840 N.ar  469  HIS469     -0.2268
     68  CD2       54.7890   64.2600   56.1820 C.ar  469  HIS469      0.1154
     69  CE1       54.2840   63.7680   58.2570 C.ar  469  HIS469      0.1986
     70  NE2       55.1880   64.3760   57.4920 N.ar  469  HIS469     -0.2212
     71  N         49.3040   63.8950   59.9360 N.3   485  TYR485     -0.1241
     72  CA        50.0160   65.1670   60.0470 C.3   485  TYR485      0.1605
     73  C         49.2460   66.2610   59.3430 C.2   485  TYR485      0.2264
     74  O         48.7800   66.0850   58.2150 O.2   485  TYR485     -0.2867
     75  CB        51.3660   65.0040   59.3300 C.3   485  TYR485      0.0534
     76  CG        52.1810   66.2210   59.0390 C.ar  485  TYR485     -0.0201
     77  CD1       53.0410   66.8010   60.0030 C.ar  485  TYR485     -0.0009
     78  CD2       52.1730   66.7720   57.7590 C.ar  485  TYR485     -0.0009
     79  CE1       53.8270   67.9100   59.6810 C.ar  485  TYR485      0.0417
     80  CE2       52.9880   67.8410   57.4210 C.ar  485  TYR485      0.0417
     81  CZ        53.7880   68.4130   58.3650 C.ar  485  TYR485      0.1957
     82  OH        54.5700   69.4950   57.9800 O.3   485  TYR485     -0.2866
     83  N         50.3570   70.0070   59.8920 N.3   487  TRP487     -0.1241
     84  CA        51.0320   71.3180   59.9670 C.3   487  TRP487      0.1605
     85  C         51.1010   71.9640   58.5770 C.2   487  TRP487      0.2264
     86  O         50.9660   73.1720   58.4320 O.2   487  TRP487     -0.2867
     87  CB        52.4480   71.2120   60.5370 C.3   487  TRP487      0.0550
     88  CG        53.0930   72.5710   60.7250 C.ar  487  TRP487      0.0003
     89  CD1       54.1770   73.0910   60.0460 C.ar  487  TRP487      0.0946
     90  CD2       52.6210   73.6130   61.5850 C.ar  487  TRP487      0.0152
     91  NE1       54.4350   74.3750   60.4770 N.ar  487  TRP487     -0.2442
     92  CE2       53.4970   74.7210   61.4210 C.ar  487  TRP487      0.0810
     93  CE3       51.5680   73.7030   62.5110 C.ar  487  TRP487      0.0012
     94  CZ2       53.3390   75.9140   62.1380 C.ar  487  TRP487      0.0191
     95  CZ3       51.4080   74.8880   63.2250 C.ar  487  TRP487      0.0001
     96  CH2       52.2910   75.9800   63.0320 C.ar  487  TRP487      0.0015
     97  N         53.5290   68.2500   48.5280 N.3   493  TRP493     -0.1241
     98  CA        54.9880   68.1700   48.7560 C.3   493  TRP493      0.1605
     99  C         55.6960   67.6530   47.4980 C.2   493  TRP493      0.2264
    100  O         55.1670   66.8260   46.7260 O.2   493  TRP493     -0.2867
    101  CB        55.3580   67.3340   49.9640 C.3   493  TRP493      0.0550
    102  CG        55.1250   68.0420   51.3050 C.ar  493  TRP493      0.0003
    103  CD1       54.3360   69.1090   51.5180 C.ar  493  TRP493      0.0946
    104  CD2       55.6730   67.6870   52.5990 C.ar  493  TRP493      0.0152
    105  NE1       54.3920   69.4850   52.8300 N.ar  493  TRP493     -0.2442
    106  CE2       55.2140   68.6460   53.5130 C.ar  493  TRP493      0.0810
    107  CE3       56.6010   66.7560   53.0310 C.ar  493  TRP493      0.0012
    108  CZ2       55.5420   68.6070   54.8520 C.ar  493  TRP493      0.0191
    109  CZ3       56.9380   66.7150   54.3290 C.ar  493  TRP493      0.0001
    110  CH2       56.4070   67.6240   55.2580 C.ar  493  TRP493      0.0015
    111  N         60.3550   68.0130   53.3740 N.3   553  THR553     -0.1218
    112  CA        60.6710   67.6080   54.7610 C.3   553  THR553      0.1862
    113  C         61.1580   68.7300   55.6570 C.2   553  THR553      0.2287
    114  O         60.9070   68.6980   56.8660 O.2   553  THR553     -0.2866
    115  CB        61.6900   66.4180   54.7510 C.3   553  THR553      0.1770
    116  OG1       61.6760   65.6690   55.9530 O.3   553  THR553     -0.2211
    117  CG2       63.1010   66.8540   54.4430 C.3   553  THR553      0.0375
    118  N         60.0750   71.4310   56.6940 N.3   555  ASP555     -0.1239
    119  CA        58.6880   71.9310   56.5670 C.3   555  ASP555      0.1674
    120  C         58.4310   73.3110   57.1530 C.2   555  ASP555      0.2266
    121  O         57.2590   73.6690   57.3780 O.2   555  ASP555     -0.2867
    122  CB        57.6930   70.8870   57.1560 C.3   555  ASP555      0.1410
    123  CG        57.7120   70.7810   58.6700 C.2   555  ASP555      0.3668
    124  OD1       58.6820   71.1940   59.3150 O.co2 555  ASP555     -0.2456
    125  OD2       56.7000   70.1940   59.2400 O.co2 555  ASP555     -0.2456
    126  N         65.1280   76.0420   60.7780 N.3   689  GLN689     -0.1245
    127  CA        65.6480   74.7970   60.2990 C.3   689  GLN689      0.1566
    128  C         67.0250   74.9410   59.6110 C.2   689  GLN689      0.2260
    129  O         67.8410   74.0310   59.6590 O.2   689  GLN689     -0.2867
    130  CB        64.6670   74.0710   59.4000 C.3   689  GLN689      0.0367
    131  CG        63.4450   73.6010   60.1770 C.3   689  GLN689      0.0905
    132  CD        62.3690   72.9610   59.3100 C.2   689  GLN689      0.2608
    133  OE1       62.3150   73.1800   58.0920 O.2   689  GLN689     -0.2717
    134  NE2       61.5060   72.1250   59.9360 N.am  689  GLN689     -0.0878
    135  N         70.6540   68.5760   61.6160 N.3   694  TRP694     -0.1241
    136  CA        69.7390   67.4180   61.6770 C.3   694  TRP694      0.1605
    137  C         70.6350   66.1890   61.7530 C.2   694  TRP694      0.2264
    138  O         71.4470   65.9220   60.8580 O.2   694  TRP694     -0.2867
    139  CB        68.7920   67.3730   60.4740 C.3   694  TRP694      0.0550
    140  CG        67.6660   68.3840   60.5930 C.ar  694  TRP694      0.0003
    141  CD1       67.5840   69.4570   61.4420 C.ar  694  TRP694      0.0946
    142  CD2       66.4410   68.4020   59.8320 C.ar  694  TRP694      0.0152
    143  NE1       66.4240   70.1610   61.2360 N.ar  694  TRP694     -0.2442
    144  CE2       65.6930   69.5380   60.2680 C.ar  694  TRP694      0.0810
    145  CE3       65.9360   67.6070   58.8100 C.ar  694  TRP694      0.0012
    146  CZ2       64.4110   69.8400   59.7550 C.ar  694  TRP694      0.0191
    147  CZ3       64.6600   67.9210   58.2780 C.ar  694  TRP694      0.0001
    148  CH2       63.9350   69.0220   58.7720 C.ar  694  TRP694      0.0015
    149  N         65.9180   64.8300   66.5320 N.3   739  GLU739     -0.1245
    150  CA        65.9730   65.3490   65.1590 C.3   739  GLU739      0.1567
    151  C         67.1510   66.3000   65.0360 C.2   739  GLU739      0.2260
    152  O         67.9780   66.1720   64.1070 O.2   739  GLU739     -0.2867
    153  CB        64.6960   66.0850   64.7790 C.3   739  GLU739      0.0388
    154  CG        64.7160   66.9070   63.4830 C.3   739  GLU739      0.1160
    155  CD        64.4440   66.1200   62.2350 C.2   739  GLU739      0.3649
    156  OE1       65.2960   65.3450   61.7950 O.co2 739  GLU739     -0.2457
    157  OE2       63.3430   66.2640   61.6200 O.co2 739  GLU739     -0.2457
    158  N         65.6430   69.7060   69.4520 N.3   748  ARG748     -0.1245
    159  CA        64.2390   69.5880   69.0690 C.3   748  ARG748      0.1563
    160  C         63.9350   68.1430   68.7230 C.2   748  ARG748      0.2260
    161  O         64.6490   67.5100   67.9200 O.2   748  ARG748     -0.2867
    162  CB        63.9340   70.5060   67.9010 C.3   748  ARG748      0.0307
    163  CG        62.4510   70.4730   67.4400 C.3   748  ARG748      0.0489
    164  CD        62.1630   71.5620   66.4590 C.3   748  ARG748      0.2205
    165  NE        62.8830   71.3620   65.2140 N.pl3 748  ARG748     -0.0865
    166  CZ        62.5110   70.5550   64.2220 C.cat 748  ARG748      0.5346
    167  NH1       61.4420   69.7720   64.3450 N.pl3 748  ARG748      0.1354
    168  NH2       63.2770   70.4870   63.1040 N.pl3 748  ARG748      0.1354
    169  N         64.0780   60.1070   67.9890 N.3   752  TYR752     -0.1241
    170  CA        63.7490   60.4950   66.6400 C.3   752  TYR752      0.1605
    171  C         64.1720   59.4510   65.6270 C.2   752  TYR752      0.2264
    172  O         65.2450   58.8580   65.7580 O.2   752  TYR752     -0.2867
    173  CB        64.3530   61.8540   66.2900 C.3   752  TYR752      0.0534
    174  CG        63.5630   62.5830   65.2080 C.ar  752  TYR752     -0.0201
    175  CD1       62.3380   63.2030   65.5390 C.ar  752  TYR752     -0.0009
    176  CD2       63.9660   62.6220   63.8730 C.ar  752  TYR752     -0.0009
    177  CE1       61.5380   63.8050   64.5420 C.ar  752  TYR752      0.0417
    178  CE2       63.1790   63.2140   62.8920 C.ar  752  TYR752      0.0417
    179  CZ        61.9850   63.7910   63.2340 C.ar  752  TYR752      0.1957
    180  OH        61.2260   64.3460   62.2400 O.3   752  TYR752     -0.2866
    181  N         65.0040   59.7390   62.2740 N.3   754  ARG754     -0.1197
    182  CA        65.9500   60.0700   61.2000 C.3   754  ARG754      0.1779
    183  C         67.4200   59.5960   61.4630 C.2   754  ARG754      0.2305
    184  O         68.0310   59.1110   60.5020 O.2   754  ARG754     -0.2863
    185  CB        65.9140   61.5490   60.8500 C.2   754  ARG754     -0.0007
    186  CG        66.1460   61.8870   59.3920 C.2   754  ARG754      0.0176
    187  CD        66.1670   63.3670   59.0270 C.3   754  ARG754      0.2464
    188  NE        64.9670   64.1230   59.3850 N.pl3 754  ARG754     -0.0815
    189  CZ        63.9650   64.4800   58.5910 C.cat 754  ARG754      0.5349
    190  NH1       63.9230   64.1040   57.3120 N.pl3 754  ARG754      0.1354
    191  NH2       62.9770   65.2010   59.1000 N.pl3 754  ARG754      0.1354
@<TRIPOS>BOND
     1   100    99    2
     2    99    98    1
     3    97    98    1
     4    98   101    1
     5   101   102    1
     6   102   103   ar
     7   102   104   ar
     8   103   105   ar
     9   104   107   ar
    10   104   106   ar
    11   105   106   ar
    12   107   109   ar
    13   111   112    1
    14    61    62    1
    15   106   108   ar
    16    47    50    1
    17    47    46    1
    18    47    48    1
    19    50    51    1
    20   109   110   ar
    21    62    65    1
    22    62    63    1
    23   117   115    1
    24    49    48    2
    25   115   112    1
    26   115   116    1
    27   112   113    1
    28   108   110   ar
    29    48    54   am
    30    65    66    1
    31    51    52   ar
    32    51    53   ar
    33    63    64    2
    34   113   114    2
    35    66    68   ar
    36    66    67   ar
    37    68    70   ar
    38    54    55    1
    39   119   118    1
    40   119   120    1
    41   119   122    1
    42    56    55    1
    43    56    57    2
    44   120   121    2
    45   122   123    1
    46    55    58    1
    47   190   189    1
    48    80    78   ar
    49    80    81   ar
    50    67    69   ar
    51    70    69   ar
    52    78    76   ar
    53    82    81    1
    54   133   132    2
    55    74    73    2
    56   147   148   ar
    57   147   145   ar
    58    81    79   ar
    59    86    85    2
    60    85    84    1
    61   189   191    1
    62   189   188    2
    63   123   125   ar
    64   123   124   ar
    65    58    60    1
    66    58    59    1
    67   148   146   ar
    68   145   142   ar
    69   187   188    1
    70   187   186    1
    71    76    75    1
    72    76    77   ar
    73   132   134   am
    74   132   131    1
    75    75    72    1
    76    73    72    1
    77   186   185    2
    78   130   131    1
    79   130   127    1
    80   128   129    2
    81   128   127    1
    82    79    77   ar
    83   146   144   ar
    84   142   144   ar
    85   142   140   ar
    86    83    84    1
    87    71    72    1
    88    84    87    1
    89    89    91   ar
    90    89    88   ar
    91   144   143   ar
    92   127   126    1
    93   139   140    1
    94   139   136    1
    95    91    92   ar
    96   184   183    2
    97    87    88    1
    98   140   141   ar
    99    88    90   ar
   100   185   182    1
   101   138   137    2
   102   182   183    1
   103   182   181    1
   104   143   141   ar
   105    92    90   ar
   106    92    94   ar
   107    90    93   ar
   108   135   136    1
   109   157   155   ar
   110   136   137    1
   111   156   155   ar
   112    20    19   ar
   113    21    19   ar
   114    38    39    1
   115    38    35    1
   116    94    96   ar
   117    19    18    1
   118   155   154    1
   119   180   179    1
   120    39    40   ar
   121    39    41   ar
   122    93    95   ar
   123    18    17    1
   124    40    42   ar
   125    36    37    2
   126    36    35    1
   127    41    43   ar
   128   178   179   ar
   129   178   176   ar
   130    17    14    1
   131    96    95   ar
   132   168   166    1
   133    35    34    1
   134    42    44   ar
   135    43    44   ar
   136   179   177   ar
   137    44    45    1
   138   154   153    1
   139    14    13    1
   140    14    15    1
   141   176   174   ar
   142   152   151    2
   143   166   167    1
   144   166   165    2
   145   177   175   ar
   146   153   150    1
   147    15    16    2
   148   151   150    1
   149   150   149    1
   150    29    31   ar
   151    29    27   ar
   152   174   175   ar
   153   174   173    1
   154   165   164    1
   155    26    27    1
   156    26    23    1
   157    25    24    2
   158    31    32   ar
   159   171   172    2
   160   171   170    1
   161    27    28   ar
   162    24    23    1
   163    32    33    1
   164    32    30   ar
   165   173   170    1
   166    23    22    1
   167    28    30   ar
   168   164   163    1
   169   170   169    1
   170   163   162    1
   171    12    11    1
   172   162   159    1
   173   161   160    2
   174    10    11   ar
   175    10     8   ar
   176    11     9   ar
   177   160   159    1
   178   159   158    1
   179     8     6   ar
   180     9     7   ar
   181     6     7   ar
   182     6     5    1
   183     5     2    1
   184     1     2    1
   185     2     3    1
   186     4     3    2
