@<TRIPOS>MOLECULE
tmp/5npkE00.pdb
 118 111 0 0 0
SMALL
GASTEIGER

@<TRIPOS>ATOM
      1  N         28.9790   51.3090   73.1170 N.3   180  ARG180     -0.1245
      2  CA        29.1670   50.8690   74.4970 C.3   180  ARG180      0.1563
      3  C         29.9910   51.9090   75.2890 C.2   180  ARG180      0.2260
      4  O         29.6640   52.2040   76.4500 O.2   180  ARG180     -0.2867
      5  CB        29.8350   49.5050   74.5340 C.3   180  ARG180      0.0307
      6  CG        29.8820   48.9730   75.9930 C.3   180  ARG180      0.0489
      7  CD        31.0130   47.8740   76.1090 C.3   180  ARG180      0.2205
      8  NE        32.3750   48.3990   75.9180 N.pl3 180  ARG180     -0.0865
      9  CZ        32.9890   49.1470   76.7850 C.cat 180  ARG180      0.5346
     10  NH1       32.4080   49.4320   78.0080 N.pl3 180  ARG180      0.1354
     11  NH2       34.2380   49.6020   76.5060 N.pl3 180  ARG180      0.1354
     12  N         27.8230   54.8230   76.2850 N.3   183  ILE183     -0.1231
     13  CA        26.9120   54.5180   77.3800 C.3   183  ILE183      0.1692
     14  C         27.6550   54.5130   78.6860 C.2   183  ILE183      0.2591
     15  O         27.1730   55.1070   79.6940 O.2   183  ILE183     -0.2718
     16  CB        26.2450   53.1270   77.1500 C.3   183  ILE183      0.0266
     17  CG1       25.3550   53.2350   75.8690 C.3   183  ILE183      0.0019
     18  CG2       25.3450   52.7900   78.3460 C.3   183  ILE183      0.0020
     19  CD1       25.0980   51.7920   75.3270 C.3   183  ILE183      0.0001
     20  N         28.8190   53.8420   78.7310 N.am  184  GLU184     -0.1979
     21  CA        29.5820   53.7940   79.9700 C.3   184  GLU184      0.1602
     22  C         30.0250   55.1940   80.3890 C.2   184  GLU184      0.2287
     23  O         29.9710   55.5200   81.5730 O.2   184  GLU184     -0.2864
     24  CB        30.8010   52.8810   79.7800 C.3   184  GLU184      0.0415
     25  CG        31.7310   52.8180   81.0150 C.3   184  GLU184      0.1163
     26  CD        32.8400   51.8390   80.8710 C.2   184  GLU184      0.3649
     27  OE1       33.3720   51.6950   79.6960 O.co2 184  GLU184     -0.2457
     28  OE2       33.1960   51.2280   81.9200 O.co2 184  GLU184     -0.2457
     29  N         26.8070   57.1720   81.7210 N.3   187  ALA187     -0.1231
     30  CA        25.7920   56.4740   82.4680 C.3   187  ALA187      0.1694
     31  C         25.2800   57.2660   83.6520 C.2   187  ALA187      0.2591
     32  O         24.0940   57.0880   84.0290 O.2   187  ALA187     -0.2718
     33  CB        26.3740   55.1150   82.9900 C.3   187  ALA187      0.0304
     34  N         26.1110   58.1250   84.2560 N.am  188  VAL188     -0.1980
     35  CA        25.6210   58.8560   85.4400 C.3   188  VAL188      0.1595
     36  C         24.5460   59.9130   85.0770 C.2   188  VAL188      0.2287
     37  O         23.7580   60.2630   85.9290 O.2   188  VAL188     -0.2864
     38  CB        26.8100   59.5320   86.1370 C.3   188  VAL188      0.0276
     39  CG1       27.6270   58.4310   86.8380 C.3   188  VAL188      0.0022
     40  CG2       27.5930   60.4200   85.1080 C.3   188  VAL188      0.0022
     41  N         20.6640   52.6060   78.8180 N.3   212  MET212     -0.1245
     42  CA        20.9050   52.3620   80.2240 C.3   212  MET212      0.1570
     43  C         19.7730   51.5470   80.8640 C.2   212  MET212      0.2261
     44  O         20.0520   50.6460   81.6640 O.2   212  MET212     -0.2867
     45  CB        21.0310   53.7410   80.9980 C.3   212  MET212      0.0387
     46  CG        22.4450   54.3030   80.8870 C.3   212  MET212      0.0595
     47  SD        23.6140   53.2910   81.8610 S.3   212  MET212     -0.1393
     48  CE        22.9590   53.5910   83.5290 C.3   212  MET212      0.0692
     49  N         20.1530   47.9060   79.9430 N.3   215  ILE215     -0.1231
     50  CA        21.3090   47.2840   80.5940 C.3   215  ILE215      0.1692
     51  C         20.9980   47.0120   82.0700 C.2   215  ILE215      0.2591
     52  O         21.1830   45.8700   82.5570 O.2   215  ILE215     -0.2718
     53  CB        22.5200   48.1910   80.4460 C.3   215  ILE215      0.0266
     54  CG1       23.0580   48.1000   79.0000 C.3   215  ILE215      0.0019
     55  CG2       23.6250   47.7750   81.4800 C.3   215  ILE215      0.0020
     56  CD1       24.1410   49.1690   78.7310 C.3   215  ILE215      0.0001
     57  N         20.5280   48.0060   82.7830 N.am  216  VAL216     -0.1980
     58  CA        20.3670   47.8640   84.2610 C.3   216  VAL216      0.1595
     59  C         19.0040   47.4790   84.7100 C.2   216  VAL216      0.2287
     60  O         18.8330   47.1730   85.8880 O.2   216  VAL216     -0.2864
     61  CB        20.7960   49.1610   84.9940 C.3   216  VAL216      0.0276
     62  CG1       22.2260   49.5910   84.5120 C.3   216  VAL216      0.0022
     63  CG2       19.7550   50.2890   84.7660 C.3   216  VAL216      0.0022
     64  N         26.1890   45.4690   74.6260 N.3   364  MET364     -0.1245
     65  CA        26.6560   44.2210   75.2230 C.3   364  MET364      0.1570
     66  C         25.5030   43.2440   75.2590 C.2   364  MET364      0.2261
     67  O         24.3250   43.6080   75.0810 O.2   364  MET364     -0.2867
     68  CB        27.2200   44.3990   76.6380 C.3   364  MET364      0.0387
     69  CG        26.1420   44.9950   77.6140 C.3   364  MET364      0.0595
     70  SD        26.7740   45.5500   79.1770 S.3   364  MET364     -0.1393
     71  CE        27.7000   46.9910   78.5570 C.3   364  MET364      0.0692
     72  N         28.2110   38.0400   81.4440 N.3   521  ILE521     -0.1245
     73  CA        27.9790   39.3730   81.8940 C.3   521  ILE521      0.1561
     74  C         26.7820   39.4580   82.8210 C.2   521  ILE521      0.2260
     75  O         25.7310   38.8990   82.5640 O.2   521  ILE521     -0.2867
     76  CB        27.7740   40.3620   80.7320 C.3   521  ILE521      0.0252
     77  CG1       29.1470   40.6030   80.0210 C.3   521  ILE521      0.0019
     78  CG2       27.2790   41.7240   81.1800 C.3   521  ILE521      0.0019
     79  CD1       29.0380   41.2800   78.7150 C.3   521  ILE521      0.0001
     80  N         24.9230   46.9390   90.5280 N.3   526  GLY526     -0.1210
     81  CA        24.0830   47.7220   89.6800 C.3   526  GLY526      0.1956
     82  C         24.6900   48.0610   88.3020 C.2   526  GLY526      0.2612
     83  O         24.1600   48.8920   87.5600 O.2   526  GLY526     -0.2717
     84  N         25.8740   47.5390   88.0030 N.am  527  ARG527     -0.1966
     85  CA        26.5420   47.8980   86.7870 C.3   527  ARG527      0.1714
     86  C         27.0320   46.6110   86.0500 C.2   527  ARG527      0.2458
     87  O         27.4460   45.6520   86.6820 O.2   527  ARG527     -0.2730
     88  CB        27.8010   48.7970   87.0480 C.3   527  ARG527      0.0347
     89  CG        27.4390   50.0590   87.7140 C.3   527  ARG527      0.0492
     90  CD        28.6780   50.7400   88.2110 C.3   527  ARG527      0.2205
     91  NE        28.3430   51.8060   89.2080 N.pl3 527  ARG527     -0.0865
     92  CZ        29.1340   52.8430   89.3700 C.cat 527  ARG527      0.5346
     93  NH1       30.3500   52.8760   88.7160 N.pl3 527  ARG527      0.1354
     94  NH2       28.7990   53.7540   90.2630 N.pl3 527  ARG527      0.1354
     95  N         26.9460   46.6540   84.6440 N.am  528  PRO528     -0.2716
     96  CA        27.3540   45.4390   84.0290 C.3   528  PRO528      0.1536
     97  C         28.9010   45.1690   84.0920 C.2   528  PRO528      0.2598
     98  O         29.6930   46.0510   83.9460 O.2   528  PRO528     -0.2715
     99  CB        26.9990   45.6760   82.5460 C.3   528  PRO528      0.0310
    100  CG        27.2580   47.1880   82.3680 C.3   528  PRO528      0.0237
    101  CD        26.5980   47.7020   83.6460 C.3   528  PRO528      0.0939
    102  N         29.2140   43.9000   84.2960 N.am  529  LYS529     -0.1964
    103  CA        30.5730   43.4690   84.2630 C.3   529  LYS529      0.1728
    104  C         30.7130   42.0950   83.6510 C.2   529  LYS529      0.2616
    105  O         29.8830   41.2470   83.8400 O.2   529  LYS529     -0.2715
    106  CB        31.1570   43.4680   85.7150 C.3   529  LYS529      0.0311
    107  CG        32.5690   42.9190   85.8680 C.3   529  LYS529      0.0038
    108  CD        33.2960   43.6410   87.0390 C.3   529  LYS529      0.0206
    109  CE        34.7740   43.2300   87.0970 C.3   529  LYS529      0.1093
    110  NZ        35.0080   41.8260   86.5330 N.3   529  LYS529     -0.1314
    111  N         31.6650   41.8970   82.7800 N.am  530  LEU530     -0.1977
    112  CA        32.1410   40.5430   82.3960 C.3   530  LEU530      0.1596
    113  C         32.8680   39.9040   83.5550 C.2   530  LEU530      0.2287
    114  O         33.8080   40.4690   84.0850 O.2   530  LEU530     -0.2864
    115  CB        33.0610   40.7160   81.2100 C.3   530  LEU530      0.0297
    116  CG        33.5710   39.3730   80.6290 C.3   530  LEU530      0.0022
    117  CD1       32.4310   38.5050   80.1050 C.3   530  LEU530      0.0001
    118  CD2       34.6080   39.6240   79.5180 C.3   530  LEU530      0.0001
@<TRIPOS>BOND
     1     1     2    1
     2     2     5    1
     3     2     3    1
     4     5     6    1
     5    64    65    1
     6    67    66    2
     7    65    66    1
     8    65    68    1
     9     3     4    2
    10    19    17    1
    11    17    16    1
    12     8     7    1
    13     8     9    2
    14     6     7    1
    15    12    13    1
    16    11     9    1
    17    68    69    1
    18     9    10    1
    19    16    13    1
    20    16    18    1
    21    13    14    1
    22    69    70    1
    23    71    70    1
    24    14    20   am
    25    14    15    2
    26    79    77    1
    27    20    21    1
    28    56    54    1
    29    41    42    1
    30    54    53    1
    31   118   116    1
    32    27    26   ar
    33    24    21    1
    34    24    25    1
    35    49    50    1
    36    21    22    1
    37    77    76    1
    38   117   116    1
    39    42    43    1
    40    42    45    1
    41    22    23    2
    42    53    50    1
    43    53    55    1
    44    50    51    1
    45   116   115    1
    46    76    78    1
    47    76    73    1
    48    43    44    2
    49    26    25    1
    50    26    28   ar
    51    46    45    1
    52    46    47    1
    53   115   112    1
    54    72    73    1
    55    29    30    1
    56    47    48    1
    57    73    74    1
    58    51    52    2
    59    51    57   am
    60   100    99    1
    61   100   101    1
    62   112   111    1
    63   112   113    1
    64    30    33    1
    65    30    31    1
    66    99    96    1
    67    75    74    2
    68   111   104   am
    69    57    58    1
    70   113   114    2
    71   101    95    1
    72   104   105    2
    73   104   103    1
    74    31    32    2
    75    31    34   am
    76    98    97    2
    77    96    97    1
    78    96    95    1
    79    97   102   am
    80    34    35    1
    81    58    59    1
    82    58    61    1
    83   103   102    1
    84   103   106    1
    85    62    61    1
    86    95    86   am
    87    59    60    2
    88    63    61    1
    89    36    35    1
    90    36    37    2
    91    40    38    1
    92    35    38    1
    93   106   107    1
    94   107   108    1
    95    86    87    2
    96    86    85    1
    97    38    39    1
    98   110   109    1
    99    85    88    1
   100    85    84    1
   101   108   109    1
   102    88    89    1
   103    83    82    2
   104    89    90    1
   105    84    82   am
   106    90    91    1
   107    82    81    1
   108    93    92    1
   109    91    92    2
   110    92    94    1
   111    81    80    1
