@<TRIPOS>MOLECULE
tmp/5nppB00.pdb
 137 130 0 0 0
SMALL
GASTEIGER

@<TRIPOS>ATOM
      1  N        -25.0980   50.2540   25.9400 N.3   181  ARG181     -0.1245
      2  CA       -25.5660   48.9810   26.4440 C.3   181  ARG181      0.1563
      3  C        -26.4650   48.3210   25.4240 C.2   181  ARG181      0.2260
      4  O        -26.3030   47.1090   25.1560 O.2   181  ARG181     -0.2867
      5  CB       -26.2850   49.1280   27.7810 C.3   181  ARG181      0.0307
      6  CG       -26.6640   47.7870   28.4050 C.3   181  ARG181      0.0489
      7  CD       -27.8620   47.8900   29.3130 C.3   181  ARG181      0.2205
      8  NE       -28.9840   48.4010   28.5560 N.pl3 181  ARG181     -0.0865
      9  CZ       -29.7910   47.6490   27.8220 C.cat 181  ARG181      0.5346
     10  NH1      -29.5990   46.3340   27.7930 N.pl3 181  ARG181      0.1354
     11  NH2      -30.7980   48.2190   27.1490 N.pl3 181  ARG181      0.1354
     12  N        -24.7130   46.6800   22.6100 N.3   184  ILE184     -0.1231
     13  CA       -24.0250   45.4240   22.9800 C.3   184  ILE184      0.1692
     14  C        -24.9730   44.2530   23.0760 C.2   184  ILE184      0.2591
     15  O        -24.6880   43.1900   22.5560 O.2   184  ILE184     -0.2718
     16  CB       -23.2430   45.5700   24.3110 C.3   184  ILE184      0.0266
     17  CG1      -22.2370   46.7260   24.2490 C.3   184  ILE184      0.0019
     18  CG2      -22.5080   44.2940   24.6610 C.3   184  ILE184      0.0020
     19  CD1      -21.6850   47.1190   25.5990 C.3   184  ILE184      0.0001
     20  N        -26.1100   44.4740   23.7260 N.am  185  GLU185     -0.1979
     21  CA       -27.1310   43.4490   23.8500 C.3   185  GLU185      0.1602
     22  C        -27.5860   42.9860   22.4820 C.2   185  GLU185      0.2287
     23  O        -27.7260   41.7740   22.2720 O.2   185  GLU185     -0.2864
     24  CB       -28.3240   43.9370   24.6480 C.3   185  GLU185      0.0415
     25  CG       -29.3860   42.8660   24.8410 C.3   185  GLU185      0.1163
     26  CD       -30.6760   43.3890   25.4130 C.2   185  GLU185      0.3649
     27  OE1      -31.5420   42.5360   25.7410 O.co2 185  GLU185     -0.2457
     28  OE2      -30.8310   44.6270   25.5270 O.co2 185  GLU185     -0.2457
     29  N        -24.4130   41.1220   20.8240 N.3   188  ALA188     -0.1231
     30  CA       -23.6750   40.1090   21.5650 C.3   188  ALA188      0.1694
     31  C        -24.0260   38.6830   21.1000 C.2   188  ALA188      0.2592
     32  O        -25.1750   38.3570   20.8490 O.2   188  ALA188     -0.2718
     33  CB       -23.8850   40.2660   23.0530 C.3   188  ALA188      0.0304
     34  N        -23.0020   37.8530   20.9740 N.am  189  VAL189     -0.1966
     35  CA       -23.1400   36.4710   20.5040 C.3   189  VAL189      0.1727
     36  C        -21.9750   35.6060   21.0150 C.2   189  VAL189      0.2616
     37  O        -20.9330   36.1250   21.3850 O.2   189  VAL189     -0.2715
     38  CB       -23.2000   36.4270   18.9490 C.3   189  VAL189      0.0290
     39  CG1      -21.9510   37.0640   18.3440 C.3   189  VAL189      0.0023
     40  CG2      -23.3220   34.9970   18.4540 C.3   189  VAL189      0.0023
     41  N        -22.1400   34.2870   20.9660 N.am  190  TYR190     -0.1974
     42  CA       -21.0730   33.3580   21.3500 C.3   190  TYR190      0.1639
     43  C        -20.3310   32.7490   20.1550 C.2   190  TYR190      0.2290
     44  O        -20.9290   32.1740   19.2570 O.2   190  TYR190     -0.2864
     45  CB       -21.5780   32.2770   22.3410 C.3   190  TYR190      0.0560
     46  CG       -21.5140   32.7250   23.7780 C.ar  190  TYR190     -0.0198
     47  CD1      -20.2690   32.8780   24.4200 C.ar  190  TYR190     -0.0009
     48  CD2      -22.6820   33.0480   24.4840 C.ar  190  TYR190     -0.0009
     49  CE1      -20.1880   33.3370   25.7220 C.ar  190  TYR190      0.0417
     50  CE2      -22.6140   33.4970   25.7940 C.ar  190  TYR190      0.0417
     51  CZ       -21.3630   33.6430   26.4050 C.ar  190  TYR190      0.1957
     52  OH       -21.2600   34.0800   27.6930 O.3   190  TYR190     -0.2866
     53  N        -17.9630   42.6800   25.4170 N.3   208  MET208     -0.1245
     54  CA       -18.4800   41.3520   25.6930 C.3   208  MET208      0.1570
     55  C        -17.5680   40.6490   26.6760 C.2   208  MET208      0.2261
     56  O        -18.0500   40.0160   27.6400 O.2   208  MET208     -0.2867
     57  CB       -18.5620   40.5000   24.4120 C.3   208  MET208      0.0387
     58  CG       -19.9260   40.4640   23.7370 C.3   208  MET208      0.0595
     59  SD       -20.2750   38.8160   23.0240 S.3   208  MET208     -0.1393
     60  CE       -19.4070   37.6960   24.1420 C.3   208  MET208      0.0692
     61  N        -17.9360   41.9040   30.2940 N.3   211  ILE211     -0.1231
     62  CA       -19.1680   41.4030   30.9000 C.3   211  ILE211      0.1692
     63  C        -19.1140   39.9280   31.2510 C.2   211  ILE211      0.2591
     64  O        -19.4850   39.5600   32.3700 O.2   211  ILE211     -0.2718
     65  CB       -20.3100   41.6680   29.9360 C.3   211  ILE211      0.0266
     66  CG1      -20.5590   43.1620   29.8870 C.3   211  ILE211      0.0019
     67  CG2      -21.5890   40.9520   30.3440 C.3   211  ILE211      0.0020
     68  CD1      -21.3360   43.5940   28.6560 C.3   211  ILE211      0.0001
     69  N        -18.6960   39.0670   30.3290 N.am  212  VAL212     -0.1980
     70  CA       -18.7580   37.6150   30.6260 C.3   212  VAL212      0.1595
     71  C        -17.4860   37.0110   31.1710 C.2   212  VAL212      0.2287
     72  O        -17.5020   35.8640   31.6450 O.2   212  VAL212     -0.2864
     73  CB       -19.2420   36.7930   29.4280 C.3   212  VAL212      0.0276
     74  CG1      -20.3600   37.5420   28.6820 C.3   212  VAL212      0.0022
     75  CG2      -18.1120   36.5460   28.4580 C.3   212  VAL212      0.0022
     76  N        -18.8980   47.0350   31.1720 N.3   358  VAL358     -0.1245
     77  CA       -19.0950   47.9800   30.0950 C.3   358  VAL358      0.1561
     78  C        -20.5980   47.9620   29.8170 C.2   358  VAL358      0.2260
     79  O        -21.1850   46.8860   29.5720 O.2   358  VAL358     -0.2867
     80  CB       -18.3320   47.5720   28.8300 C.3   358  VAL358      0.0252
     81  CG1      -18.6690   48.5130   27.6690 C.3   358  VAL358      0.0019
     82  CG2      -16.8310   47.5320   29.0700 C.3   358  VAL358      0.0019
     83  N        -22.7790   48.4330   31.8560 N.3   360  MET360     -0.1245
     84  CA       -23.4450   48.0260   33.0950 C.3   360  MET360      0.1570
     85  C        -22.4360   47.7960   34.1890 C.2   360  MET360      0.2261
     86  O        -21.2110   47.7050   33.9290 O.2   360  MET360     -0.2867
     87  CB       -24.2480   46.7250   32.9190 C.3   360  MET360      0.0387
     88  CG       -23.3880   45.5260   32.4780 C.3   360  MET360      0.0595
     89  SD       -24.4730   44.1490   32.1880 S.3   360  MET360     -0.1393
     90  CE       -25.7600   44.8660   31.1460 C.3   360  MET360      0.0692
     91  N        -26.6260   42.5170   39.4200 N.3   517  ILE517     -0.1245
     92  CA       -26.4310   41.9580   38.0910 C.3   517  ILE517      0.1561
     93  C        -25.3760   40.8610   38.1620 C.2   517  ILE517      0.2260
     94  O        -24.2620   41.0820   38.6720 O.2   517  ILE517     -0.2867
     95  CB       -26.0110   43.0270   37.0710 C.3   517  ILE517      0.0252
     96  CG1      -27.1720   43.9530   36.7050 C.3   517  ILE517      0.0019
     97  CG2      -25.4340   42.4190   35.8210 C.3   517  ILE517      0.0019
     98  CD1      -26.7540   45.2330   35.9690 C.3   517  ILE517      0.0001
     99  N        -24.5500   32.4760   31.1820 N.3   522  GLY522     -0.1210
    100  CA       -23.5840   33.1900   30.3590 C.3   522  GLY522      0.1956
    101  C        -23.9980   34.5620   29.8800 C.2   522  GLY522      0.2612
    102  O        -23.3650   35.1190   28.9720 O.2   522  GLY522     -0.2717
    103  N        -25.0630   35.1240   30.4580 N.am  523  ARG523     -0.1966
    104  CA       -25.4820   36.5020   30.0800 C.3   523  ARG523      0.1714
    105  C        -25.7170   37.2880   31.3200 C.2   523  ARG523      0.2458
    106  O        -26.1790   36.7400   32.3010 O.2   523  ARG523     -0.2730
    107  CB       -26.7480   36.5070   29.2480 C.3   523  ARG523      0.0347
    108  CG       -26.7090   35.4770   28.1550 C.3   523  ARG523      0.0492
    109  CD       -27.9760   35.3890   27.3450 C.3   523  ARG523      0.2205
    110  NE       -27.6640   34.4860   26.2430 N.pl3 523  ARG523     -0.0865
    111  CZ       -28.2180   34.5210   25.0390 C.cat 523  ARG523      0.5346
    112  NH1      -29.1380   35.4340   24.7360 N.pl3 523  ARG523      0.1354
    113  NH2      -27.8270   33.6360   24.1330 N.pl3 523  ARG523      0.1354
    114  N        -25.4090   38.5950   31.2930 N.am  524  PRO524     -0.2716
    115  CA       -25.6890   39.4410   32.4430 C.3   524  PRO524      0.1536
    116  C        -27.2080   39.5450   32.6200 C.2   524  PRO524      0.2598
    117  O        -27.9820   39.6830   31.6470 O.2   524  PRO524     -0.2715
    118  CB       -25.1530   40.7860   32.0260 C.3   524  PRO524      0.0310
    119  CG       -25.1960   40.7750   30.4970 C.3   524  PRO524      0.0237
    120  CD       -25.0260   39.3510   30.0850 C.3   524  PRO524      0.0939
    121  N        -27.6350   39.5440   33.8560 N.am  525  LYS525     -0.1964
    122  CA       -29.0670   39.6770   34.1400 C.3   525  LYS525      0.1728
    123  C        -29.2840   40.3780   35.4860 C.2   525  LYS525      0.2616
    124  O        -28.6320   40.0710   36.4700 O.2   525  LYS525     -0.2715
    125  CB       -29.7390   38.2990   34.1480 C.3   525  LYS525      0.0311
    126  CG       -31.2390   38.4460   34.1700 C.3   525  LYS525      0.0038
    127  CD       -31.9510   37.0920   34.1250 C.3   525  LYS525      0.0206
    128  CE       -33.4590   37.2990   34.2450 C.3   525  LYS525      0.1093
    129  NZ       -34.0830   35.9470   34.0310 N.3   525  LYS525     -0.1314
    130  N        -30.2170   41.3220   35.5100 N.am  526  LEU526     -0.1977
    131  CA       -30.6220   41.9570   36.7390 C.3   526  LEU526      0.1596
    132  C        -31.5510   40.9700   37.3910 C.2   526  LEU526      0.2287
    133  O        -32.5180   40.5530   36.7680 O.2   526  LEU526     -0.2864
    134  CB       -31.3160   43.2960   36.4440 C.3   526  LEU526      0.0297
    135  CG       -31.7370   44.0530   37.7130 C.3   526  LEU526      0.0022
    136  CD1      -30.4970   44.5110   38.4700 C.3   526  LEU526      0.0001
    137  CD2      -32.5670   45.2900   37.3580 C.3   526  LEU526      0.0001
@<TRIPOS>BOND
     1    39    38    1
     2    40    38    1
     3    38    35    1
     4    44    43    2
     5    43    42    1
     6    35    34    1
     7    35    36    1
     8    29    30    1
     9    32    31    2
    10    41    36   am
    11    41    42    1
    12    34    31   am
    13    36    37    2
    14    31    30    1
    15    42    45    1
    16    30    33    1
    17    23    22    2
    18    45    46    1
    19    22    21    1
    20    15    14    2
    21    12    13    1
    22    13    14    1
    23    13    16    1
    24    59    58    1
    25    59    60    1
    26    14    20   am
    27    20    21    1
    28    58    57    1
    29    46    47   ar
    30    46    48   ar
    31    21    24    1
    32   113   111    1
    33    17    16    1
    34    17    19    1
    35    16    18    1
    36    57    54    1
    37    47    49   ar
    38    48    50   ar
    39    24    25    1
    40   112   111    1
    41    25    26    1
    42   111   110    2
    43     4     3    2
    44    26    28   ar
    45    26    27   ar
    46    53    54    1
    47     3     2    1
    48    54    55    1
    49    49    51   ar
    50    50    51   ar
    51     1     2    1
    52   110   109    1
    53    51    52    1
    54     2     5    1
    55    55    56    2
    56    11     9    1
    57   109   108    1
    58    81    80    1
    59     5     6    1
    60    10     9    1
    61     9     8    2
    62   108   107    1
    63     6     7    1
    64    75    73    1
    65     8     7    1
    66    68    66    1
    67    74    73    1
    68    80    82    1
    69    80    77    1
    70   102   101    2
    71   107   104    1
    72    73    70    1
    73    79    78    2
    74    78    77    1
    75   101   100    1
    76   101   103   am
    77    66    65    1
    78    65    67    1
    79    65    62    1
    80   104   103    1
    81   104   105    1
    82   120   119    1
    83   120   114    1
    84    77    76    1
    85    61    62    1
    86    69    70    1
    87    69    63   am
    88   100    99    1
    89   119   118    1
    90    70    71    1
    91    62    63    1
    92    90    89    1
    93    71    72    2
    94    63    64    2
    95   114   105   am
    96   114   115    1
    97   105   106    2
    98   117   116    2
    99    83    84    1
   100   118   115    1
   101    89    88    1
   102   115   116    1
   103    88    87    1
   104   116   121   am
   105    87    84    1
   106    84    85    1
   107   121   122    1
   108    86    85    2
   109   129   128    1
   110   127   126    1
   111   127   128    1
   112   122   125    1
   113   122   123    1
   114   125   126    1
   115   123   130   am
   116   123   124    2
   117   130   131    1
   118    97    95    1
   119    98    96    1
   120   134   131    1
   121   134   135    1
   122    96    95    1
   123   131   132    1
   124   133   132    2
   125    95    92    1
   126   137   135    1
   127   135   136    1
   128    92    93    1
   129    92    91    1
   130    93    94    2
