@<TRIPOS>MOLECULE
tmp/5npsA00.pdb
 231 225 0 0 0
SMALL
GASTEIGER

@<TRIPOS>ATOM
      1  N         -6.1860  -57.5950   36.0720 N.3   185  HIS185     -0.1241
      2  CA        -6.4180  -56.4280   35.2060 C.3   185  HIS185      0.1621
      3  C         -5.1560  -55.8290   34.5620 C.2   185  HIS185      0.2264
      4  O         -5.2360  -55.2830   33.4620 O.2   185  HIS185     -0.2867
      5  CB        -7.2020  -55.3410   35.9670 C.3   185  HIS185      0.0745
      6  CG        -7.7910  -54.2810   35.0840 C.ar  185  HIS185      0.0817
      7  ND1       -8.7920  -54.5430   34.1730 N.ar  185  HIS185     -0.2268
      8  CD2       -7.5220  -52.9580   34.9780 C.ar  185  HIS185      0.1154
      9  CE1       -9.1130  -53.4260   33.5410 C.ar  185  HIS185      0.1986
     10  NE2       -8.3600  -52.4500   34.0140 N.ar  185  HIS185     -0.2212
     11  N        -19.4790  -43.7880   35.2200 N.3   245  HIS245     -0.1227
     12  CA       -18.3760  -44.7170   34.9570 C.3   245  HIS245      0.1737
     13  C        -18.4590  -45.1320   33.4940 C.2   245  HIS245      0.2438
     14  O        -19.5660  -45.1940   32.9550 O.2   245  HIS245     -0.2733
     15  CB       -18.5180  -45.9490   35.8440 C.3   245  HIS245      0.0758
     16  CG       -17.3600  -46.8930   35.7730 C.ar  245  HIS245      0.0818
     17  ND1      -17.2570  -47.8660   34.8050 N.ar  245  HIS245     -0.2268
     18  CD2      -16.2590  -47.0210   36.5550 C.ar  245  HIS245      0.1154
     19  CE1      -16.1410  -48.5490   34.9880 C.ar  245  HIS245      0.1986
     20  NE2      -15.5170  -48.0560   36.0440 N.ar  245  HIS245     -0.2212
     21  N        -17.3120  -45.4150   32.8430 N.am  246  PRO246     -0.2718
     22  CA       -17.3530  -45.8460   31.4250 C.3   246  PRO246      0.1535
     23  C        -18.3360  -46.9650   31.0930 C.2   246  PRO246      0.2599
     24  O        -18.9740  -46.9150   30.0430 O.2   246  PRO246     -0.2715
     25  CB       -15.9090  -46.2820   31.1210 C.3   246  PRO246      0.0310
     26  CG       -15.0890  -45.8760   32.2880 C.3   246  PRO246      0.0237
     27  CD       -15.9350  -45.1640   33.2930 C.3   246  PRO246      0.0939
     28  N        -18.4950  -47.9410   31.9780 N.am  247  THR247     -0.1951
     29  CA       -19.4160  -49.0450   31.7180 C.3   247  THR247      0.1897
     30  C        -20.8770  -48.5750   31.5630 C.2   247  THR247      0.2313
     31  O        -21.5470  -48.9990   30.6260 O.2   247  THR247     -0.2863
     32  CB       -19.2330  -50.1760   32.7510 C.3   247  THR247      0.1794
     33  OG1      -17.9050  -50.7020   32.6090 O.3   247  THR247     -0.2208
     34  CG2      -20.2260  -51.2970   32.5160 C.3   247  THR247      0.0378
     35  N        -21.6880  -45.5420   30.5630 N.3   249  HIS249     -0.1226
     36  CA       -21.6210  -44.8040   29.2890 C.3   249  HIS249      0.1752
     37  C        -21.7300  -45.7450   28.0710 C.2   249  HIS249      0.2595
     38  O        -22.0560  -45.2960   26.9710 O.2   249  HIS249     -0.2718
     39  CB       -20.3310  -43.9860   29.1660 C.3   249  HIS249      0.0759
     40  CG       -20.0330  -43.1220   30.3500 C.ar  249  HIS249      0.0818
     41  ND1      -18.7530  -42.7370   30.6730 N.ar  249  HIS249     -0.2268
     42  CD2      -20.8350  -42.6060   31.3130 C.ar  249  HIS249      0.1154
     43  CE1      -18.7780  -42.0010   31.7670 C.ar  249  HIS249      0.1986
     44  NE2      -20.0290  -41.9110   32.1800 N.ar  249  HIS249     -0.2212
     45  N        -21.4130  -47.0250   28.2590 N.am  250  LEU250     -0.1980
     46  CA       -21.6040  -48.0340   27.2250 C.3   250  LEU250      0.1596
     47  C        -23.0110  -48.6340   27.2050 C.2   250  LEU250      0.2287
     48  O        -23.6200  -48.7300   26.1390 O.2   250  LEU250     -0.2864
     49  CB       -20.5760  -49.1600   27.3730 C.3   250  LEU250      0.0297
     50  CG       -19.0920  -48.7860   27.3300 C.3   250  LEU250      0.0022
     51  CD1      -18.2700  -50.0650   27.3820 C.3   250  LEU250      0.0001
     52  CD2      -18.7320  -47.9390   26.1240 C.3   250  LEU250      0.0001
     53  N        -12.1790  -55.6960   38.5570 N.3   320  THR320     -0.1218
     54  CA       -12.0890  -54.2400   38.6330 C.3   320  THR320      0.1862
     55  C        -12.5410  -53.7890   40.0080 C.2   320  THR320      0.2287
     56  O        -13.1540  -54.5570   40.7650 O.2   320  THR320     -0.2866
     57  CB       -12.9420  -53.5330   37.5540 C.3   320  THR320      0.1770
     58  OG1      -14.3050  -53.9850   37.6080 O.3   320  THR320     -0.2211
     59  CG2      -12.3820  -53.7940   36.1720 C.3   320  THR320      0.0375
     60  N        -18.6990  -57.3490   29.2270 N.3   340  LEU340     -0.1231
     61  CA       -18.4580  -55.9400   28.9020 C.3   340  LEU340      0.1693
     62  C        -17.4510  -55.1980   29.7760 C.2   340  LEU340      0.2592
     63  O        -16.5420  -54.5500   29.2470 O.2   340  LEU340     -0.2718
     64  CB       -19.7830  -55.1540   28.8280 C.3   340  LEU340      0.0284
     65  CG       -19.7120  -53.7880   28.1500 C.3   340  LEU340      0.0019
     66  CD1      -19.1360  -53.8960   26.7460 C.3   340  LEU340      0.0001
     67  CD2      -21.0880  -53.1580   28.1160 C.3   340  LEU340      0.0001
     68  N        -17.6200  -55.2600   31.0900 N.am  341  GLY341     -0.1957
     69  CA       -16.8360  -54.4340   31.9910 C.3   341  GLY341      0.1869
     70  C        -15.4050  -54.8650   32.2150 C.2   341  GLY341      0.2309
     71  O        -14.5790  -54.0320   32.5810 O.2   341  GLY341     -0.2863
     72  N        -12.0790  -56.7840   30.4920 N.3   343  PRO343     -0.2116
     73  CA       -11.5120  -57.2610   29.2420 C.3   343  PRO343      0.1372
     74  C        -10.5430  -58.4320   29.4360 C.2   343  PRO343      0.2244
     75  O         -9.3780  -58.3550   29.0450 O.2   343  PRO343     -0.2868
     76  CB       -10.7850  -56.0190   28.7250 C.3   343  PRO343      0.0268
     77  CG       -10.2400  -55.4100   29.9710 C.3   343  PRO343      0.0207
     78  CD       -11.3090  -55.6340   31.0100 C.3   343  PRO343      0.0892
     79  N        -18.9040  -55.3250   21.9450 N.3   381  PHE381     -0.1241
     80  CA       -18.8330  -53.9470   22.4090 C.3   381  PHE381      0.1605
     81  C        -20.0750  -53.1690   21.9850 C.2   381  PHE381      0.2264
     82  O        -20.7170  -53.4820   20.9940 O.2   381  PHE381     -0.2867
     83  CB       -17.5400  -53.2520   21.9830 C.3   381  PHE381      0.0534
     84  CG       -16.8330  -52.6140   23.1350 C.ar  381  PHE381     -0.0203
     85  CD1      -16.0770  -53.3840   24.0100 C.ar  381  PHE381     -0.0042
     86  CD2      -17.0020  -51.2690   23.4050 C.ar  381  PHE381     -0.0042
     87  CE1      -15.4550  -52.8010   25.1090 C.ar  381  PHE381     -0.0003
     88  CE2      -16.3870  -50.6840   24.5040 C.ar  381  PHE381     -0.0003
     89  CZ       -15.6210  -51.4530   25.3560 C.ar  381  PHE381     -0.0000
     90  N         -6.2930  -40.8020   22.6270 N.3   504  PHE504     -0.1227
     91  CA        -6.8440  -40.2380   23.8580 C.3   504  PHE504      0.1736
     92  C         -6.8930  -41.2170   25.0410 C.2   504  PHE504      0.2595
     93  O         -7.6400  -40.9930   25.9960 O.2   504  PHE504     -0.2718
     94  CB        -8.2390  -39.6780   23.5730 C.3   504  PHE504      0.0547
     95  CG        -8.2740  -38.5430   22.5800 C.ar  504  PHE504     -0.0202
     96  CD1       -7.2470  -37.6090   22.4870 C.ar  504  PHE504     -0.0042
     97  CD2       -9.3770  -38.3870   21.7640 C.ar  504  PHE504     -0.0042
     98  CE1       -7.3210  -36.5540   21.5970 C.ar  504  PHE504     -0.0003
     99  CE2       -9.4550  -37.3380   20.8760 C.ar  504  PHE504     -0.0003
    100  CZ        -8.4310  -36.4210   20.7900 C.ar  504  PHE504     -0.0000
    101  N         -6.0740  -42.2610   24.9980 N.am  505  ASN505     -0.1960
    102  CA        -6.0160  -43.2470   26.0680 C.3   505  ASN505      0.1819
    103  C         -5.1130  -42.7970   27.1920 C.2   505  ASN505      0.2621
    104  O         -4.2710  -41.9130   27.0200 O.2   505  ASN505     -0.2715
    105  CB        -5.5350  -44.5970   25.5540 C.3   505  ASN505      0.1195
    106  CG        -6.6020  -45.3330   24.7890 C.2   505  ASN505      0.2630
    107  OD1       -7.6260  -45.7130   25.3600 O.2   505  ASN505     -0.2716
    108  ND2       -6.3610  -45.5750   23.5040 N.am  505  ASN505     -0.0877
    109  N         -5.3150  -43.4040   28.3590 N.am  506  GLN506     -0.1977
    110  CA        -4.3830  -43.2290   29.4570 C.3   506  GLN506      0.1601
    111  C         -3.0060  -43.6600   28.9720 C.2   506  GLN506      0.2287
    112  O         -2.8780  -44.6500   28.2260 O.2   506  GLN506     -0.2864
    113  CB        -4.7910  -44.0580   30.6600 C.3   506  GLN506      0.0394
    114  CG        -6.1130  -43.6660   31.2680 C.3   506  GLN506      0.0908
    115  CD        -6.3750  -44.4000   32.5600 C.2   506  GLN506      0.2608
    116  OE1       -5.6990  -44.1450   33.5620 O.2   506  GLN506     -0.2717
    117  NE2       -7.3160  -45.3470   32.5400 N.am  506  GLN506     -0.0878
    118  N         -0.5300  -45.1950   30.2310 N.3   508  TYR508     -0.1227
    119  CA        -0.0490  -46.5480   30.5610 C.3   508  TYR508      0.1736
    120  C         -0.2170  -47.5740   29.4320 C.2   508  TYR508      0.2595
    121  O          0.4640  -48.5860   29.4300 O.2   508  TYR508     -0.2718
    122  CB        -0.6460  -47.0860   31.8860 C.3   508  TYR508      0.0548
    123  CG        -2.0420  -47.6560   31.8120 C.ar  508  TYR508     -0.0200
    124  CD1       -2.2600  -48.9660   31.3820 C.ar  508  TYR508     -0.0009
    125  CD2       -3.1530  -46.9040   32.2150 C.ar  508  TYR508     -0.0009
    126  CE1       -3.5320  -49.4930   31.3050 C.ar  508  TYR508      0.0417
    127  CE2       -4.4340  -47.4400   32.1520 C.ar  508  TYR508      0.0417
    128  CZ        -4.6120  -48.7300   31.6970 C.ar  508  TYR508      0.1957
    129  OH        -5.8630  -49.2800   31.6100 O.3   508  TYR508     -0.2866
    130  N         -1.1180  -47.3150   28.4860 N.am  509  LYS509     -0.1980
    131  CA        -1.3390  -48.2360   27.3740 C.3   509  LYS509      0.1596
    132  C         -0.2760  -48.1290   26.2750 C.2   509  LYS509      0.2287
    133  O         -0.2670  -48.9450   25.3650 O.2   509  LYS509     -0.2864
    134  CB        -2.7310  -48.0240   26.7850 C.3   509  LYS509      0.0298
    135  CG        -3.8480  -48.2590   27.7870 C.3   509  LYS509      0.0038
    136  CD        -5.1880  -48.2450   27.0810 C.3   509  LYS509      0.0206
    137  CE        -6.3500  -48.4980   28.0290 C.3   509  LYS509      0.1093
    138  NZ        -7.6260  -48.5680   27.2550 N.3   509  LYS509     -0.1314
    139  N         -2.9590  -36.9930   25.4990 N.3   533  LEU533     -0.1245
    140  CA        -3.4910  -36.3740   26.7130 C.3   533  LEU533      0.1561
    141  C         -2.5480  -36.4560   27.9020 C.2   533  LEU533      0.2260
    142  O         -1.7850  -37.4030   28.0590 O.2   533  LEU533     -0.2867
    143  CB        -4.8430  -36.9770   27.0920 C.3   533  LEU533      0.0270
    144  CG        -5.8870  -36.9470   25.9740 C.3   533  LEU533      0.0019
    145  CD1       -7.2120  -37.4600   26.5160 C.3   533  LEU533      0.0001
    146  CD2       -6.0580  -35.5410   25.4280 C.3   533  LEU533      0.0001
    147  N         -2.4430  -37.6420   30.8350 N.3   535  PHE535     -0.1241
    148  CA        -3.2700  -38.6950   31.4190 C.3   535  PHE535      0.1605
    149  C         -2.3680  -39.7780   32.0120 C.2   535  PHE535      0.2264
    150  O         -2.4460  -40.9430   31.6220 O.2   535  PHE535     -0.2867
    151  CB        -4.2000  -39.2660   30.3230 C.3   535  PHE535      0.0534
    152  CG        -5.5470  -39.7840   30.7970 C.ar  535  PHE535     -0.0203
    153  CD1       -5.8920  -39.9190   32.1480 C.ar  535  PHE535     -0.0042
    154  CD2       -6.4930  -40.1590   29.8380 C.ar  535  PHE535     -0.0042
    155  CE1       -7.1590  -40.3820   32.5110 C.ar  535  PHE535     -0.0003
    156  CE2       -7.7370  -40.6410   30.1950 C.ar  535  PHE535     -0.0003
    157  CZ        -8.0770  -40.7430   31.5370 C.ar  535  PHE535     -0.0000
    158  N         -6.9420  -33.7500   30.0860 N.3   561  VAL561     -0.1231
    159  CA        -8.1340  -34.5890   30.1070 C.3   561  VAL561      0.1692
    160  C         -9.3380  -33.6460   30.2170 C.2   561  VAL561      0.2591
    161  O         -9.3250  -32.6770   30.9840 O.2   561  VAL561     -0.2718
    162  CB        -8.1030  -35.6130   31.2730 C.3   561  VAL561      0.0266
    163  CG1       -9.4120  -36.3860   31.3770 C.3   561  VAL561      0.0020
    164  CG2       -6.9480  -36.5870   31.0980 C.3   561  VAL561      0.0020
    165  N        -10.3700  -33.9260   29.4310 N.am  562  ALA562     -0.1980
    166  CA       -11.5520  -33.0710   29.3380 C.3   562  ALA562      0.1597
    167  C        -12.7730  -33.7400   29.9620 C.2   562  ALA562      0.2287
    168  O        -12.7900  -34.9730   30.1130 O.2   562  ALA562     -0.2864
    169  CB       -11.8410  -32.7780   27.8680 C.3   562  ALA562      0.0319
    170  N        -16.3910  -35.4640   29.7410 N.3   564  LYS564     -0.1245
    171  CA       -16.8340  -36.4900   28.8010 C.3   564  LYS564      0.1561
    172  C        -17.2910  -35.9610   27.4400 C.2   564  LYS564      0.2260
    173  O        -16.8080  -36.4150   26.3970 O.2   564  LYS564     -0.2867
    174  CB       -17.9750  -37.3010   29.4350 C.3   564  LYS564      0.0271
    175  CG       -18.4510  -38.4940   28.6260 C.3   564  LYS564      0.0035
    176  CD       -17.4970  -39.6580   28.7600 C.3   564  LYS564      0.0206
    177  CE       -17.9680  -40.8160   27.9230 C.3   564  LYS564      0.1093
    178  NZ       -17.2390  -42.0730   28.1890 N.3   564  LYS564     -0.1314
    179  N        -14.4990  -34.3060   25.4030 N.3   567  HIS567     -0.1241
    180  CA       -13.6040  -35.3790   24.9320 C.3   567  HIS567      0.1621
    181  C        -14.1160  -36.0250   23.6480 C.2   567  HIS567      0.2264
    182  O        -13.3650  -36.1700   22.6760 O.2   567  HIS567     -0.2867
    183  CB       -13.3910  -36.3990   26.0520 C.3   567  HIS567      0.0745
    184  CG       -13.0170  -37.7740   25.5940 C.ar  567  HIS567      0.0817
    185  ND1      -11.8190  -38.0670   24.9800 N.ar  567  HIS567     -0.2268
    186  CD2      -13.6790  -38.9460   25.7070 C.ar  567  HIS567      0.1154
    187  CE1      -11.7660  -39.3620   24.7270 C.ar  567  HIS567      0.1986
    188  NE2      -12.8840  -39.9190   25.1570 N.ar  567  HIS567     -0.2212
    189  N        -14.3070  -33.1910   20.7440 N.3   570  ARG570     -0.1245
    190  CA       -13.0240  -32.7260   20.1890 C.3   570  ARG570      0.1563
    191  C        -12.3190  -33.7490   19.3140 C.2   570  ARG570      0.2260
    192  O        -11.4240  -33.3830   18.5520 O.2   570  ARG570     -0.2867
    193  CB       -12.0920  -32.1950   21.2820 C.3   570  ARG570      0.0307
    194  CG       -11.4110  -33.2370   22.1240 C.3   570  ARG570      0.0489
    195  CD       -10.6920  -32.5670   23.2670 C.3   570  ARG570      0.2205
    196  NE       -10.1480  -33.5420   24.1970 N.pl3 570  ARG570     -0.0865
    197  CZ        -9.4470  -33.2360   25.2920 C.cat 570  ARG570      0.5346
    198  NH1       -9.1560  -31.9740   25.5910 N.pl3 570  ARG570      0.1354
    199  NH2       -9.0160  -34.2070   26.0740 N.pl3 570  ARG570      0.1354
    200  N        -10.9730  -49.0140   24.4370 N.3   586  HIS586     -0.1226
    201  CA       -12.2080  -49.7720   24.4840 C.3   586  HIS586      0.1752
    202  C        -13.3380  -48.7480   24.4130 C.2   586  HIS586      0.2597
    203  O        -13.7950  -48.4220   23.3240 O.2   586  HIS586     -0.2718
    204  CB       -12.2460  -50.6720   25.7260 C.3   586  HIS586      0.0759
    205  CG       -11.1640  -51.7090   25.7570 C.ar  586  HIS586      0.0818
    206  ND1      -10.8610  -52.4330   26.8920 N.ar  586  HIS586     -0.2268
    207  CD2      -10.2970  -52.1270   24.8040 C.ar  586  HIS586      0.1154
    208  CE1       -9.8650  -53.2610   26.6290 C.ar  586  HIS586      0.1986
    209  NE2       -9.4930  -53.0830   25.3750 N.ar  586  HIS586     -0.2212
    210  N        -13.7460  -48.1750   25.5440 N.am  587  THR587     -0.1939
    211  CA       -14.6760  -47.0540   25.5270 C.3   587  THR587      0.2028
    212  C        -14.1240  -45.9120   24.6690 C.2   587  THR587      0.2642
    213  O        -14.8580  -45.3040   23.8880 O.2   587  THR587     -0.2714
    214  CB       -14.9650  -46.5610   26.9610 C.3   587  THR587      0.1808
    215  OG1      -15.6140  -47.6090   27.6850 O.3   587  THR587     -0.2208
    216  CG2      -15.8590  -45.3370   26.9510 C.3   587  THR587      0.0379
    217  N        -12.8230  -45.6680   24.7900 N.am  588  THR588     -0.1950
    218  CA       -12.1440  -44.5880   24.0720 C.3   588  THR588      0.1897
    219  C        -12.1990  -44.8010   22.5590 C.2   588  THR588      0.2313
    220  O        -12.2620  -43.8370   21.7890 O.2   588  THR588     -0.2863
    221  CB       -10.6910  -44.4990   24.5500 C.3   588  THR588      0.1794
    222  OG1      -10.6950  -44.3410   25.9870 O.3   588  THR588     -0.2208
    223  CG2       -9.9510  -43.3300   23.9160 C.3   588  THR588      0.0378
    224  N        -15.6240  -43.7440   21.4630 N.3   591  ASP591     -0.1239
    225  CA       -15.6480  -42.2810   21.5050 C.3   591  ASP591      0.1674
    226  C        -15.1350  -41.6740   20.1960 C.2   591  ASP591      0.2266
    227  O        -15.7820  -40.8050   19.6140 O.2   591  ASP591     -0.2867
    228  CB       -14.7970  -41.7580   22.6680 C.3   591  ASP591      0.1410
    229  CG       -15.3290  -42.1630   24.0400 C.2   591  ASP591      0.3668
    230  OD1      -16.5380  -42.4780   24.1860 O.co2 591  ASP591     -0.2456
    231  OD2      -14.5140  -42.1470   24.9850 O.co2 591  ASP591     -0.2456
@<TRIPOS>BOND
     1   192   191    2
     2   191   190    1
     3   227   226    2
     4   190   189    1
     5   190   193    1
     6   226   225    1
     7   100    99   ar
     8   100    98   ar
     9    99    97   ar
    10    82    81    2
    11   193   194    1
    12   224   225    1
    13   225   228    1
    14    98    96   ar
    15    97    95   ar
    16   220   219    2
    17    79    80    1
    18    83    80    1
    19    83    84    1
    20    81    80    1
    21   194   195    1
    22    96    95   ar
    23   219   218    1
    24    95    94    1
    25    90    91    1
    26   228   229    1
    27   182   181    2
    28    84    86   ar
    29    84    85   ar
    30   195   196    1
    31   203   202    2
    32    86    88   ar
    33   108   106   am
    34    94    91    1
    35   181   180    1
    36    91    92    1
    37   213   212    2
    38   223   221    1
    39    85    87   ar
    40   229   230   ar
    41   229   231   ar
    42   218   221    1
    43   218   217    1
    44   196   197    2
    45   202   201    1
    46   202   210   am
    47   200   201    1
    48   201   204    1
    49    88    89   ar
    50   221   222    1
    51   212   217   am
    52   212   211    1
    53   187   185   ar
    54   187   188   ar
    55   106   107    2
    56   106   105    1
    57   207   209   ar
    58   207   205   ar
    59   180   179    1
    60   180   183    1
    61   185   184   ar
    62   101    92   am
    63   101   102    1
    64    92    93    2
    65    87    89   ar
    66   188   186   ar
    67   197   198    1
    68   197   199    1
    69   133   132    2
    70   209   208   ar
    71   146   144    1
    72   139   140    1
    73   211   210    1
    74   211   214    1
    75   105   102    1
    76   184   186   ar
    77   184   183    1
    78   204   205    1
    79   205   206   ar
    80   144   145    1
    81   144   143    1
    82   102   103    1
    83    52    50    1
    84    48    47    2
    85   132   131    1
    86   173   172    2
    87   208   206   ar
    88   140   143    1
    89   140   141    1
    90    66    65    1
    91   134   131    1
    92   134   135    1
    93   216   214    1
    94   214   215    1
    95    38    37    2
    96   104   103    2
    97   136   135    1
    98   136   137    1
    99   103   109   am
   100    47    46    1
   101    46    49    1
   102    46    45    1
   103   138   137    1
   104    50    49    1
   105    50    51    1
   106   131   130    1
   107   172   171    1
   108   169   166    1
   109   141   142    2
   110   177   178    1
   111   177   176    1
   112    37    45   am
   113    37    36    1
   114    67    65    1
   115    65    64    1
   116   112   111    2
   117   109   110    1
   118   130   120   am
   119   175   176    1
   120   175   174    1
   121    76    73    1
   122    76    77    1
   123   171   174    1
   124   171   170    1
   125    64    61    1
   126    61    60    1
   127    61    62    1
   128   111   110    1
   129    75    74    2
   130    39    36    1
   131    39    40    1
   132    73    74    1
   133    73    72    1
   134    63    62    2
   135    36    35    1
   136   166   165    1
   137   166   167    1
   138   121   120    2
   139   165   160   am
   140   120   119    1
   141   110   113    1
   142    62    68   am
   143   154   156   ar
   144   154   152   ar
   145   167   168    2
   146    77    78    1
   147    24    23    2
   148   158   159    1
   149   159   160    1
   150   159   162    1
   151   156   157   ar
   152   160   161    2
   153   118   119    1
   154   151   152    1
   155   151   148    1
   156    40    41   ar
   157    40    42   ar
   158    72    78    1
   159   119   122    1
   160    31    30    2
   161   113   114    1
   162    41    43   ar
   163   152   153   ar
   164   147   148    1
   165    68    69    1
   166    23    22    1
   167    23    28   am
   168   164   162    1
   169    25    22    1
   170    25    26    1
   171   114   115    1
   172   162   163    1
   173   126   124   ar
   174   126   128   ar
   175    42    44   ar
   176   124   123   ar
   177   148   149    1
   178    22    21    1
   179   157   155   ar
   180    30    29    1
   181   129   128    1
   182   150   149    2
   183   128   127   ar
   184    29    28    1
   185    29    32    1
   186    43    44   ar
   187   123   122    1
   188   123   125   ar
   189    69    70    1
   190   153   155   ar
   191   127   125   ar
   192    70    71    2
   193    26    27    1
   194    34    32    1
   195   117   115   am
   196   115   116    2
   197    33    32    1
   198    21    27    1
   199    21    13   am
   200    14    13    2
   201     4     3    2
   202    13    12    1
   203     9    10   ar
   204     9     7   ar
   205    10     8   ar
   206     7     6   ar
   207     3     2    1
   208    17    19   ar
   209    17    16   ar
   210    12    11    1
   211    12    15    1
   212     8     6   ar
   213    19    20   ar
   214     6     5    1
   215     2     5    1
   216     2     1    1
   217    16    15    1
   218    16    18   ar
   219    20    18   ar
   220    59    57    1
   221    57    58    1
   222    57    54    1
   223    53    54    1
   224    54    55    1
   225    55    56    2
