@<TRIPOS>MOLECULE
tmp/5npuC00.pdb
 159 156 0 0 0
SMALL
GASTEIGER

@<TRIPOS>ATOM
      1  N         21.4830  -82.8770  -57.9630 N.3   289  TYR289     -0.1241
      2  CA        21.8900  -84.2400  -57.6430 C.3   289  TYR289      0.1605
      3  C         20.9020  -84.9400  -56.7160 C.2   289  TYR289      0.2264
      4  O         20.4440  -86.0450  -57.0180 O.2   289  TYR289     -0.2867
      5  CB        23.2860  -84.2390  -57.0040 C.3   289  TYR289      0.0534
      6  CG        24.4470  -84.1790  -57.9690 C.ar  289  TYR289     -0.0201
      7  CD1       24.2510  -83.9680  -59.3250 C.ar  289  TYR289     -0.0009
      8  CD2       25.7470  -84.3390  -57.5140 C.ar  289  TYR289     -0.0009
      9  CE1       25.3140  -83.9170  -60.1990 C.ar  289  TYR289      0.0417
     10  CE2       26.8190  -84.2890  -58.3790 C.ar  289  TYR289      0.0417
     11  CZ        26.5970  -84.0770  -59.7250 C.ar  289  TYR289      0.1957
     12  OH        27.6530  -84.0240  -60.6110 O.3   289  TYR289     -0.2866
     13  N         33.0690  -89.1040  -52.9630 N.3   373  THR373     -0.1203
     14  CA        32.4020  -88.8090  -54.2210 C.3   373  THR373      0.1994
     15  C         32.8510  -89.7730  -55.3100 C.2   373  THR373      0.2618
     16  O         34.0430  -90.0530  -55.4610 O.2   373  THR373     -0.2717
     17  CB        32.6980  -87.3670  -54.6330 C.3   373  THR373      0.1784
     18  OG1       32.3540  -86.4800  -53.5600 O.3   373  THR373     -0.2211
     19  CG2       31.9270  -86.9870  -55.8930 C.3   373  THR373      0.0376
     20  N         31.8900  -90.2810  -56.0610 N.am  374  GLY374     -0.1942
     21  CA        32.1420  -91.3020  -57.0470 C.3   374  GLY374      0.2014
     22  C         31.0290  -92.3160  -57.0320 C.2   374  GLY374      0.2639
     23  O         29.9590  -92.0930  -56.4690 O.2   374  GLY374     -0.2714
     24  N         31.2900  -93.4560  -57.6670 N.am  375  ASP375     -0.1957
     25  CA        30.3740  -94.5770  -57.5480 C.3   375  ASP375      0.1840
     26  C         30.2330  -95.0050  -56.0980 C.2   375  ASP375      0.2622
     27  O         29.1830  -95.5200  -55.6970 O.2   375  ASP375     -0.2715
     28  CB        30.8820  -95.7420  -58.3960 C.3   375  ASP375      0.1450
     29  CG        30.0210  -96.9810  -58.2640 C.2   375  ASP375      0.3671
     30  OD1       29.0540  -97.1160  -59.0400 O.co2 375  ASP375     -0.2456
     31  OD2       30.3100  -97.8240  -57.3840 O.co2 375  ASP375     -0.2456
     32  N         31.2690  -94.7600  -55.2930 N.am  376  SER376     -0.1950
     33  CA        31.2670  -95.2060  -53.9070 C.3   376  SER376      0.1924
     34  C         30.0460  -94.6910  -53.1530 C.2   376  SER376      0.2314
     35  O         29.6070  -95.3150  -52.1780 O.2   376  SER376     -0.2863
     36  CB        32.5490  -94.7270  -53.2290 C.3   376  SER376      0.2116
     37  OG        33.5960  -94.5790  -54.1800 O.3   376  SER376     -0.2180
     38  N         28.9780  -80.3390  -51.7670 N.3   397  TRP397     -0.1227
     39  CA        30.1890  -79.7950  -52.3790 C.3   397  TRP397      0.1737
     40  C         30.8120  -80.7580  -53.3850 C.2   397  TRP397      0.2596
     41  O         31.1250  -80.3670  -54.5110 O.2   397  TRP397     -0.2718
     42  CB        31.1990  -79.4430  -51.2870 C.3   397  TRP397      0.0564
     43  CG        32.2870  -78.4950  -51.6990 C.ar  397  TRP397      0.0003
     44  CD1       33.6230  -78.7500  -51.7450 C.ar  397  TRP397      0.0946
     45  CD2       32.1260  -77.1310  -52.1070 C.ar  397  TRP397      0.0152
     46  NE1       34.3070  -77.6290  -52.1520 N.ar  397  TRP397     -0.2442
     47  CE2       33.4100  -76.6240  -52.3820 C.ar  397  TRP397      0.0810
     48  CE3       31.0190  -76.2900  -52.2680 C.ar  397  TRP397      0.0012
     49  CZ2       33.6200  -75.3220  -52.8040 C.ar  397  TRP397      0.0191
     50  CZ3       31.2300  -74.9920  -52.6910 C.ar  397  TRP397      0.0001
     51  CH2       32.5190  -74.5210  -52.9540 C.ar  397  TRP397      0.0015
     52  N         31.0270  -82.0060  -52.9860 N.am  398  GLY398     -0.1942
     53  CA        31.4340  -83.0300  -53.9270 C.3   398  GLY398      0.2014
     54  C         32.8380  -82.9080  -54.4690 C.2   398  GLY398      0.2639
     55  O         33.1310  -83.4700  -55.5250 O.2   398  GLY398     -0.2714
     56  N         33.7240  -82.2110  -53.7730 N.am  399  HIS399     -0.1959
     57  CA        35.1280  -82.2010  -54.1520 C.3   399  HIS399      0.1787
     58  C         35.6830  -83.6100  -54.0100 C.2   399  HIS399      0.2620
     59  O         35.6230  -84.1950  -52.9250 O.2   399  HIS399     -0.2715
     60  CB        35.8850  -81.2310  -53.2510 C.3   399  HIS399      0.0785
     61  CG        37.2820  -80.9310  -53.6960 C.ar  399  HIS399      0.0821
     62  ND1       38.3180  -81.8270  -53.5520 N.ar  399  HIS399     -0.2267
     63  CD2       37.8310  -79.8030  -54.2060 C.ar  399  HIS399      0.1154
     64  CE1       39.4360  -81.2810  -53.9960 C.ar  399  HIS399      0.1986
     65  NE2       39.1680  -80.0530  -54.4000 N.ar  399  HIS399     -0.2212
     66  N         36.1740  -84.1840  -55.1090 N.am  400  ILE400     -0.1977
     67  CA        36.7720  -85.5150  -55.0510 C.3   400  ILE400      0.1596
     68  C         38.1570  -85.4070  -54.4320 C.2   400  ILE400      0.2287
     69  O         38.8940  -84.4430  -54.6720 O.2   400  ILE400     -0.2864
     70  CB        36.8220  -86.1710  -56.4450 C.3   400  ILE400      0.0276
     71  CG1       37.6890  -85.3740  -57.4220 C.3   400  ILE400      0.0022
     72  CG2       35.4240  -86.3180  -57.0150 C.3   400  ILE400      0.0022
     73  CD1       38.1320  -86.1790  -58.6320 C.3   400  ILE400      0.0001
     74  N         37.4440  -93.8630  -54.6760 N.3   424  GLY424     -0.1210
     75  CA        37.7750  -94.3220  -56.0100 C.3   424  GLY424      0.1956
     76  C         39.2200  -94.0250  -56.3970 C.2   424  GLY424      0.2612
     77  O         39.9200  -93.2400  -55.7550 O.2   424  GLY424     -0.2717
     78  N         39.6610  -94.6770  -57.4800 N.am  425  ASP425     -0.1959
     79  CA        41.0210  -94.4640  -57.9720 C.3   425  ASP425      0.1840
     80  C         41.2600  -93.0010  -58.3130 C.2   425  ASP425      0.2623
     81  O         42.3160  -92.4430  -57.9920 O.2   425  ASP425     -0.2715
     82  CB        41.2870  -95.3310  -59.2010 C.3   425  ASP425      0.1450
     83  CG        40.2980  -95.0720  -60.3220 C.2   425  ASP425      0.3671
     84  OD1       39.0950  -94.9130  -60.0220 O.co2 425  ASP425     -0.2456
     85  OD2       40.7150  -95.0450  -61.4990 O.co2 425  ASP425     -0.2456
     86  N         40.2960  -92.3640  -58.9780 N.am  426  GLY426     -0.1940
     87  CA        40.5020  -90.9980  -59.4160 C.3   426  GLY426      0.2014
     88  C         40.4590  -90.0230  -58.2590 C.2   426  GLY426      0.2639
     89  O         41.3200  -89.1460  -58.1470 O.2   426  GLY426     -0.2714
     90  N         39.4750  -90.1760  -57.3680 N.am  427  SER427     -0.1949
     91  CA        39.4190  -89.3430  -56.1700 C.3   427  SER427      0.1924
     92  C         40.7260  -89.4140  -55.3950 C.2   427  SER427      0.2314
     93  O         41.3240  -88.3860  -55.0590 O.2   427  SER427     -0.2863
     94  CB        38.2520  -89.7790  -55.2760 C.3   427  SER427      0.2116
     95  OG        36.9940  -89.5760  -55.8990 O.3   427  SER427     -0.2180
     96  N         43.8480  -87.0650  -55.9850 N.3   430  LEU430     -0.1245
     97  CA        43.8780  -85.6290  -55.7170 C.3   430  LEU430      0.1561
     98  C         44.5150  -85.2960  -54.3720 C.2   430  LEU430      0.2260
     99  O         45.1670  -84.2530  -54.2400 O.2   430  LEU430     -0.2867
    100  CB        42.4660  -85.0460  -55.7740 C.3   430  LEU430      0.0270
    101  CG        41.9010  -84.7970  -57.1760 C.3   430  LEU430      0.0019
    102  CD1       41.2540  -86.0490  -57.7300 C.3   430  LEU430      0.0001
    103  CD2       40.9300  -83.6310  -57.1800 C.3   430  LEU430      0.0001
    104  N         38.8810  -98.1580  -54.2540 N.3   450  ILE450     -0.1245
    105  CA        38.0660  -98.7800  -55.2930 C.3   450  ILE450      0.1561
    106  C         38.6720  -98.4670  -56.6530 C.2   450  ILE450      0.2260
    107  O         38.2880  -97.4890  -57.3010 O.2   450  ILE450     -0.2867
    108  CB        36.6050  -98.2920  -55.2260 C.3   450  ILE450      0.0252
    109  CG1       36.0480  -98.4180  -53.8010 C.3   450  ILE450      0.0019
    110  CG2       35.7360  -99.0480  -56.2290 C.3   450  ILE450      0.0019
    111  CD1       35.8950  -99.8330  -53.3100 C.3   450  ILE450      0.0001
    112  N         39.2180  -98.6010  -60.4650 N.3   452  ASN452     -0.1240
    113  CA        38.5800  -98.9640  -61.7250 C.3   452  ASN452      0.1653
    114  C         39.1320  -98.1590  -62.9030 C.2   452  ASN452      0.2266
    115  O         38.4730  -98.0690  -63.9480 O.2   452  ASN452     -0.2867
    116  CB        37.0590  -98.7980  -61.6270 C.3   452  ASN452      0.1155
    117  CG        36.6520  -97.4790  -61.0020 C.2   452  ASN452      0.2627
    118  OD1       37.1660  -96.4190  -61.3610 O.2   452  ASN452     -0.2716
    119  ND2       35.7170  -97.5380  -60.0590 N.am  452  ASN452     -0.0877
    120  N         39.5790  -95.0100  -63.8730 N.3   454  GLY454     -0.1210
    121  CA        38.8830  -93.9130  -64.5100 C.3   454  GLY454      0.1956
    122  C         37.8930  -93.2550  -63.5830 C.2   454  GLY454      0.2612
    123  O         37.5470  -93.7680  -62.5190 O.2   454  GLY454     -0.2717
    124  N         37.4460  -92.0770  -64.0170 N.am  455  TYR455     -0.1962
    125  CA        36.3420  -91.3560  -63.3880 C.3   455  TYR455      0.1771
    126  C         35.0370  -92.0370  -63.7960 C.2   455  TYR455      0.2620
    127  O         34.3060  -91.5810  -64.6780 O.2   455  TYR455     -0.2715
    128  CB        36.3650  -89.8890  -63.8040 C.3   455  TYR455      0.0574
    129  CG        37.6340  -89.1400  -63.4460 C.ar  455  TYR455     -0.0198
    130  CD1       38.3590  -89.4510  -62.2990 C.ar  455  TYR455     -0.0009
    131  CD2       38.1030  -88.1130  -64.2550 C.ar  455  TYR455     -0.0009
    132  CE1       39.5090  -88.7630  -61.9750 C.ar  455  TYR455      0.0417
    133  CE2       39.2550  -87.4250  -63.9390 C.ar  455  TYR455      0.0417
    134  CZ        39.9510  -87.7530  -62.7980 C.ar  455  TYR455      0.1957
    135  OH        41.0990  -87.0760  -62.4750 O.3   455  TYR455     -0.2866
    136  N         34.7370  -93.1540  -63.1250 N.am  456  THR456     -0.1937
    137  CA        33.6330  -94.0060  -63.5620 C.3   456  THR456      0.2028
    138  C         32.2970  -93.2780  -63.4770 C.2   456  THR456      0.2642
    139  O         31.4640  -93.3890  -64.3840 O.2   456  THR456     -0.2714
    140  CB        33.5880  -95.2850  -62.7220 C.3   456  THR456      0.1808
    141  OG1       34.8620  -95.9360  -62.7750 O.3   456  THR456     -0.2208
    142  CG2       32.5170  -96.2450  -63.2420 C.3   456  THR456      0.0379
    143  N         32.0710  -92.5300  -62.3980 N.am  457  ILE457     -0.1963
    144  CA        30.8370  -91.7610  -62.2910 C.3   457  ILE457      0.1727
    145  C         30.7130  -90.7870  -63.4570 C.2   457  ILE457      0.2616
    146  O         29.6370  -90.6400  -64.0510 O.2   457  ILE457     -0.2715
    147  CB        30.7730  -91.0460  -60.9300 C.3   457  ILE457      0.0290
    148  CG1       29.5160  -90.1840  -60.8420 C.3   457  ILE457      0.0022
    149  CG2       32.0090  -90.1880  -60.7110 C.3   457  ILE457      0.0023
    150  CD1       29.0640  -89.9080  -59.4280 C.3   457  ILE457      0.0001
    151  N         31.8160  -90.1270  -63.8260 N.am  458  GLU458     -0.1977
    152  CA        31.7700  -89.1670  -64.9260 C.3   458  GLU458      0.1602
    153  C         31.5840  -89.8550  -66.2720 C.2   458  GLU458      0.2287
    154  O         31.0730  -89.2370  -67.2140 O.2   458  GLU458     -0.2864
    155  CB        33.0430  -88.3210  -64.9380 C.3   458  GLU458      0.0415
    156  CG        33.1680  -87.3700  -63.7560 C.3   458  GLU458      0.1163
    157  CD        32.2400  -86.1640  -63.8680 C.2   458  GLU458      0.3649
    158  OE1       31.6540  -85.7480  -62.8440 O.co2 458  GLU458     -0.2457
    159  OE2       32.0970  -85.6280  -64.9870 O.co2 458  GLU458     -0.2457
@<TRIPOS>BOND
     1   154   153    2
     2   153   152    1
     3   159   157   ar
     4   155   152    1
     5   155   156    1
     6   152   151    1
     7   127   126    2
     8   121   120    1
     9   121   122    1
    10   139   138    2
    11   131   133   ar
    12   131   129   ar
    13   146   145    2
    14   124   122   am
    15   124   125    1
    16   115   114    2
    17   133   134   ar
    18   157   156    1
    19   157   158   ar
    20   151   145   am
    21   128   129    1
    22   128   125    1
    23   126   125    1
    24   126   136   am
    25   122   123    2
    26   137   138    1
    27   137   136    1
    28   137   140    1
    29   138   143   am
    30   145   144    1
    31   129   130   ar
    32   142   140    1
    33   114   113    1
    34   134   135    1
    35   134   132   ar
    36   141   140    1
    37   143   144    1
    38   130   132   ar
    39   144   147    1
    40   113   116    1
    41   113   112    1
    42   116   117    1
    43    85    83   ar
    44   118   117    2
    45   117   119   am
    46   147   148    1
    47   147   149    1
    48   148   150    1
    49    12    11    1
    50    83    84   ar
    51    83    82    1
    52     9    11   ar
    53     9     7   ar
    54    11    10   ar
    55    87    86    1
    56    87    88    1
    57     7     6   ar
    58    82    79    1
    59    30    29   ar
    60    86    80   am
    61    73    71    1
    62    28    29    1
    63    28    25    1
    64    10     8   ar
    65    80    81    2
    66    80    79    1
    67    29    31   ar
    68    88    89    2
    69    88    90   am
    70    79    78    1
    71     6     8   ar
    72     6     5    1
    73     1     2    1
    74   102   101    1
    75    24    25    1
    76    24    22   am
    77     2     5    1
    78     2     3    1
    79    25    26    1
    80    78    76   am
    81    71    70    1
    82    90    91    1
    83   107   106    2
    84   103   101    1
    85   101   100    1
    86    21    22    1
    87    21    20    1
    88    22    23    2
    89     4     3    2
    90    72    70    1
    91   106   105    1
    92    70    67    1
    93    76    75    1
    94    76    77    2
    95   110   108    1
    96    91    92    1
    97    91    94    1
    98    26    27    2
    99    26    32   am
   100    20    15   am
   101    75    74    1
   102    96    97    1
   103    95    94    1
   104    19    17    1
   105   100    97    1
   106    97    98    1
   107    55    54    2
   108    16    15    2
   109    92    93    2
   110    15    14    1
   111    32    33    1
   112   105   108    1
   113   105   104    1
   114   108   109    1
   115    66    67    1
   116    66    58   am
   117    67    68    1
   118    69    68    2
   119    17    14    1
   120    17    18    1
   121    41    40    2
   122    54    53    1
   123    54    56   am
   124    65    63   ar
   125    65    64   ar
   126    98    99    2
   127    14    13    1
   128    63    61   ar
   129    37    36    1
   130    57    58    1
   131    57    56    1
   132    57    60    1
   133    58    59    2
   134    64    62   ar
   135    53    52    1
   136    33    36    1
   137    33    34    1
   138   109   111    1
   139    61    62   ar
   140    61    60    1
   141    40    52   am
   142    40    39    1
   143    34    35    2
   144    51    49   ar
   145    51    50   ar
   146    49    47   ar
   147    50    48   ar
   148    47    46   ar
   149    47    45   ar
   150    39    38    1
   151    39    42    1
   152    48    45   ar
   153    46    44   ar
   154    45    43   ar
   155    44    43   ar
   156    43    42    1
