@<TRIPOS>MOLECULE
tmp/5nq5A00.pdb
 161 154 0 0 0
SMALL
GASTEIGER

@<TRIPOS>ATOM
      1  N        -19.7810   24.5490   -7.0840 N.3    36  PHE36      -0.1228
      2  CA       -19.8450   25.4360   -8.2410 C.3    36  PHE36       0.1721
      3  C        -20.1910   26.8540   -7.7980 C.2    36  PHE36       0.2437
      4  O        -20.9780   27.0410   -6.8700 O.2    36  PHE36      -0.2733
      5  CB       -20.8750   24.9380   -9.2580 C.3    36  PHE36       0.0547
      6  CG       -20.4770   23.6700   -9.9580 C.ar   36  PHE36      -0.0202
      7  CD1      -19.6020   23.7020  -11.0310 C.ar   36  PHE36      -0.0042
      8  CD2      -20.9880   22.4490   -9.5520 C.ar   36  PHE36      -0.0042
      9  CE1      -19.2360   22.5380  -11.6810 C.ar   36  PHE36      -0.0003
     10  CE2      -20.6270   21.2820  -10.1980 C.ar   36  PHE36      -0.0003
     11  CZ       -19.7500   21.3260  -11.2640 C.ar   36  PHE36      -0.0000
     12  N        -19.6050   27.8600   -8.4640 N.am   37  PRO37      -0.2729
     13  CA       -18.6390   27.6890   -9.5570 C.3    37  PRO37       0.1401
     14  C        -17.2980   27.1300   -9.0840 C.2    37  PRO37       0.2269
     15  O        -16.9720   27.2260   -7.9000 O.2    37  PRO37      -0.2865
     16  CB       -18.4680   29.1140  -10.1010 C.3    37  PRO37       0.0296
     17  CG       -19.6660   29.8650   -9.6140 C.3    37  PRO37       0.0237
     18  CD       -19.9780   29.2710   -8.2810 C.3    37  PRO37       0.0939
     19  N        -14.1960   28.0200   -8.9430 N.3    39  TYR39      -0.1241
     20  CA       -13.1700   29.0530   -8.9260 C.3    39  TYR39       0.1605
     21  C        -11.7960   28.4220   -8.7440 C.2    39  TYR39       0.2264
     22  O        -11.6300   27.4610   -7.9880 O.2    39  TYR39      -0.2867
     23  CB       -13.4330   30.0590   -7.8040 C.3    39  TYR39       0.0534
     24  CG       -14.7940   30.7150   -7.8470 C.ar   39  TYR39      -0.0201
     25  CD1      -15.1280   31.6040   -8.8620 C.ar   39  TYR39      -0.0009
     26  CD2      -15.7380   30.4630   -6.8600 C.ar   39  TYR39      -0.0009
     27  CE1      -16.3700   32.2110   -8.9000 C.ar   39  TYR39       0.0417
     28  CE2      -16.9820   31.0670   -6.8880 C.ar   39  TYR39       0.0417
     29  CZ       -17.2930   31.9390   -7.9090 C.ar   39  TYR39       0.1957
     30  OH       -18.5300   32.5420   -7.9390 O.3    39  TYR39      -0.2866
     31  N        -16.2510   34.8910  -14.7500 N.3    48  ALA48      -0.1231
     32  CA       -17.5230   35.3920  -14.2390 C.3    48  ALA48       0.1694
     33  C        -17.3160   36.2250  -12.9800 C.2    48  ALA48       0.2591
     34  O        -17.7780   37.3690  -12.8930 O.2    48  ALA48      -0.2718
     35  CB       -18.4740   34.2270  -13.9670 C.3    48  ALA48       0.0304
     36  N        -16.6170   35.6650  -11.9900 N.am   49  ALA49      -0.1980
     37  CA       -16.3530   36.4060  -10.7610 C.3    49  ALA49       0.1597
     38  C        -15.6290   37.7150  -11.0500 C.2    49  ALA49       0.2287
     39  O        -15.9560   38.7560  -10.4690 O.2    49  ALA49      -0.2864
     40  CB       -15.5420   35.5450   -9.7940 C.3    49  ALA49       0.0319
     41  N        -17.8780   40.2610  -12.4810 N.3    52  LEU52      -0.1245
     42  CA       -18.6970   40.8250  -11.4130 C.3    52  LEU52       0.1561
     43  C        -18.0250   42.0370  -10.7810 C.2    52  LEU52       0.2260
     44  O        -18.6980   43.0010  -10.4000 O.2    52  LEU52      -0.2867
     45  CB       -18.9820   39.7580  -10.3560 C.3    52  LEU52       0.0270
     46  CG       -19.5520   40.2320   -9.0180 C.3    52  LEU52       0.0019
     47  CD1      -20.8750   40.9540   -9.2160 C.3    52  LEU52       0.0001
     48  CD2      -19.7130   39.0580   -8.0630 C.3    52  LEU52       0.0001
     49  N        -20.4780   41.7410  -17.7300 N.3    60  ALA60      -0.1245
     50  CA       -21.4050   41.5490  -16.6220 C.3    60  ALA60       0.1562
     51  C        -22.7840   42.1390  -16.8880 C.2    60  ALA60       0.2260
     52  O        -23.7410   41.7750  -16.1970 O.2    60  ALA60      -0.2867
     53  CB       -20.8270   42.1560  -15.3410 C.3    60  ALA60       0.0290
     54  N        -27.0610   39.1750  -18.3570 N.3    63  VAL63      -0.1245
     55  CA       -27.3730   38.0610  -17.4660 C.3    63  VAL63       0.1561
     56  C        -27.1040   36.7350  -18.1660 C.2    63  VAL63       0.2260
     57  O        -26.4540   35.8400  -17.6130 O.2    63  VAL63      -0.2867
     58  CB       -28.8300   38.1540  -16.9780 C.3    63  VAL63       0.0252
     59  CG1      -29.1660   36.9670  -16.0870 C.3    63  VAL63       0.0019
     60  CG2      -29.0630   39.4650  -16.2460 C.3    63  VAL63       0.0019
     61  N        -23.3640   35.8740  -18.2820 N.3    66  MET66      -0.1230
     62  CA       -22.8620   35.2830  -17.0460 C.3    66  MET66       0.1702
     63  C        -23.3850   33.8630  -16.8690 C.2    66  MET66       0.2592
     64  O        -22.6270   32.9450  -16.5330 O.2    66  MET66      -0.2718
     65  CB       -23.2520   36.1560  -15.8540 C.3    66  MET66       0.0401
     66  CG       -22.7460   37.5870  -15.9430 C.3    66  MET66       0.0596
     67  SD       -20.9500   37.6980  -15.8320 S.3    66  MET66      -0.1393
     68  CE       -20.6800   37.1170  -14.1600 C.3    66  MET66       0.0692
     69  N        -24.6860   33.6630  -17.0890 N.am   67  ALA67      -0.1980
     70  CA       -25.2500   32.3200  -17.0050 C.3    67  ALA67       0.1597
     71  C        -24.5270   31.3600  -17.9410 C.2    67  ALA67       0.2287
     72  O        -24.2780   30.2010  -17.5870 O.2    67  ALA67      -0.2864
     73  CB       -26.7440   32.3580  -17.3260 C.3    67  ALA67       0.0319
     74  N        -21.2750   30.2850  -16.2960 N.3    70  PHE70      -0.1241
     75  CA       -21.5440   29.2570  -15.2960 C.3    70  PHE70       0.1605
     76  C        -21.8680   27.9220  -15.9530 C.2    70  PHE70       0.2264
     77  O        -21.3760   26.8720  -15.5200 O.2    70  PHE70      -0.2867
     78  CB       -22.6900   29.7010  -14.3860 C.3    70  PHE70       0.0534
     79  CG       -22.3650   30.9030  -13.5460 C.ar   70  PHE70      -0.0203
     80  CD1      -21.1320   31.0180  -12.9240 C.ar   70  PHE70      -0.0042
     81  CD2      -23.2900   31.9220  -13.3830 C.ar   70  PHE70      -0.0042
     82  CE1      -20.8280   32.1240  -12.1500 C.ar   70  PHE70      -0.0003
     83  CE2      -22.9930   33.0310  -12.6110 C.ar   70  PHE70      -0.0003
     84  CZ       -21.7600   33.1320  -11.9930 C.ar   70  PHE70      -0.0000
     85  N        -19.7470   24.0360  -15.5620 N.3    74  ARG74      -0.1245
     86  CA       -20.2040   22.6670  -15.3450 C.3    74  ARG74       0.1563
     87  C        -19.9880   21.7980  -16.5770 C.2    74  ARG74       0.2260
     88  O        -19.7460   20.5920  -16.4510 O.2    74  ARG74      -0.2867
     89  CB       -21.6790   22.6690  -14.9420 C.3    74  ARG74       0.0307
     90  CG       -21.9270   23.2140  -13.5440 C.3    74  ARG74       0.0489
     91  CD       -23.4080   23.2410  -13.2030 C.3    74  ARG74       0.2205
     92  NE       -24.1160   24.3120  -13.8990 N.pl3  74  ARG74      -0.0865
     93  CZ       -24.1980   25.5630  -13.4570 C.cat  74  ARG74       0.5346
     94  NH1      -23.6100   25.9060  -12.3190 N.pl3  74  ARG74       0.1354
     95  NH2      -24.8660   26.4730  -14.1540 N.pl3  74  ARG74       0.1354
     96  N        -24.3080   23.7020   -4.9130 N.3    95  ARG95      -0.1231
     97  CA       -24.8390   24.5070   -6.0130 C.3    95  ARG95       0.1694
     98  C        -24.7310   23.7500   -7.3300 C.2    95  ARG95       0.2592
     99  O        -23.7300   23.0720   -7.5800 O.2    95  ARG95      -0.2718
    100  CB       -24.1210   25.8550   -6.1150 C.3    95  ARG95       0.0321
    101  CG       -24.4420   26.8170   -4.9880 C.3    95  ARG95       0.0489
    102  CD       -24.1600   28.2510   -5.3930 C.3    95  ARG95       0.2205
    103  NE       -24.6150   29.1910   -4.3760 N.pl3  95  ARG95      -0.0865
    104  CZ       -25.8930   29.4570   -4.1290 C.cat  95  ARG95       0.5346
    105  NH1      -26.8450   28.8430   -4.8200 N.pl3  95  ARG95       0.1354
    106  NH2      -26.2200   30.3300   -3.1870 N.pl3  95  ARG95       0.1354
    107  N        -25.7540   23.8550   -8.1710 N.am   96  TYR96      -0.1976
    108  CA       -25.7690   23.1330   -9.4350 C.3    96  TYR96       0.1639
    109  C        -26.6200   23.9150  -10.4360 C.2    96  TYR96       0.2290
    110  O        -26.8470   25.1180  -10.2700 O.2    96  TYR96      -0.2864
    111  CB       -26.2520   21.6900   -9.2070 C.3    96  TYR96       0.0560
    112  CG       -25.8820   20.7410  -10.3260 C.ar   96  TYR96      -0.0198
    113  CD1      -24.6010   20.7430  -10.8660 C.ar   96  TYR96      -0.0009
    114  CD2      -26.8070   19.8430  -10.8390 C.ar   96  TYR96      -0.0009
    115  CE1      -24.2530   19.8820  -11.8890 C.ar   96  TYR96       0.0417
    116  CE2      -26.4690   18.9750  -11.8620 C.ar   96  TYR96       0.0417
    117  CZ       -25.1890   18.9990  -12.3830 C.ar   96  TYR96       0.1957
    118  OH       -24.8360   18.1430  -13.4010 O.3    96  TYR96      -0.2866
    119  N        -29.1710   26.4940   -9.4430 N.3    99  SER99      -0.1202
    120  CA       -28.7130   27.8240   -9.0530 C.3    99  SER99       0.2020
    121  C        -28.7440   28.7830  -10.2340 C.2    99  SER99       0.2618
    122  O        -29.1870   29.9300  -10.1020 O.2    99  SER99      -0.2717
    123  CB       -27.3030   27.7470   -8.4650 C.3    99  SER99       0.2103
    124  OG       -27.2820   26.9730   -7.2780 O.3    99  SER99      -0.2182
    125  N        -28.2900   28.3260  -11.4030 N.am  100  ASN100     -0.1974
    126  CA       -28.2490   29.1970  -12.5710 C.3   100  ASN100      0.1688
    127  C        -29.6490   29.6420  -12.9750 C.2   100  ASN100      0.2292
    128  O        -29.8420   30.7800  -13.4210 O.2   100  ASN100     -0.2864
    129  CB       -27.5560   28.4840  -13.7320 C.3   100  ASN100      0.1181
    130  CG       -26.8090   29.4400  -14.6400 C.2   100  ASN100      0.2629
    131  OD1      -26.4980   30.5670  -14.2530 O.2   100  ASN100     -0.2716
    132  ND2      -26.5090   28.9920  -15.8540 N.am  100  ASN100     -0.0877
    133  N        -31.2020   32.1530   -9.8810 N.3   103  TYR103     -0.1227
    134  CA       -30.6260   33.4920   -9.8040 C.3   103  TYR103      0.1736
    135  C        -30.8020   34.2540  -11.1120 C.2   103  TYR103      0.2596
    136  O        -31.0380   35.4670  -11.1000 O.2   103  TYR103     -0.2718
    137  CB       -29.1490   33.4060   -9.4210 C.3   103  TYR103      0.0548
    138  CG       -28.9170   33.2490   -7.9360 C.ar  103  TYR103     -0.0200
    139  CD1      -28.6890   34.3570   -7.1300 C.ar  103  TYR103     -0.0009
    140  CD2      -28.9340   31.9970   -7.3370 C.ar  103  TYR103     -0.0009
    141  CE1      -28.4780   34.2200   -5.7710 C.ar  103  TYR103      0.0417
    142  CE2      -28.7260   31.8500   -5.9780 C.ar  103  TYR103      0.0417
    143  CZ       -28.4970   32.9650   -5.2000 C.ar  103  TYR103      0.1957
    144  OH       -28.2880   32.8270   -3.8470 O.3   103  TYR103     -0.2866
    145  N        -30.6910   33.5640  -12.2490 N.am  104  SER104     -0.1952
    146  CA       -30.8970   34.2250  -13.5350 C.3   104  SER104      0.1924
    147  C        -32.3150   34.7700  -13.6470 C.2   104  SER104      0.2314
    148  O        -32.5220   35.9200  -14.0520 O.2   104  SER104     -0.2863
    149  CB       -30.5960   33.2550  -14.6770 C.3   104  SER104      0.2116
    150  OG       -29.2320   32.8720  -14.6720 O.3   104  SER104     -0.2180
    151  N        -32.7010   37.8400  -11.3120 N.3   107  ARG107     -0.1245
    152  CA       -32.1080   39.0670  -11.8350 C.3   107  ARG107      0.1563
    153  C        -32.9890   39.6880  -12.9110 C.2   107  ARG107      0.2260
    154  O        -33.1810   40.9090  -12.9390 O.2   107  ARG107     -0.2867
    155  CB       -30.7090   38.7850  -12.3820 C.3   107  ARG107      0.0307
    156  CG       -29.7620   38.1480  -11.3760 C.3   107  ARG107      0.0489
    157  CD       -28.3570   38.0210  -11.9450 C.3   107  ARG107      0.2205
    158  NE       -27.5060   37.1670  -11.1200 N.pl3 107  ARG107     -0.0865
    159  CZ       -26.7700   37.6010  -10.1020 C.cat 107  ARG107      0.5346
    160  NH1      -26.7770   38.8870   -9.7750 N.pl3 107  ARG107      0.1354
    161  NH2      -26.0260   36.7490   -9.4090 N.pl3 107  ARG107      0.1354
@<TRIPOS>BOND
     1    54    55    1
     2    61    62    1
     3    56    57    2
     4    56    55    1
     5    71    72    2
     6    71    70    1
     7    49    50    1
     8    55    58    1
     9    73    70    1
    10    69    70    1
    11    69    63   am
    12    62    63    1
    13    62    65    1
    14    58    60    1
    15    58    59    1
    16    51    50    1
    17    51    52    2
    18    63    64    2
    19    50    53    1
    20    87    88    2
    21    87    86    1
    22    74    75    1
    23    76    77    2
    24    76    75    1
    25    66    65    1
    26    66    67    1
    27   132   130   am
    28    67    68    1
    29    85    86    1
    30    86    89    1
    31    75    78    1
    32    89    90    1
    33    31    32    1
    34   149   150    1
    35   149   146    1
    36   130   131    2
    37   130   129    1
    38    78    79    1
    39    32    35    1
    40    32    33    1
    41    95    93    1
    42   148   147    2
    43    92    93    2
    44    92    91    1
    45   129   126    1
    46   147   146    1
    47    79    81   ar
    48    79    80   ar
    49    90    91    1
    50   146   145    1
    51    93    94    1
    52   128   127    2
    53   118   117    1
    54    81    83   ar
    55    33    34    2
    56    33    36   am
    57   127   126    1
    58   154   153    2
    59    80    82   ar
    60   153   152    1
    61    83    84   ar
    62   126   125    1
    63    41    42    1
    64   117   115   ar
    65   117   116   ar
    66   155   152    1
    67   155   156    1
    68   145   135   am
    69    82    84   ar
    70    36    37    1
    71   157   156    1
    72   157   158    1
    73   115   113   ar
    74   116   114   ar
    75   152   151    1
    76     9    11   ar
    77     9     7   ar
    78    42    43    1
    79    42    45    1
    80   125   121   am
    81    11    10   ar
    82   158   159    2
    83   135   136    2
    84   135   134    1
    85    38    37    1
    86    38    39    2
    87     7     6   ar
    88   113   112   ar
    89   114   112   ar
    90    43    44    2
    91    37    40    1
    92   109   110    2
    93   109   108    1
    94    45    46    1
    95   112   111    1
    96   121   122    2
    97   121   120    1
    98    10     8   ar
    99   159   160    1
   100   159   161    1
   101    16    17    1
   102    16    13    1
   103     6     8   ar
   104     6     5    1
   105   133   134    1
   106   134   137    1
   107    17    18    1
   108    13    14    1
   109    13    12    1
   110   119   120    1
   111   108   111    1
   112   108   107    1
   113   137   138    1
   114     5     2    1
   115    47    46    1
   116    14    15    2
   117   120   123    1
   118    46    48    1
   119    19    20    1
   120    20    21    1
   121    20    23    1
   122    27    25   ar
   123    27    29   ar
   124    25    24   ar
   125    21    22    2
   126   123   124    1
   127    12    18    1
   128    12     3   am
   129     2     3    1
   130     2     1    1
   131   107    98   am
   132    30    29    1
   133   138   140   ar
   134   138   139   ar
   135    29    28   ar
   136    24    23    1
   137    24    26   ar
   138     3     4    2
   139    99    98    2
   140   140   142   ar
   141    98    97    1
   142   139   141   ar
   143    28    26   ar
   144   100    97    1
   145   100   101    1
   146    97    96    1
   147   142   143   ar
   148   141   143   ar
   149   102   101    1
   150   102   103    1
   151   143   144    1
   152   105   104    1
   153   103   104    2
   154   104   106    1
