@<TRIPOS>MOLECULE
tmp/5nq9B04.pdb
 89 87 0 0 0
SMALL
GASTEIGER

@<TRIPOS>ATOM
      1  N        -10.3780   -3.4760   16.1610 N.3    80  ALA80      -0.1231
      2  CA       -10.2890   -2.1530   15.5840 C.3    80  ALA80       0.1694
      3  C         -9.5400   -2.1970   14.2590 C.2    80  ALA80       0.2592
      4  O         -8.4880   -2.8320   14.1670 O.2    80  ALA80      -0.2718
      5  CB        -9.5940   -1.2030   16.5530 C.3    80  ALA80       0.0304
      6  N        -10.0990   -1.5100   13.2550 N.am   81  PHE81      -0.1976
      7  CA        -9.5640   -1.4510   11.9160 C.3    81  PHE81       0.1639
      8  C         -9.4710   -2.8280   11.2470 C.2    81  PHE81       0.2290
      9  O         -8.8630   -3.0000   10.2170 O.2    81  PHE81      -0.2864
     10  CB        -8.2460   -0.7370   11.9350 C.3    81  PHE81       0.0560
     11  CG        -8.2420    0.4880   12.8050 C.ar   81  PHE81      -0.0200
     12  CD1       -8.7810    1.7160   12.3320 C.ar   81  PHE81      -0.0042
     13  CD2       -7.6950    0.4540   14.0910 C.ar   81  PHE81      -0.0042
     14  CE1       -8.7750    2.8740   13.1260 C.ar   81  PHE81      -0.0003
     15  CE2       -7.7100    1.6120   14.8890 C.ar   81  PHE81      -0.0003
     16  CZ        -8.2470    2.8230   14.4090 C.ar   81  PHE81      -0.0000
     17  N        -11.0640   -4.3260   22.2500 N.3   111  HIS111     -0.1226
     18  CA       -10.1590   -4.8570   21.2530 C.3   111  HIS111      0.1752
     19  C         -9.5880   -3.7380   20.4600 C.2   111  HIS111      0.2596
     20  O         -9.4640   -3.8560   19.2550 O.2   111  HIS111     -0.2718
     21  CB       -10.8660   -5.8450   20.3360 C.3   111  HIS111      0.0759
     22  CG        -9.9790   -6.9230   19.8030 C.ar  111  HIS111      0.0818
     23  ND1       -8.9620   -6.6740   18.9120 N.ar  111  HIS111     -0.2268
     24  CD2      -10.0070   -8.2640   19.9850 C.ar  111  HIS111      0.1154
     25  CE1       -8.3660   -7.8170   18.6150 C.ar  111  HIS111      0.1986
     26  NE2       -9.0150   -8.8050   19.2060 N.ar  111  HIS111     -0.2212
     27  N         -9.2030   -2.6720   21.1610 N.am  112  LEU112     -0.1966
     28  CA        -8.4470   -1.5870   20.5940 C.3   112  LEU112      0.1728
     29  C         -7.2420   -1.4040   21.4480 C.2   112  LEU112      0.2616
     30  O         -7.3330   -1.1040   22.6300 O.2   112  LEU112     -0.2715
     31  CB        -9.2330   -0.3090   20.6330 C.3   112  LEU112      0.0311
     32  CG        -8.5260    1.0570   20.5000 C.3   112  LEU112      0.0022
     33  CD1       -8.1840    1.3940   19.0560 C.3   112  LEU112      0.0001
     34  CD2       -9.5050    2.0720   21.0790 C.3   112  LEU112      0.0001
     35  N         -6.0980   -1.5330   20.8090 N.am  113  SER113     -0.1950
     36  CA        -4.8560   -1.4380   21.4700 C.3   113  SER113      0.1924
     37  C         -4.8820   -2.3140   22.6980 C.2   113  SER113      0.2314
     38  O         -5.3000   -3.4980   22.5970 O.2   113  SER113     -0.2863
     39  CB        -4.5620    0.0200   21.7360 C.3   113  SER113      0.2116
     40  OG        -3.2250    0.1720   22.1460 O.3   113  SER113     -0.2180
     41  N          1.9010   -6.5320   11.7450 N.3   344  PHE344     -0.1241
     42  CA         0.5930   -5.9590   11.4910 C.3   344  PHE344      0.1605
     43  C          0.5260   -4.5230   11.9730 C.2   344  PHE344      0.2264
     44  O          0.7710   -4.2570   13.1630 O.2   344  PHE344     -0.2867
     45  CB        -0.5090   -6.7520   12.1750 C.3   344  PHE344      0.0534
     46  CG        -1.8920   -6.2540   11.8590 C.ar  344  PHE344     -0.0203
     47  CD1       -2.5890   -6.7390   10.7690 C.ar  344  PHE344     -0.0042
     48  CD2       -2.4930   -5.2980   12.6550 C.ar  344  PHE344     -0.0042
     49  CE1       -3.8700   -6.2780   10.4800 C.ar  344  PHE344     -0.0003
     50  CE2       -3.7670   -4.8360   12.3850 C.ar  344  PHE344     -0.0003
     51  CZ        -4.4600   -5.3260   11.2930 C.ar  344  PHE344     -0.0000
     52  N         -2.4500   -1.5030   11.8490 N.3   346  PRO346     -0.2116
     53  CA        -3.8570   -1.4560   11.4720 C.3   346  PRO346      0.1372
     54  C         -4.0680   -0.5600   10.2650 C.2   346  PRO346      0.2244
     55  O         -3.4310    0.4380   10.1540 O.2   346  PRO346     -0.2868
     56  CB        -4.5360   -0.8430   12.7050 C.3   346  PRO346      0.0268
     57  CG        -3.4250   -0.4990   13.6560 C.3   346  PRO346      0.0207
     58  CD        -2.1480   -0.5390   12.9060 C.3   346  PRO346      0.0892
     59  N         -9.5580  -11.9230   12.6500 N.3   448  PHE448     -0.1241
     60  CA        -8.2410  -11.6010   13.1900 C.3   448  PHE448      0.1605
     61  C         -7.6800  -12.8780   13.7110 C.2   448  PHE448      0.2264
     62  O         -8.4000  -13.6290   14.3610 O.2   448  PHE448     -0.2867
     63  CB        -8.3170  -10.6120   14.3830 C.3   448  PHE448      0.0534
     64  CG        -7.3290   -9.4500   14.3300 C.ar  448  PHE448     -0.0203
     65  CD1       -6.3350   -9.3250   13.3590 C.ar  448  PHE448     -0.0042
     66  CD2       -7.4250   -8.4620   15.2840 C.ar  448  PHE448     -0.0042
     67  CE1       -5.4840   -8.2310   13.3450 C.ar  448  PHE448     -0.0003
     68  CE2       -6.5670   -7.3690   15.2930 C.ar  448  PHE448     -0.0003
     69  CZ        -5.5920   -7.2500   14.3160 C.ar  448  PHE448     -0.0000
     70  N          0.2240   -8.3950   20.4720 N.3   457  LEU457     -0.1231
     71  CA        -0.7600   -7.9500   19.4590 C.3   457  LEU457      0.1693
     72  C         -0.4730   -6.4840   19.1580 C.2   457  LEU457      0.2592
     73  O         -0.3170   -6.1270   17.9820 O.2   457  LEU457     -0.2718
     74  CB        -2.2330   -8.1830   19.8980 C.3   457  LEU457      0.0284
     75  CG        -3.4360   -7.6380   19.0780 C.3   457  LEU457      0.0019
     76  CD1       -3.8400   -6.2120   19.4600 C.3   457  LEU457      0.0001
     77  CD2       -3.1810   -7.7430   17.5640 C.3   457  LEU457      0.0001
     78  N         -0.3430   -5.6620   20.2020 N.am  458  ASP458     -0.1974
     79  CA        -0.1360   -4.2240   20.0030 C.3   458  ASP458      0.1709
     80  C          1.1320   -3.9510   19.2050 C.2   458  ASP458      0.2293
     81  O          1.2010   -2.9550   18.4900 O.2   458  ASP458     -0.2864
     82  CB        -0.0690   -3.4670   21.3310 C.3   458  ASP458      0.1436
     83  CG        -0.2830   -1.9680   21.1590 C.2   458  ASP458      0.3671
     84  OD1       -1.3420   -1.5570   20.6420 O.co2 458  ASP458     -0.2456
     85  OD2        0.5930   -1.2010   21.5590 O.co2 458  ASP458     -0.2456
     86  N          2.1270   -5.7600   16.6950 N.3   460  GLY460     -0.1225
     87  CA         1.9490   -6.3180   15.3690 C.3   460  GLY460      0.1811
     88  C          2.2170   -7.8090   15.2640 C.2   460  GLY460      0.2280
     89  O          2.8330   -8.2240   14.3010 O.2   460  GLY460     -0.2866
@<TRIPOS>BOND
     1    55    54    2
     2     9     8    2
     3    54    53    1
     4    49    47   ar
     5    49    51   ar
     6    47    46   ar
     7     8     7    1
     8    51    50   ar
     9    53    52    1
    10    53    56    1
    11    42    41    1
    12    42    43    1
    13    42    45    1
    14    52    58    1
    15    46    45    1
    16    46    48   ar
    17     7    10    1
    18     7     6    1
    19    10    11    1
    20    43    44    2
    21    12    11   ar
    22    12    14   ar
    23    50    48   ar
    24    59    60    1
    25    56    57    1
    26    11    13   ar
    27    58    57    1
    28    14    16   ar
    29    60    61    1
    30    60    63    1
    31     6     3   am
    32    67    65   ar
    33    67    69   ar
    34    65    64   ar
    35    61    62    2
    36    13    15   ar
    37     4     3    2
    38     3     2    1
    39    89    88    2
    40    69    68   ar
    41    64    63    1
    42    64    66   ar
    43    16    15   ar
    44    88    87    1
    45    66    68   ar
    46    87    86    1
    47     2     1    1
    48     2     5    1
    49    77    75    1
    50    73    72    2
    51    81    80    2
    52    25    23   ar
    53    25    26   ar
    54    23    22   ar
    55    33    32    1
    56    75    76    1
    57    75    74    1
    58    72    71    1
    59    72    78   am
    60    80    79    1
    61    26    24   ar
    62    20    19    2
    63    71    74    1
    64    71    70    1
    65    22    24   ar
    66    22    21    1
    67    79    78    1
    68    79    82    1
    69    21    18    1
    70    19    27   am
    71    19    18    1
    72    32    31    1
    73    32    34    1
    74    28    31    1
    75    28    27    1
    76    28    29    1
    77    84    83   ar
    78    35    29   am
    79    35    36    1
    80    83    82    1
    81    83    85   ar
    82    18    17    1
    83    29    30    2
    84    36    39    1
    85    36    37    1
    86    39    40    1
    87    38    37    2
