@<TRIPOS>MOLECULE
tmp/5nqcA00.pdb
 104 96 0 0 0
SMALL
GASTEIGER

@<TRIPOS>ATOM
      1  N         21.6970    7.9940   18.3960 N.3    42  LEU42      -0.1231
      2  CA        20.4690    7.2520   18.7020 C.3    42  LEU42       0.1693
      3  C         20.7710    5.7900   19.0250 C.2    42  LEU42       0.2593
      4  O         19.9970    5.1270   19.7200 O.2    42  LEU42      -0.2718
      5  CB        19.4590    7.3380   17.5450 C.3    42  LEU42       0.0284
      6  CG        18.9410    8.7210   17.1580 C.3    42  LEU42       0.0019
      7  CD1       18.1880    8.6780   15.8280 C.3    42  LEU42       0.0001
      8  CD2       18.0460    9.3090   18.2450 C.3    42  LEU42       0.0001
      9  N         21.9010    5.2940   18.5260 N.am   43  GLY43      -0.1942
     10  CA        22.2910    3.9150   18.7540 C.3    43  GLY43       0.2014
     11  C         23.5630    3.5240   18.0280 C.2    43  GLY43       0.2638
     12  O         24.0770    4.2740   17.1900 O.2    43  GLY43      -0.2714
     13  N         24.0730    2.3390   18.3500 N.am   44  ARG44      -0.1977
     14  CA        25.3250    1.8590   17.7790 C.3    44  ARG44       0.1597
     15  C         25.2880    0.3380   17.6660 C.2    44  ARG44       0.2287
     16  O         24.7430   -0.3350   18.5420 O.2    44  ARG44      -0.2864
     17  CB        26.4930    2.3000   18.6640 C.3    44  ARG44       0.0334
     18  CG        26.1300    2.3280   20.1520 C.3    44  ARG44       0.0492
     19  CD        27.2290    2.9220   21.0270 C.3    44  ARG44       0.2205
     20  NE        26.8300    2.9650   22.4360 N.pl3  44  ARG44      -0.0865
     21  CZ        26.2440    4.0110   23.0180 C.cat  44  ARG44       0.5346
     22  NH1       26.0000    5.1130   22.3150 N.pl3  44  ARG44       0.1354
     23  NH2       25.9130    3.9640   24.3050 N.pl3  44  ARG44       0.1354
     24  N         23.9300    5.3190   14.5950 N.3    50  VAL50      -0.1245
     25  CA        22.7800    6.0150   14.0460 C.3    50  VAL50       0.1561
     26  C         22.5190    7.3260   14.7700 C.2    50  VAL50       0.2260
     27  O         22.4230    7.3660   15.9990 O.2    50  VAL50      -0.2867
     28  CB        21.5430    5.1240   14.0910 C.3    50  VAL50       0.0252
     29  CG1       20.3630    5.8480   13.4910 C.3    50  VAL50       0.0019
     30  CG2       21.8120    3.8240   13.3350 C.3    50  VAL50       0.0019
     31  N         17.4290   11.1940    9.8540 N.3    63  VAL63      -0.1245
     32  CA        18.2050   10.2340   10.6080 C.3    63  VAL63       0.1561
     33  C         19.3860    9.7990    9.7600 C.2    63  VAL63       0.2260
     34  O         19.2430    9.5370    8.5640 O.2    63  VAL63      -0.2867
     35  CB        17.3510    9.0180   11.0070 C.3    63  VAL63       0.0252
     36  CG1       18.2510    7.8530   11.5150 C.3    63  VAL63       0.0019
     37  CG2       16.3150    9.4260   12.0460 C.3    63  VAL63       0.0019
     38  N         22.5870    7.1470    9.1980 N.3    65  LYS65      -0.1245
     39  CA        23.2510    5.9030    9.5370 C.3    65  LYS65       0.1561
     40  C         24.6630    5.9750    8.9730 C.2    65  LYS65       0.2260
     41  O         24.8750    5.9540    7.7490 O.2    65  LYS65      -0.2867
     42  CB        22.4800    4.7170    8.9370 C.3    65  LYS65       0.0271
     43  CG        23.1410    3.3510    9.1110 C.3    65  LYS65       0.0035
     44  CD        22.2460    2.2490    8.5020 C.3    65  LYS65       0.0206
     45  CE        22.8860    0.8710    8.5710 C.3    65  LYS65       0.1093
     46  NZ        21.9660   -0.1860    8.0220 N.3    65  LYS65      -0.1314
     47  N         11.9100    2.3190    5.1570 N.3    92  ILE92      -0.1245
     48  CA        12.6640    3.5280    5.4560 C.3    92  ILE92       0.1561
     49  C         13.1060    4.1960    4.1400 C.2    92  ILE92       0.2260
     50  O         13.6020    3.5280    3.2150 O.2    92  ILE92      -0.2867
     51  CB        13.8610    3.2070    6.3850 C.3    92  ILE92       0.0252
     52  CG1       14.5110    4.4850    6.9260 C.3    92  ILE92       0.0019
     53  CG2       14.8650    2.3240    5.6870 C.3    92  ILE92       0.0019
     54  CD1       15.7140    4.2190    7.8330 C.3    92  ILE92       0.0001
     55  N         18.2910    9.3380    6.0240 N.3   110  PHE110     -0.1241
     56  CA        16.9250    8.8300    5.9030 C.3   110  PHE110      0.1605
     57  C         15.9110    9.8690    6.3510 C.2   110  PHE110      0.2264
     58  O         16.2280   10.7230    7.1880 O.2   110  PHE110     -0.2867
     59  CB        16.7440    7.6110    6.8010 C.3   110  PHE110      0.0534
     60  CG        17.5280    6.4170    6.3700 C.ar  110  PHE110     -0.0203
     61  CD1       17.1430    5.6870    5.2520 C.ar  110  PHE110     -0.0042
     62  CD2       18.6390    6.0120    7.0880 C.ar  110  PHE110     -0.0042
     63  CE1       17.8640    4.5780    4.8470 C.ar  110  PHE110     -0.0003
     64  CE2       19.3600    4.9040    6.7000 C.ar  110  PHE110     -0.0003
     65  CZ        18.9710    4.1810    5.5780 C.ar  110  PHE110     -0.0000
     66  N         12.7250    9.1530   11.4690 N.3   113  VAL113     -0.1231
     67  CA        12.0380    7.9850   11.9780 C.3   113  VAL113      0.1692
     68  C         12.0710    8.0750   13.4910 C.2   113  VAL113      0.2592
     69  O         13.0490    8.5600   14.0650 O.2   113  VAL113     -0.2718
     70  CB        12.7290    6.6860   11.5080 C.3   113  VAL113      0.0266
     71  CG1       12.1730    5.4770   12.2450 C.3   113  VAL113      0.0020
     72  CG2       12.5720    6.5200   10.0020 C.3   113  VAL113      0.0020
     73  N         10.9980    7.6360   14.1320 N.am  114  ASN114     -0.1960
     74  CA        10.9320    7.5940   15.5880 C.3   114  ASN114      0.1819
     75  C         11.9460    6.6060   16.1530 C.2   114  ASN114      0.2621
     76  O         12.1530    5.5360   15.5810 O.2   114  ASN114     -0.2715
     77  CB         9.5250    7.1700   16.0150 C.3   114  ASN114      0.1195
     78  CG         9.2090    7.5780   17.4250 C.2   114  ASN114      0.2630
     79  OD1        9.5870    8.6710   17.8530 O.2   114  ASN114     -0.2716
     80  ND2        8.5340    6.6970   18.1720 N.am  114  ASN114     -0.0877
     81  N         12.5800    6.9430   17.2720 N.am  115  ASN115     -0.1972
     82  CA        13.5740    6.0350   17.8460 C.3   115  ASN115      0.1688
     83  C         12.9570    5.0520   18.8460 C.2   115  ASN115      0.2292
     84  O         13.4480    4.8860   19.9680 O.2   115  ASN115     -0.2864
     85  CB        14.7240    6.8130   18.4960 C.3   115  ASN115      0.1181
     86  CG        15.8500    5.9100   18.9730 C.2   115  ASN115      0.2629
     87  OD1       16.1730    4.8940   18.3440 O.2   115  ASN115     -0.2716
     88  ND2       16.4590    6.2810   20.0950 N.am  115  ASN115     -0.0877
     89  N         10.8780   -0.0320   13.1550 N.3   160  MET160     -0.1245
     90  CA        10.6590    1.1230   14.0110 C.3   160  MET160      0.1570
     91  C          9.1880    1.4320   13.9230 C.2   160  MET160      0.2261
     92  O          8.5610    1.1830   12.8910 O.2   160  MET160     -0.2867
     93  CB        11.4620    2.3310   13.5330 C.3   160  MET160      0.0387
     94  CG        12.9690    2.1200   13.4970 C.3   160  MET160      0.0595
     95  SD        13.6710    1.6460   15.0970 S.3   160  MET160     -0.1393
     96  CE        13.2090    3.0560   16.1010 C.3   160  MET160      0.0692
     97  N         13.3570   -1.3110    8.7880 N.3   171  ILE171     -0.1245
     98  CA        14.6850   -0.7280    8.5770 C.3   171  ILE171      0.1561
     99  C         15.8090   -1.7570    8.4700 C.2   171  ILE171      0.2260
    100  O         15.5690   -2.9790    8.4250 O.2   171  ILE171     -0.2867
    101  CB        15.0560    0.2820    9.6910 C.3   171  ILE171      0.0252
    102  CG1       15.2130   -0.4430   11.0360 C.3   171  ILE171      0.0019
    103  CG2       14.0070    1.4040    9.7620 C.3   171  ILE171      0.0019
    104  CD1       16.0950    0.3220   12.0620 C.3   171  ILE171      0.0001
@<TRIPOS>BOND
     1    50    49    2
     2    49    48    1
     3    63    61   ar
     4    63    65   ar
     5    47    48    1
     6    61    60   ar
     7    48    51    1
     8    65    64   ar
     9    53    51    1
    10    56    55    1
    11    56    57    1
    12    56    59    1
    13    57    58    2
    14    60    59    1
    15    60    62   ar
    16    51    52    1
    17    64    62   ar
    18    52    54    1
    19    41    40    2
    20    46    45    1
    21   100    99    2
    22    99    98    1
    23    44    45    1
    24    44    43    1
    25    34    33    2
    26    98    97    1
    27    98   101    1
    28    42    43    1
    29    42    39    1
    30    40    39    1
    31    38    39    1
    32   101   103    1
    33   101   102    1
    34    33    32    1
    35    31    32    1
    36    72    70    1
    37    32    35    1
    38    35    36    1
    39    35    37    1
    40   102   104    1
    41    66    67    1
    42    70    67    1
    43    70    71    1
    44    67    68    1
    45    92    91    2
    46    89    90    1
    47    30    28    1
    48    29    28    1
    49    68    69    2
    50    68    73   am
    51    94    93    1
    52    94    95    1
    53    93    90    1
    54    91    90    1
    55    25    28    1
    56    25    24    1
    57    25    26    1
    58    73    74    1
    59    26    27    2
    60    95    96    1
    61    76    75    2
    62    74    77    1
    63    74    75    1
    64     7     6    1
    65    77    78    1
    66    75    81   am
    67     6     5    1
    68     6     8    1
    69    12    11    2
    70    81    82    1
    71    78    79    2
    72    78    80   am
    73     5     2    1
    74    15    14    1
    75    15    16    2
    76    14    13    1
    77    14    17    1
    78    82    85    1
    79    82    83    1
    80    11    13   am
    81    11    10    1
    82    87    86    2
    83     1     2    1
    84    85    86    1
    85     9    10    1
    86     9     3   am
    87    17    18    1
    88     2     3    1
    89    83    84    2
    90    86    88   am
    91     3     4    2
    92    18    19    1
    93    19    20    1
    94    22    21    1
    95    20    21    2
    96    21    23    1
