@<TRIPOS>MOLECULE
tmp/5nqcA01.pdb
 95 89 0 0 0
SMALL
GASTEIGER

@<TRIPOS>ATOM
      1  N         27.7660   16.3270    2.6630 N.3    33  GLN33      -0.1231
      2  CA        27.6220   16.1510    4.1100 C.3    33  GLN33       0.1698
      3  C         27.5010   17.4780    4.8660 C.2    33  GLN33       0.2592
      4  O         26.9280   17.5310    5.9580 O.2    33  GLN33      -0.2718
      5  CB        28.7780   15.3150    4.6580 C.3    33  GLN33       0.0381
      6  CG        30.1490   15.8950    4.3540 C.3    33  GLN33       0.0905
      7  CD        30.5950   16.8800    5.4150 C.2    33  GLN33       0.2608
      8  OE1       30.2070   16.7710    6.5860 O.2    33  GLN33      -0.2717
      9  NE2       31.4050   17.8520    5.0150 N.am   33  GLN33      -0.0878
     10  N         28.0190   18.5480    4.2710 N.am   34  ASP34      -0.1974
     11  CA        27.9680   19.8680    4.8880 C.3    34  ASP34       0.1709
     12  C         26.5550   20.4180    5.0300 C.2    34  ASP34       0.2293
     13  O         26.3300   21.3810    5.7670 O.2    34  ASP34      -0.2864
     14  CB        28.8180   20.8620    4.0840 C.3    34  ASP34       0.1436
     15  CG        30.2900   20.8040    4.4530 C.2    34  ASP34       0.3671
     16  OD1       31.1380   20.7760    3.5330 O.co2  34  ASP34      -0.2456
     17  OD2       30.5970   20.7920    5.6650 O.co2  34  ASP34      -0.2456
     18  N         24.1990   18.7920    6.3650 N.3    36  TYR36      -0.1227
     19  CA        23.5760   18.1240    7.5090 C.3    36  TYR36       0.1736
     20  C         24.4240   18.3230    8.7590 C.2    36  TYR36       0.2595
     21  O         25.6440   18.3060    8.6800 O.2    36  TYR36      -0.2718
     22  CB        23.4370   16.6290    7.2230 C.3    36  TYR36       0.0548
     23  CG        22.6320   16.2970    5.9720 C.ar   36  TYR36      -0.0200
     24  CD1       23.2730   16.0220    4.7670 C.ar   36  TYR36      -0.0009
     25  CD2       21.2420   16.2700    5.9980 C.ar   36  TYR36      -0.0009
     26  CE1       22.5500   15.7090    3.6130 C.ar   36  TYR36       0.0417
     27  CE2       20.5010   15.9600    4.8420 C.ar   36  TYR36       0.0417
     28  CZ        21.1730   15.6800    3.6580 C.ar   36  TYR36       0.1957
     29  OH        20.4730   15.3750    2.5010 O.3    36  TYR36      -0.2866
     30  N         23.7920   18.5070    9.9130 N.am   37  GLN37      -0.1965
     31  CA        24.5580   18.4850   11.1600 C.3    37  GLN37       0.1733
     32  C         23.9540   17.4540   12.1040 C.2    37  GLN37       0.2616
     33  O         22.7310   17.3550   12.2220 O.2    37  GLN37      -0.2715
     34  CB        24.5930   19.8790   11.7910 C.3    37  GLN37       0.0408
     35  CG        25.2910   20.8980   10.8930 C.3    37  GLN37       0.0908
     36  CD        25.3330   22.2740   11.5000 C.2    37  GLN37       0.2608
     37  OE1       24.6390   22.5450   12.4760 O.2    37  GLN37      -0.2717
     38  NE2       26.1550   23.1570   10.9280 N.am   37  GLN37      -0.0878
     39  N         24.8160   16.6680   12.7390 N.am   38  LEU38      -0.1977
     40  CA        24.3800   15.6170   13.6540 C.3    38  LEU38       0.1596
     41  C         23.9600   16.2320   14.9790 C.2    38  LEU38       0.2287
     42  O         24.6230   17.1350   15.4910 O.2    38  LEU38      -0.2864
     43  CB        25.5090   14.6070   13.8730 C.3    38  LEU38       0.0297
     44  CG        26.0640   13.9890   12.5840 C.3    38  LEU38       0.0022
     45  CD1       27.1650   12.9540   12.8500 C.3    38  LEU38       0.0001
     46  CD2       24.9340   13.3710   11.7760 C.3    38  LEU38       0.0001
     47  N         20.5610    9.7250   10.3720 N.3    64  VAL64      -0.1245
     48  CA        21.7560    9.3760    9.6180 C.3    64  VAL64       0.1561
     49  C         22.3870    8.0870   10.1140 C.2    64  VAL64       0.2260
     50  O         22.6770    7.9350   11.3030 O.2    64  VAL64      -0.2867
     51  CB        22.7940   10.5260    9.6410 C.3    64  VAL64       0.0252
     52  CG1       24.0550   10.1180    8.8810 C.3    64  VAL64       0.0019
     53  CG2       22.1950   11.7680    9.0260 C.3    64  VAL64       0.0019
     54  N         25.6390    6.1000    9.8600 N.3    66  ILE66      -0.1245
     55  CA        27.0290    6.1260    9.4310 C.3    66  ILE66       0.1561
     56  C         27.5330    4.6860    9.4400 C.2    66  ILE66       0.2260
     57  O         27.5190    4.0200   10.4810 O.2    66  ILE66      -0.2867
     58  CB        27.8700    7.0110   10.3650 C.3    66  ILE66       0.0252
     59  CG1       27.1520    8.3450   10.6030 C.3    66  ILE66       0.0019
     60  CG2       29.2710    7.2190    9.8100 C.3    66  ILE66       0.0019
     61  CD1       28.0290    9.4250   11.2390 C.3    66  ILE66       0.0001
     62  N         25.9560   10.5670    1.8010 N.3    98  VAL98      -0.1245
     63  CA        27.1100   11.4330    1.9500 C.3    98  VAL98       0.1561
     64  C         28.2900   10.6200    2.4680 C.2    98  VAL98       0.2260
     65  O         28.1350    9.4630    2.8950 O.2    98  VAL98      -0.2867
     66  CB        26.8190   12.6370    2.8910 C.3    98  VAL98       0.0252
     67  CG1       25.6940   13.4880    2.3380 C.3    98  VAL98       0.0019
     68  CG2       26.4740   12.1610    4.3080 C.3    98  VAL98       0.0019
     69  N         31.3030   10.3400    5.2870 N.3   100  ASP100     -0.1225
     70  CA        31.7310   10.7970    6.6030 C.3   100  ASP100      0.1790
     71  C         33.1100   11.4470    6.4800 C.2   100  ASP100      0.2439
     72  O         34.0630   10.8190    6.0180 O.2   100  ASP100     -0.2733
     73  CB        31.7720    9.6190    7.5820 C.3   100  ASP100      0.1423
     74  CG        31.9130   10.0560    9.0370 C.2   100  ASP100      0.3668
     75  OD1       32.2570    9.1950    9.8770 O.co2 100  ASP100     -0.2456
     76  OD2       31.6780   11.2470    9.3460 O.co2 100  ASP100     -0.2456
     77  N         33.2080   12.7270    6.8600 N.am  101  PRO101     -0.2729
     78  CA        34.4500   13.4990    6.7560 C.3   101  PRO101      0.1401
     79  C         35.5870   12.7890    7.4630 C.2   101  PRO101      0.2269
     80  O         36.7100   12.7560    6.9610 O.2   101  PRO101     -0.2865
     81  CB        34.1270   14.7820    7.5280 C.3   101  PRO101      0.0296
     82  CG        32.6570   14.9240    7.4360 C.3   101  PRO101      0.0237
     83  CD        32.1090   13.5200    7.4350 C.3   101  PRO101      0.0939
     84  N         27.6020    7.5180    4.6290 N.3   107  ALA107     -0.1245
     85  CA        26.5880    7.7300    5.6460 C.3   107  ALA107      0.1562
     86  C         25.2830    7.8630    4.9050 C.2   107  ALA107      0.2260
     87  O         25.1970    8.6010    3.9130 O.2   107  ALA107     -0.2867
     88  CB        26.8620    9.0010    6.4250 C.3   107  ALA107      0.0290
     89  N         21.4450    9.0170    4.6390 N.3   109  VAL109     -0.1245
     90  CA        20.5050    9.9460    5.2430 C.3   109  VAL109      0.1561
     91  C         19.0760    9.5160    4.9580 C.2   109  VAL109      0.2260
     92  O         18.6910    9.3650    3.7910 O.2   109  VAL109     -0.2867
     93  CB        20.7190   11.3690    4.7140 C.3   109  VAL109      0.0252
     94  CG1       19.8620   12.3570    5.5070 C.3   109  VAL109      0.0019
     95  CG2       22.1880   11.7330    4.8240 C.3   109  VAL109      0.0019
@<TRIPOS>BOND
     1    62    63    1
     2    63    64    1
     3    63    66    1
     4    67    66    1
     5    64    65    2
     6    29    28    1
     7     1     2    1
     8    66    68    1
     9    16    15   ar
    10    26    28   ar
    11    26    24   ar
    12    28    27   ar
    13    92    91    2
    14    87    86    2
    15    14    15    1
    16    14    11    1
    17     2     5    1
    18     2     3    1
    19    10     3   am
    20    10    11    1
    21     6     5    1
    22     6     7    1
    23    15    17   ar
    24    84    85    1
    25    89    90    1
    26    93    95    1
    27    93    90    1
    28    93    94    1
    29    24    23   ar
    30    27    25   ar
    31     3     4    2
    32    11    12    1
    33    86    85    1
    34    91    90    1
    35     9     7   am
    36    12    13    2
    37    69    70    1
    38     7     8    2
    39    85    88    1
    40    23    25   ar
    41    23    22    1
    42    72    71    2
    43    18    19    1
    44    71    70    1
    45    71    77   am
    46    70    73    1
    47    78    77    1
    48    78    79    1
    49    78    81    1
    50    77    83    1
    51    80    79    2
    52    22    19    1
    53    83    82    1
    54    82    81    1
    55    19    20    1
    56    73    74    1
    57    21    20    2
    58    20    30   am
    59    52    51    1
    60    53    51    1
    61    74    76   ar
    62    74    75   ar
    63    55    56    1
    64    55    54    1
    65    55    58    1
    66    56    57    2
    67    48    51    1
    68    48    49    1
    69    48    47    1
    70    60    58    1
    71    30    31    1
    72    49    50    2
    73    58    59    1
    74    59    61    1
    75    35    36    1
    76    35    34    1
    77    38    36   am
    78    31    34    1
    79    31    32    1
    80    36    37    2
    81    46    44    1
    82    32    33    2
    83    32    39   am
    84    44    45    1
    85    44    43    1
    86    39    40    1
    87    40    43    1
    88    40    41    1
    89    41    42    2
