@<TRIPOS>MOLECULE
tmp/5nqdC02.pdb
 103 97 0 0 0
SMALL
GASTEIGER

@<TRIPOS>ATOM
      1  N       -108.2440   -5.2350  -29.6810 N.3   168  ASP168     -0.1239
      2  CA      -108.8490   -3.8730  -29.7790 C.3   168  ASP168      0.1674
      3  C       -110.3320   -3.9880  -30.0710 C.2   168  ASP168      0.2266
      4  O       -110.9510   -2.9870  -30.3990 O.2   168  ASP168     -0.2867
      5  CB      -108.1640   -2.9730  -30.8390 C.3   168  ASP168      0.1410
      6  CG      -108.5310   -3.3350  -32.2880 C.2   168  ASP168      0.3668
      7  OD1     -109.1360   -4.3840  -32.5130 O.co2 168  ASP168     -0.2456
      8  OD2     -108.2000   -2.5830  -33.2290 O.co2 168  ASP168     -0.2456
      9  N       -102.0420   -5.6380  -32.4130 N.3   197  ILE197     -0.1245
     10  CA      -103.4340   -5.9310  -32.1820 C.3   197  ILE197      0.1561
     11  C       -103.6410   -7.4710  -32.2630 C.2   197  ILE197      0.2260
     12  O       -102.7280   -8.2190  -32.6360 O.2   197  ILE197     -0.2867
     13  CB      -104.2760   -5.0510  -33.1290 C.3   197  ILE197      0.0252
     14  CG1     -104.1470   -3.5880  -32.6770 C.3   197  ILE197      0.0019
     15  CG2     -105.7650   -5.4450  -33.1690 C.3   197  ILE197      0.0019
     16  CD1     -104.6240   -2.6030  -33.7480 C.3   197  ILE197      0.0001
     17  N       -103.4410   -8.5980  -36.1440 N.3   200  ARG200     -0.1245
     18  CA      -102.5400   -7.9340  -37.0770 C.3   200  ARG200      0.1563
     19  C       -101.3270   -7.4530  -36.3100 C.2   200  ARG200      0.2260
     20  O       -101.4500   -7.0320  -35.1870 O.2   200  ARG200     -0.2867
     21  CB      -103.2900   -6.8330  -37.8790 C.3   200  ARG200      0.0307
     22  CG      -103.8700   -5.6590  -37.1000 C.3   200  ARG200      0.0489
     23  CD      -105.0560   -5.0180  -37.8650 C.3   200  ARG200      0.2205
     24  NE      -105.5920   -3.8160  -37.2350 N.pl3 200  ARG200     -0.0865
     25  CZ      -106.6780   -3.7660  -36.4800 C.cat 200  ARG200      0.5346
     26  NH1     -107.3930   -4.8460  -36.2200 N.pl3 200  ARG200      0.1354
     27  NH2     -107.0630   -2.6090  -35.9540 N.pl3 200  ARG200      0.1354
     28  N        -99.8920   -1.6500  -34.7940 N.3   203  TYR203     -0.1227
     29  CA      -100.9960   -0.8160  -34.3190 C.3   203  TYR203      0.1736
     30  C       -101.5170    0.0790  -35.4510 C.2   203  TYR203      0.2595
     31  O       -101.2620    1.2890  -35.4990 O.2   203  TYR203     -0.2718
     32  CB      -100.6130    0.0080  -33.0790 C.3   203  TYR203      0.0548
     33  CG      -101.8300    0.2830  -32.2220 C.ar  203  TYR203     -0.0200
     34  CD1     -102.2450   -0.6480  -31.2730 C.ar  203  TYR203     -0.0009
     35  CD2     -102.6060    1.4150  -32.3890 C.ar  203  TYR203     -0.0009
     36  CE1     -103.3800   -0.4410  -30.5070 C.ar  203  TYR203      0.0417
     37  CE2     -103.7550    1.6170  -31.6370 C.ar  203  TYR203      0.0417
     38  CZ      -104.1240    0.6830  -30.6890 C.ar  203  TYR203      0.1957
     39  OH      -105.2090    0.8620  -29.9000 O.3   203  TYR203     -0.2866
     40  N       -102.2450   -0.5690  -36.3470 N.am  204  ASN204     -0.1960
     41  CA      -102.8080    0.0420  -37.5470 C.3   204  ASN204      0.1819
     42  C       -104.3740   -0.1860  -37.6110 C.2   204  ASN204      0.2622
     43  O       -104.9690   -0.8300  -36.7380 O.2   204  ASN204     -0.2715
     44  CB      -102.1360   -0.5700  -38.7410 C.3   204  ASN204      0.1195
     45  CG      -102.2930   -2.0850  -38.7750 C.2   204  ASN204      0.2630
     46  OD1     -103.2680   -2.6490  -38.2100 O.2   204  ASN204     -0.2716
     47  ND2     -101.3590   -2.7650  -39.4700 N.am  204  ASN204     -0.0877
     48  N       -105.0080    0.3460  -38.6530 N.am  205  SER205     -0.1950
     49  CA      -106.3990    0.0540  -38.9480 C.3   205  SER205      0.1924
     50  C       -106.3760   -0.9550  -40.1010 C.2   205  SER205      0.2314
     51  O       -105.4580   -0.9820  -40.9100 O.2   205  SER205     -0.2863
     52  CB      -107.1790    1.3390  -39.3410 C.3   205  SER205      0.2116
     53  OG      -108.3990    1.0640  -40.0780 O.3   205  SER205     -0.2180
     54  N       -107.4890    1.5750  -43.5560 N.3   208  HIS208     -0.1241
     55  CA      -107.0340    2.9140  -43.7710 C.3   208  HIS208      0.1621
     56  C       -107.5420    3.5130  -45.0900 C.2   208  HIS208      0.2264
     57  O       -107.7650    4.7020  -45.1520 O.2   208  HIS208     -0.2867
     58  CB      -105.5280    2.9640  -43.7510 C.3   208  HIS208      0.0745
     59  CG      -104.9260    2.8960  -42.3830 C.ar  208  HIS208      0.0817
     60  ND1     -105.1970    3.8270  -41.4080 N.ar  208  HIS208     -0.2268
     61  CD2     -104.0040    2.0580  -41.8580 C.ar  208  HIS208      0.1154
     62  CE1     -104.4670    3.5700  -40.3410 C.ar  208  HIS208      0.1986
     63  NE2     -103.7570    2.4880  -40.5820 N.ar  208  HIS208     -0.2212
     64  N       -111.0990    4.9760  -44.5830 N.3   211  ARG211     -0.1245
     65  CA      -111.0770    6.1000  -43.6680 C.3   211  ARG211      0.1563
     66  C       -110.3600    7.3140  -44.2220 C.2   211  ARG211      0.2260
     67  O       -110.8130    8.4300  -44.0460 O.2   211  ARG211     -0.2867
     68  CB      -110.4410    5.7420  -42.3310 C.3   211  ARG211      0.0307
     69  CG      -111.1760    4.6520  -41.5740 C.3   211  ARG211      0.0489
     70  CD      -110.3450    4.2580  -40.3680 C.3   211  ARG211      0.2205
     71  NE      -111.0500    3.2260  -39.6250 N.pl3 211  ARG211     -0.0865
     72  CZ      -110.8250    2.8980  -38.3510 C.cat 211  ARG211      0.5346
     73  NH1     -109.8580    3.4940  -37.6440 N.pl3 211  ARG211      0.1354
     74  NH2     -111.5660    1.9300  -37.7970 N.pl3 211  ARG211      0.1354
     75  N       -117.6440   -4.3960  -32.0450 N.3   452  GLU452     -0.1245
     76  CA      -116.7690   -3.2500  -31.9080 C.3   452  GLU452      0.1567
     77  C       -116.9570   -2.6810  -30.5270 C.2   452  GLU452      0.2260
     78  O       -118.0760   -2.5980  -30.0780 O.2   452  GLU452     -0.2867
     79  CB      -117.1440   -2.2480  -32.9820 C.3   452  GLU452      0.0388
     80  CG      -116.7960   -2.7550  -34.4030 C.3   452  GLU452      0.1160
     81  CD      -115.3080   -2.6330  -34.8090 C.2   452  GLU452      0.3649
     82  OE1     -114.4910   -2.1390  -34.0070 O.co2 452  GLU452     -0.2457
     83  OE2     -114.9360   -3.0480  -35.9290 O.co2 452  GLU452     -0.2457
     84  N       -114.2730   -0.0310  -29.0520 N.3   454  TYR454     -0.1241
     85  CA      -113.0010    0.6290  -28.9190 C.3   454  TYR454      0.1605
     86  C       -113.1730    2.0310  -28.3660 C.2   454  TYR454      0.2264
     87  O       -113.7990    2.8900  -29.0000 O.2   454  TYR454     -0.2867
     88  CB      -112.3230    0.7310  -30.2850 C.3   454  TYR454      0.0534
     89  CG      -110.9030    1.2730  -30.2800 C.ar  454  TYR454     -0.0201
     90  CD1     -110.6410    2.6590  -30.2050 C.ar  454  TYR454     -0.0009
     91  CD2     -109.7980    0.4120  -30.4120 C.ar  454  TYR454     -0.0009
     92  CE1     -109.3460    3.1480  -30.2110 C.ar  454  TYR454      0.0417
     93  CE2     -108.4780    0.9110  -30.4070 C.ar  454  TYR454      0.0417
     94  CZ      -108.2730    2.2810  -30.3030 C.ar  454  TYR454      0.1957
     95  OH      -107.0140    2.7810  -30.2890 O.3   454  TYR454     -0.2866
     96  N       -103.4330    7.4180  -30.0470 N.3   459  ASP459     -0.1239
     97  CA      -102.3360    6.5260  -30.4210 C.3   459  ASP459      0.1674
     98  C       -101.3440    7.1920  -31.3110 C.2   459  ASP459      0.2266
     99  O       -100.6530    6.5340  -32.0620 O.2   459  ASP459     -0.2867
    100  CB      -102.8710    5.2850  -31.1090 C.3   459  ASP459      0.1410
    101  CG      -103.5560    5.5780  -32.4050 C.2   459  ASP459      0.3668
    102  OD1     -103.4720    6.7090  -32.8580 O.co2 459  ASP459     -0.2456
    103  OD2     -104.1660    4.6640  -32.9710 O.co2 459  ASP459     -0.2456
@<TRIPOS>BOND
     1    57    56    2
     2    56    55    1
     3    64    65    1
     4    66    67    2
     5    66    65    1
     6    55    58    1
     7    55    54    1
     8    58    59    1
     9    65    68    1
    10    59    61   ar
    11    59    60   ar
    12    68    69    1
    13    61    63   ar
    14    69    70    1
    15    60    62   ar
    16    51    50    2
    17    63    62   ar
    18    70    71    1
    19    50    49    1
    20    53    52    1
    21    71    72    2
    22    47    45   am
    23    52    49    1
    24    49    48    1
    25    45    44    1
    26    45    46    2
    27    44    41    1
    28    48    42   am
    29    72    74    1
    30    72    73    1
    31    21    22    1
    32    21    18    1
    33    23    24    1
    34    23    22    1
    35    42    41    1
    36    42    43    2
    37    41    40    1
    38    24    25    2
    39    18    19    1
    40    18    17    1
    41    25    26    1
    42    25    27    1
    43    40    30   am
    44    19    20    2
    45    83    81   ar
    46    31    30    2
    47    30    29    1
    48    81    80    1
    49    81    82   ar
    50    28    29    1
    51    80    79    1
    52    29    32    1
    53    16    14    1
    54     8     6   ar
    55    15    13    1
    56    13    14    1
    57    13    10    1
    58    32    33    1
    59    79    76    1
    60   103   101   ar
    61   102   101   ar
    62    12    11    2
    63     7     6   ar
    64     9    10    1
    65   101   100    1
    66    35    33   ar
    67    35    37   ar
    68     6     5    1
    69    11    10    1
    70    33    34   ar
    71    99    98    2
    72    75    76    1
    73    76    77    1
    74    37    38   ar
    75    98    97    1
    76    34    36   ar
    77   100    97    1
    78     5     2    1
    79    38    36   ar
    80    38    39    1
    81    77    78    2
    82    97    96    1
    83    91    93   ar
    84    91    89   ar
    85    93    94   ar
    86     4     3    2
    87    94    95    1
    88    94    92   ar
    89    88    89    1
    90    88    85    1
    91    89    90   ar
    92    92    90   ar
    93     3     2    1
    94     2     1    1
    95    84    85    1
    96    87    86    2
    97    85    86    1
