@<TRIPOS>MOLECULE
tmp/5nqdG02.pdb
 209 199 0 0 0
SMALL
GASTEIGER

@<TRIPOS>ATOM
      1  N        -93.6370  -50.6320  -11.4230 N.3   168  ASP168     -0.1239
      2  CA       -93.4370  -52.0860  -11.2150 C.3   168  ASP168      0.1674
      3  C        -94.5680  -52.6410  -10.3050 C.2   168  ASP168      0.2266
      4  O        -94.4920  -53.7270   -9.7700 O.2   168  ASP168     -0.2867
      5  CB       -92.0160  -52.3680  -10.6360 C.3   168  ASP168      0.1410
      6  CG       -91.9260  -52.1870   -9.1140 C.2   168  ASP168      0.3668
      7  OD1      -92.7920  -51.5050   -8.5510 O.co2 168  ASP168     -0.2456
      8  OD2      -90.9650  -52.7200   -8.4820 O.co2 168  ASP168     -0.2456
      9  N       -100.1880  -57.4160  -13.5360 N.3   176  TYR176     -0.1241
     10  CA       -99.4270  -58.5490  -14.1090 C.3   176  TYR176      0.1605
     11  C        -99.3620  -58.4620  -15.6170 C.2   176  TYR176      0.2264
     12  O        -98.3280  -58.7370  -16.2280 O.2   176  TYR176     -0.2867
     13  CB      -100.0260  -59.9300  -13.6660 C.3   176  TYR176      0.0534
     14  CG       -99.8360  -60.2700  -12.2130 C.ar  176  TYR176     -0.0201
     15  CD1      -98.5610  -60.3440  -11.6690 C.ar  176  TYR176     -0.0009
     16  CD2     -100.8910  -60.5320  -11.3950 C.ar  176  TYR176     -0.0009
     17  CE1      -98.3590  -60.6860  -10.3670 C.ar  176  TYR176      0.0417
     18  CE2     -100.6950  -60.8470  -10.0660 C.ar  176  TYR176      0.0417
     19  CZ       -99.4160  -60.9140   -9.5630 C.ar  176  TYR176      0.1957
     20  OH       -99.1990  -61.2510   -8.2210 O.3   176  TYR176     -0.2866
     21  N        -87.7040  -47.3630  -11.3760 N.3   197  ILE197     -0.1245
     22  CA       -89.0180  -47.7400  -11.0060 C.3   197  ILE197      0.1561
     23  C        -89.7600  -46.4410  -10.6290 C.2   197  ILE197      0.2260
     24  O        -89.1490  -45.3940  -10.4850 O.2   197  ILE197     -0.2867
     25  CB       -88.8810  -48.7610   -9.8690 C.3   197  ILE197      0.0252
     26  CG1      -88.2420  -50.0060  -10.4640 C.3   197  ILE197      0.0019
     27  CG2      -90.2410  -49.1100   -9.2220 C.3   197  ILE197      0.0019
     28  CD1      -87.7950  -50.9850   -9.4270 C.3   197  ILE197      0.0001
     29  N        -88.4720  -44.9160   -7.0210 N.3   200  ARG200     -0.1245
     30  CA       -87.0980  -44.9640   -6.6140 C.3   200  ARG200      0.1563
     31  C        -86.2460  -44.9500   -7.8560 C.2   200  ARG200      0.2260
     32  O        -86.6590  -45.4550   -8.8940 O.2   200  ARG200     -0.2867
     33  CB       -86.8280  -46.2140   -5.7300 C.3   200  ARG200      0.0307
     34  CG       -87.3070  -47.5510   -6.2830 C.3   200  ARG200      0.0489
     35  CD       -87.4420  -48.5830   -5.1790 C.3   200  ARG200      0.2205
     36  NE       -87.6890  -49.9670   -5.6860 N.pl3 200  ARG200     -0.0865
     37  CZ       -88.9040  -50.5050   -5.9040 C.cat 200  ARG200      0.5346
     38  NH1      -89.9950  -49.8110   -5.6800 N.pl3 200  ARG200      0.1354
     39  NH2      -89.0320  -51.7610   -6.3410 N.pl3 200  ARG200      0.1354
     40  N        -83.2100  -49.6540  -10.3740 N.3   203  TYR203     -0.1227
     41  CA       -83.9690  -50.9350  -10.4150 C.3   203  TYR203      0.1736
     42  C        -83.5420  -51.8390   -9.2380 C.2   203  TYR203      0.2595
     43  O        -82.7770  -52.7940   -9.4040 O.2   203  TYR203     -0.2718
     44  CB       -83.8280  -51.6590  -11.7650 C.3   203  TYR203      0.0548
     45  CG       -85.0420  -52.4840  -12.1110 C.ar  203  TYR203     -0.0200
     46  CD1      -86.1290  -51.9130  -12.7670 C.ar  203  TYR203     -0.0009
     47  CD2      -85.1330  -53.8200  -11.7450 C.ar  203  TYR203     -0.0009
     48  CE1      -87.2210  -52.6680  -13.1260 C.ar  203  TYR203      0.0417
     49  CE2      -86.2630  -54.5720  -12.0490 C.ar  203  TYR203      0.0417
     50  CZ       -87.3020  -54.0040  -12.7460 C.ar  203  TYR203      0.1957
     51  OH       -88.4510  -54.7200  -13.0000 O.3   203  TYR203     -0.2866
     52  N        -84.0760  -51.5160   -8.0670 N.am  204  ASN204     -0.1960
     53  CA       -83.7850  -52.1840   -6.8040 C.3   204  ASN204      0.1819
     54  C        -85.0970  -52.6510   -6.1370 C.2   204  ASN204      0.2622
     55  O        -86.2060  -52.4620   -6.6580 O.2   204  ASN204     -0.2715
     56  CB       -82.9890  -51.2370   -5.9120 C.3   204  ASN204      0.1195
     57  CG       -83.7100  -49.9170   -5.6630 C.2   204  ASN204      0.2630
     58  OD1      -84.9080  -49.8130   -5.8610 O.2   204  ASN204     -0.2716
     59  ND2      -82.9780  -48.9090   -5.2400 N.am  204  ASN204     -0.0877
     60  N        -84.9750  -53.2980   -4.9960 N.am  205  SER205     -0.1950
     61  CA       -86.1060  -53.5930   -4.1500 C.3   205  SER205      0.1924
     62  C        -86.1310  -52.5300   -3.0450 C.2   205  SER205      0.2314
     63  O        -85.0990  -52.0870   -2.6000 O.2   205  SER205     -0.2863
     64  CB       -85.9790  -54.9960   -3.5360 C.3   205  SER205      0.2116
     65  OG       -86.9790  -55.1890   -2.5390 O.3   205  SER205     -0.2180
     66  N        -84.5420  -55.0920    0.3310 N.3   208  HIS208     -0.1241
     67  CA       -83.4970  -56.0630    0.1890 C.3   208  HIS208      0.1621
     68  C        -83.1660  -56.7260    1.5370 C.2   208  HIS208      0.2264
     69  O        -82.7730  -57.8770    1.5450 O.2   208  HIS208     -0.2867
     70  CB       -82.2220  -55.4350   -0.4170 C.3   208  HIS208      0.0745
     71  CG       -82.3010  -55.1940   -1.8890 C.ar  208  HIS208      0.0817
     72  ND1      -82.4530  -56.2110   -2.8100 N.ar  208  HIS208     -0.2268
     73  CD2      -82.2430  -54.0480   -2.6050 C.ar  208  HIS208      0.1154
     74  CE1      -82.4720  -55.7030   -4.0310 C.ar  208  HIS208      0.1986
     75  NE2      -82.3310  -54.3890   -3.9310 N.ar  208  HIS208     -0.2212
     76  N        -85.6270  -59.4840    2.4120 N.3   211  ARG211     -0.1245
     77  CA       -85.4750  -60.5140    1.3980 C.3   211  ARG211      0.1563
     78  C        -84.2000  -61.3560    1.5360 C.2   211  ARG211      0.2260
     79  O        -84.2630  -62.5980    1.4850 O.2   211  ARG211     -0.2867
     80  CB       -85.5610  -59.9180   -0.0180 C.3   211  ARG211      0.0307
     81  CG       -86.9590  -59.4070   -0.3530 C.3   211  ARG211      0.0489
     82  CD       -87.0250  -58.8690   -1.7800 C.3   211  ARG211      0.2205
     83  NE       -88.3720  -58.3880   -2.0820 N.pl3 211  ARG211     -0.0865
     84  CZ       -88.7890  -57.9550   -3.2610 C.cat 211  ARG211      0.5346
     85  NH1      -87.9950  -57.9170   -4.3110 N.pl3 211  ARG211      0.1354
     86  NH2      -90.0450  -57.5590   -3.3820 N.pl3 211  ARG211      0.1354
     87  N        -89.6210  -62.8280    2.6340 N.3   216  GLY216     -0.1210
     88  CA       -90.5910  -62.1330    1.7520 C.3   216  GLY216      0.1956
     89  C        -91.4340  -61.1980    2.6000 C.2   216  GLY216      0.2612
     90  O        -91.8530  -61.5430    3.6900 O.2   216  GLY216     -0.2717
     91  N        -91.6400  -59.9850    2.0960 N.am  217  GLU217     -0.1965
     92  CA       -92.1610  -58.8900    2.8990 C.3   217  GLU217      0.1733
     93  C        -93.6900  -58.8910    3.0040 C.2   217  GLU217      0.2616
     94  O        -94.1950  -58.1440    3.8200 O.2   217  GLU217     -0.2715
     95  CB       -91.6990  -57.5290    2.3600 C.3   217  GLU217      0.0429
     96  CG       -92.3120  -57.1290    0.9910 C.3   217  GLU217      0.1163
     97  CD       -91.5480  -57.6560   -0.2080 C.2   217  GLU217      0.3649
     98  OE1      -90.7230  -58.5640   -0.0140 O.co2 217  GLU217     -0.2457
     99  OE2      -91.7630  -57.1730   -1.3480 O.co2 217  GLU217     -0.2457
    100  N        -94.4060  -59.6620    2.1800 N.am  218  LEU218     -0.1977
    101  CA       -95.8290  -59.9480    2.4290 C.3   218  LEU218      0.1596
    102  C        -96.0830  -61.4060    2.8540 C.2   218  LEU218      0.2287
    103  O        -96.4250  -62.3010    2.0200 O.2   218  LEU218     -0.2864
    104  CB       -96.6520  -59.5790    1.1960 C.3   218  LEU218      0.0297
    105  CG       -96.5270  -58.1210    0.7310 C.3   218  LEU218      0.0022
    106  CD1      -97.2550  -57.8740   -0.5720 C.3   218  LEU218      0.0001
    107  CD2      -97.0010  -57.1740    1.8100 C.3   218  LEU218      0.0001
    108  N        -99.8680  -55.1720   -5.6180 N.3   452  GLU452     -0.1245
    109  CA       -98.7480  -55.8160   -6.2600 C.3   452  GLU452      0.1567
    110  C        -99.2320  -56.5610   -7.5150 C.2   452  GLU452      0.2260
    111  O       -100.3360  -57.1160   -7.5350 O.2   452  GLU452     -0.2867
    112  CB       -98.0740  -56.7480   -5.2500 C.3   452  GLU452      0.0388
    113  CG       -97.4370  -56.0130   -4.0350 C.3   452  GLU452      0.1160
    114  CD       -96.1240  -55.3090   -4.3660 C.2   452  GLU452      0.3649
    115  OE1      -95.6790  -55.4470   -5.5080 O.co2 452  GLU452     -0.2457
    116  OE2      -95.5420  -54.6100   -3.5200 O.co2 452  GLU452     -0.2457
    117  N        -96.4080  -57.8870  -10.1070 N.3   454  TYR454     -0.1227
    118  CA       -95.1550  -57.9260  -10.7820 C.3   454  TYR454      0.1736
    119  C        -94.9420  -59.2890  -11.3870 C.2   454  TYR454      0.2595
    120  O        -94.9140  -60.3320  -10.6790 O.2   454  TYR454     -0.2718
    121  CB       -94.0250  -57.6320   -9.7890 C.3   454  TYR454      0.0548
    122  CG       -92.6490  -57.4850  -10.4150 C.ar  454  TYR454     -0.0200
    123  CD1      -91.8720  -58.5880  -10.7120 C.ar  454  TYR454     -0.0009
    124  CD2      -92.0920  -56.2080  -10.6660 C.ar  454  TYR454     -0.0009
    125  CE1      -90.5780  -58.4580  -11.2620 C.ar  454  TYR454      0.0417
    126  CE2      -90.8190  -56.0620  -11.2430 C.ar  454  TYR454      0.0417
    127  CZ       -90.0560  -57.1990  -11.5290 C.ar  454  TYR454      0.1957
    128  OH       -88.8160  -57.0780  -12.1090 O.3   454  TYR454     -0.2866
    129  N        -94.7370  -59.3020  -12.6920 N.am  455  VAL455     -0.1980
    130  CA       -94.0840  -60.4250  -13.3190 C.3   455  VAL455      0.1595
    131  C        -93.3230  -59.9900  -14.5610 C.2   455  VAL455      0.2287
    132  O        -93.8820  -59.3600  -15.4290 O.2   455  VAL455     -0.2864
    133  CB       -95.0580  -61.5430  -13.6350 C.3   455  VAL455      0.0276
    134  CG1      -95.9920  -61.1800  -14.7980 C.3   455  VAL455      0.0022
    135  CG2      -94.2830  -62.8090  -13.9430 C.3   455  VAL455      0.0022
    136  N        -84.0240  -59.7940  -14.1740 N.3   459  ASP459     -0.1239
    137  CA       -83.3590  -58.4790  -14.1570 C.3   459  ASP459      0.1674
    138  C        -81.8440  -58.6010  -13.8300 C.2   459  ASP459      0.2266
    139  O        -81.2140  -57.6350  -13.3540 O.2   459  ASP459     -0.2867
    140  CB       -84.0740  -57.5430  -13.1590 C.3   459  ASP459      0.1410
    141  CG       -84.0080  -58.0500  -11.7140 C.2   459  ASP459      0.3668
    142  OD1      -83.4550  -59.1250  -11.4920 O.co2 459  ASP459     -0.2456
    143  OD2      -84.4750  -57.3810  -10.7790 O.co2 459  ASP459     -0.2456
    144  N       -102.6210  -58.4620   -6.8020 N.3   570  MET570     -0.1245
    145  CA      -102.8690  -58.9540   -5.4390 C.3   570  MET570      0.1570
    146  C       -102.6880  -57.8160   -4.4550 C.2   570  MET570      0.2261
    147  O       -101.9770  -56.8420   -4.7790 O.2   570  MET570     -0.2867
    148  CB      -101.9410  -60.1020   -5.0790 C.3   570  MET570      0.0387
    149  CG      -100.4660  -59.7400   -5.0160 C.3   570  MET570      0.0595
    150  SD       -99.4320  -61.1530   -4.5760 S.3   570  MET570     -0.1393
    151  CE       -98.0740  -60.3360   -3.7950 C.3   570  MET570      0.0692
    152  N       -101.5460  -60.8260   -0.2450 N.3   574  ARG574     -0.1245
    153  CA      -101.4050  -61.6180   -1.4920 C.3   574  ARG574      0.1563
    154  C       -102.6970  -62.0500   -2.1430 C.2   574  ARG574      0.2260
    155  O       -102.7120  -62.9470   -2.9710 O.2   574  ARG574     -0.2867
    156  CB      -100.4810  -62.8060   -1.3240 C.3   574  ARG574      0.0307
    157  CG       -99.0650  -62.4550   -0.9190 C.3   574  ARG574      0.0489
    158  CD       -98.3320  -63.5900   -0.2050 C.3   574  ARG574      0.2205
    159  NE       -98.7940  -63.6280    1.1750 N.pl3 574  ARG574     -0.0865
    160  CZ       -99.6210  -64.5220    1.6500 C.cat 574  ARG574      0.5346
    161  NH1     -100.0460  -65.4920    0.8800 N.pl3 574  ARG574      0.1354
    162  NH2     -100.0200  -64.4730    2.8930 N.pl3 574  ARG574      0.1354
    163  N        -95.2690  -68.1450  -15.7070 N.3   638  ASN638     -0.1225
    164  CA       -94.0890  -67.8330  -14.8620 C.3   638  ASN638      0.1785
    165  C        -94.2880  -67.7610  -13.3780 C.2   638  ASN638      0.2597
    166  O        -93.3420  -67.9360  -12.6430 O.2   638  ASN638     -0.2718
    167  CB       -93.4660  -66.4960  -15.2850 C.3   638  ASN638      0.1169
    168  CG       -92.8050  -66.5810  -16.6320 C.2   638  ASN638      0.2627
    169  OD1      -91.6690  -67.0260  -16.7320 O.2   638  ASN638     -0.2716
    170  ND2      -93.5140  -66.1700  -17.6740 N.am  638  ASN638     -0.0877
    171  N        -95.4810  -67.4410  -12.9170 N.am  639  ALA639     -0.1966
    172  CA       -95.6750  -67.3630  -11.4960 C.3   639  ALA639      0.1728
    173  C        -95.6680  -68.7740  -10.9460 C.2   639  ALA639      0.2616
    174  O        -96.0040  -69.7190  -11.6740 O.2   639  ALA639     -0.2715
    175  CB       -96.9910  -66.6790  -11.1750 C.3   639  ALA639      0.0334
    176  N        -95.3380  -68.8930   -9.6600 N.am  640  HIS640     -0.1973
    177  CA       -95.4440  -70.1550   -8.9290 C.3   640  HIS640      0.1656
    178  C        -96.8690  -70.5690   -8.8700 C.2   640  HIS640      0.2291
    179  O        -97.6890  -69.8610   -8.3180 O.2   640  HIS640     -0.2864
    180  CB       -94.9020  -70.0280   -7.5140 C.3   640  HIS640      0.0771
    181  CG       -93.4210  -69.9400   -7.4700 C.ar  640  HIS640      0.0820
    182  ND1      -92.7250  -69.5890   -6.3320 N.ar  640  HIS640     -0.2267
    183  CD2      -92.4960  -70.1930   -8.4260 C.ar  640  HIS640      0.1154
    184  CE1      -91.4340  -69.5760   -6.6150 C.ar  640  HIS640      0.1986
    185  NE2      -91.2720  -69.9480   -7.8760 N.ar  640  HIS640     -0.2212
    186  N       -102.1160  -65.8480   -3.0330 N.3   660  GLU660     -0.1231
    187  CA      -100.9720  -66.3710   -3.7870 C.3   660  GLU660      0.1684
    188  C        -99.8830  -66.8800   -2.8300 C.2   660  GLU660      0.2434
    189  O        -99.7750  -66.3950   -1.7170 O.2   660  GLU660     -0.2733
    190  CB      -100.3840  -65.2570   -4.6950 C.3   660  GLU660      0.0402
    191  CG      -101.3420  -64.6670   -5.7080 C.3   660  GLU660      0.1161
    192  CD      -100.6340  -63.9730   -6.8710 C.2   660  GLU660      0.3649
    193  OE1      -99.9180  -64.6490   -7.6710 O.co2 660  GLU660     -0.2457
    194  OE2     -100.7890  -62.7320   -7.0080 O.co2 660  GLU660     -0.2457
    195  N        -99.0730  -67.8630   -3.2220 N.am  661  PRO661     -0.2729
    196  CA       -99.1910  -68.6220   -4.4610 C.3   661  PRO661      0.1401
    197  C       -100.3200  -69.6800   -4.4690 C.2   661  PRO661      0.2269
    198  O       -100.7130  -70.2400   -3.4320 O.2   661  PRO661     -0.2865
    199  CB       -97.8100  -69.2970   -4.6180 C.3   661  PRO661      0.0296
    200  CG       -97.1180  -69.1930   -3.3150 C.3   661  PRO661      0.0237
    201  CD       -97.8680  -68.2030   -2.4410 C.3   661  PRO661      0.0939
    202  N        -97.3840  -67.2440    4.6340 N.3   676  LEU676     -0.1245
    203  CA       -96.1240  -67.8390    4.1040 C.3   676  LEU676      0.1561
    204  C        -95.2910  -68.3440    5.2630 C.2   676  LEU676      0.2260
    205  O        -95.5120  -67.9380    6.4100 O.2   676  LEU676     -0.2867
    206  CB       -95.2970  -66.8670    3.2920 C.3   676  LEU676      0.0270
    207  CG       -96.0100  -66.2360    2.1180 C.3   676  LEU676      0.0019
    208  CD1      -94.9990  -65.4000    1.3300 C.3   676  LEU676      0.0001
    209  CD2      -96.6470  -67.3050    1.2290 C.3   676  LEU676      0.0001
@<TRIPOS>BOND
     1   170   168   am
     2   169   168    2
     3   168   167    1
     4    12    11    2
     5   163   164    1
     6    11    10    1
     7   132   131    2
     8   167   164    1
     9   164   165    1
    10   134   133    1
    11   131   130    1
    12   136   137    1
    13   137   138    1
    14   137   140    1
    15    10    13    1
    16    10     9    1
    17   135   133    1
    18   138   139    2
    19    13    14    1
    20   133   130    1
    21   165   171   am
    22   165   166    2
    23   130   129    1
    24   140   141    1
    25    48    46   ar
    26    48    50   ar
    27    51    50    1
    28   171   172    1
    29    46    45   ar
    30    50    49   ar
    31   129   119   am
    32    14    15   ar
    33    14    16   ar
    34    45    44    1
    35    45    47   ar
    36   128   127    1
    37    49    47   ar
    38    44    41    1
    39   141   142   ar
    40   141   143   ar
    41   174   173    2
    42    15    17   ar
    43   127   125   ar
    44   127   126   ar
    45   172   175    1
    46   172   173    1
    47     1     2    1
    48    16    18   ar
    49   119   118    1
    50   119   120    2
    51    21    22    1
    52   125   123   ar
    53   126   124   ar
    54     2     5    1
    55     2     3    1
    56    22    23    1
    57    22    25    1
    58   173   176   am
    59   118   117    1
    60   118   121    1
    61   123   122   ar
    62   124   122   ar
    63     5     6    1
    64    23    24    2
    65    26    25    1
    66    26    28    1
    67   122   121    1
    68    41    40    1
    69    41    42    1
    70    17    19   ar
    71     3     4    2
    72    18    19   ar
    73    25    27    1
    74   176   177    1
    75    19    20    1
    76    43    42    2
    77    42    52   am
    78     6     7   ar
    79     6     8   ar
    80   177   178    1
    81   177   180    1
    82    32    31    2
    83   178   179    2
    84   183   185   ar
    85   183   181   ar
    86    52    53    1
    87   185   184   ar
    88    31    30    1
    89   193   192   ar
    90   111   110    2
    91   110   109    1
    92   180   181    1
    93   181   182   ar
    94    29    30    1
    95   194   192   ar
    96   192   191    1
    97    53    54    1
    98    53    56    1
    99   144   145    1
   100    55    54    2
   101   184   182   ar
   102    30    33    1
   103    39    37    1
   104    34    33    1
   105    34    35    1
   106   109   108    1
   107   109   112    1
   108    54    60   am
   109    56    57    1
   110    37    36    2
   111    37    38    1
   112    58    57    2
   113   191   190    1
   114    36    35    1
   115    57    59   am
   116   115   114   ar
   117   145   148    1
   118   145   146    1
   119   112   113    1
   120   148   149    1
   121   149   150    1
   122    60    61    1
   123   147   146    2
   124   190   187    1
   125   199   196    1
   126   199   200    1
   127   150   151    1
   128   197   196    1
   129   197   198    2
   130   196   195    1
   131   114   113    1
   132   114   116   ar
   133    85    84    1
   134    61    64    1
   135    61    62    1
   136    74    75   ar
   137    74    72   ar
   138    75    73   ar
   139   187   186    1
   140   187   188    1
   141    64    65    1
   142    86    84    1
   143   200   201    1
   144    84    83    2
   145   195   188   am
   146   195   201    1
   147    62    63    2
   148   155   154    2
   149   188   189    2
   150    72    71   ar
   151    73    71   ar
   152   154   153    1
   153    83    82    1
   154    71    70    1
   155    82    81    1
   156   153   156    1
   157   153   152    1
   158    99    97   ar
   159   156   157    1
   160   157   158    1
   161   106   105    1
   162    70    67    1
   163    81    80    1
   164    97    98   ar
   165    97    96    1
   166   158   159    1
   167    80    77    1
   168    67    66    1
   169    67    68    1
   170   105   104    1
   171   105   107    1
   172   161   160    1
   173    96    95    1
   174   159   160    2
   175   104   101    1
   176   209   207    1
   177   208   207    1
   178    77    78    1
   179    77    76    1
   180    79    78    2
   181    68    69    2
   182   160   162    1
   183    88    89    1
   184    88    87    1
   185   103   102    2
   186    91    89   am
   187    91    92    1
   188   207   206    1
   189   100   101    1
   190   100    93   am
   191    95    92    1
   192   101   102    1
   193    89    90    2
   194    92    93    1
   195    93    94    2
   196   206   203    1
   197   203   202    1
   198   203   204    1
   199   204   205    2
