@<TRIPOS>MOLECULE
tmp/5nqdC03.pdb
 116 113 0 0 0
SMALL
GASTEIGER

@<TRIPOS>ATOM
      1  N       -125.5690  -35.8100  -26.4310 N.3     4  ARG4       -0.1231
      2  CA      -125.5020  -35.4680  -25.0190 C.3     4  ARG4        0.1694
      3  C       -126.2560  -36.3670  -24.0840 C.2     4  ARG4        0.2592
      4  O       -125.9930  -36.3260  -22.9070 O.2     4  ARG4       -0.2718
      5  CB      -125.9740  -34.0320  -24.7920 C.3     4  ARG4        0.0321
      6  CG      -125.1020  -32.9810  -25.4800 C.3     4  ARG4        0.0489
      7  CD      -125.6330  -31.5890  -25.2420 C.3     4  ARG4        0.2205
      8  NE      -124.8680  -30.5560  -25.9490 N.pl3   4  ARG4       -0.0865
      9  CZ      -124.9490  -30.2480  -27.2430 C.cat   4  ARG4        0.5346
     10  NH1     -125.7320  -30.9250  -28.0950 N.pl3   4  ARG4        0.1354
     11  NH2     -124.1880  -29.2670  -27.7280 N.pl3   4  ARG4        0.1354
     12  N       -127.2090  -37.1440  -24.5970 N.am    5  HIS5       -0.1962
     13  CA      -128.1580  -37.9330  -23.7920 C.3     5  HIS5        0.1787
     14  C       -128.7870  -37.1260  -22.6860 C.2     5  HIS5        0.2620
     15  O       -129.1150  -37.6640  -21.6080 O.2     5  HIS5       -0.2715
     16  CB      -127.5440  -39.2390  -23.2230 C.3     5  HIS5        0.0785
     17  CG      -126.9500  -40.1140  -24.2660 C.ar    5  HIS5        0.0821
     18  ND1     -127.6780  -41.0690  -24.9320 N.ar    5  HIS5       -0.2267
     19  CD2     -125.7070  -40.1380  -24.8100 C.ar    5  HIS5        0.1154
     20  CE1     -126.9030  -41.6710  -25.8240 C.ar    5  HIS5        0.1986
     21  NE2     -125.7010  -41.1180  -25.7730 N.ar    5  HIS5       -0.2212
     22  N       -129.0290  -35.8460  -22.9560 N.am    6  ILE6       -0.1963
     23  CA      -129.8200  -35.0550  -22.0580 C.3     6  ILE6        0.1727
     24  C       -131.2740  -35.0930  -22.5500 C.2     6  ILE6        0.2616
     25  O       -131.6130  -34.4190  -23.4940 O.2     6  ILE6       -0.2715
     26  CB      -129.2840  -33.6300  -21.9610 C.3     6  ILE6        0.0290
     27  CG1     -127.8640  -33.6360  -21.3970 C.3     6  ILE6        0.0022
     28  CG2     -130.1410  -32.8420  -20.9920 C.3     6  ILE6        0.0023
     29  CD1     -127.1930  -32.2730  -21.3460 C.3     6  ILE6        0.0001
     30  N       -132.1210  -35.8770  -21.8950 N.am    7  ASP7       -0.1957
     31  CA      -133.5120  -36.0740  -22.3340 C.3     7  ASP7        0.1840
     32  C       -134.4250  -34.9800  -21.8480 C.2     7  ASP7        0.2621
     33  O       -135.5340  -34.9340  -22.2920 O.2     7  ASP7       -0.2715
     34  CB      -134.1860  -37.2780  -21.6670 C.3     7  ASP7        0.1450
     35  CG      -133.3280  -38.4320  -21.5050 C.2     7  ASP7        0.3671
     36  OD1     -132.9780  -39.0550  -22.5320 O.co2   7  ASP7       -0.2456
     37  OD2     -133.0690  -38.7320  -20.3140 O.co2   7  ASP7       -0.2456
     38  N       -134.0810  -34.2550  -20.7860 N.am    8  ARG8       -0.1977
     39  CA      -134.9710  -33.1800  -20.3270 C.3     8  ARG8        0.1597
     40  C       -134.2210  -32.1030  -19.6180 C.2     8  ARG8        0.2287
     41  O       -133.2150  -32.3820  -18.9820 O.2     8  ARG8       -0.2864
     42  CB      -136.1290  -33.6820  -19.4370 C.3     8  ARG8        0.0334
     43  CG      -135.7330  -34.0540  -18.0540 C.3     8  ARG8        0.0492
     44  CD      -136.9050  -34.5660  -17.2570 C.3     8  ARG8        0.2205
     45  NE      -136.3450  -35.4600  -16.2450 N.pl3   8  ARG8       -0.0865
     46  CZ      -137.0200  -36.3550  -15.5460 C.cat   8  ARG8        0.5346
     47  NH1     -138.3460  -36.4840  -15.6480 N.pl3   8  ARG8        0.1354
     48  NH2     -136.3560  -37.1190  -14.6950 N.pl3   8  ARG8        0.1354
     49  N       -134.4610  -28.5070  -17.0670 N.3    10  PRO10      -0.2116
     50  CA      -135.3000  -27.7520  -16.1510 C.3    10  PRO10       0.1372
     51  C       -136.0560  -26.6550  -16.8850 C.2    10  PRO10       0.2244
     52  O       -135.5540  -26.0770  -17.8250 O.2    10  PRO10      -0.2868
     53  CB      -134.2970  -27.1550  -15.1630 C.3    10  PRO10       0.0268
     54  CG      -133.1540  -28.0740  -15.1880 C.3    10  PRO10       0.0207
     55  CD      -133.0550  -28.5050  -16.6260 C.3    10  PRO10       0.0892
     56  N       -130.9680  -23.1080   -7.7280 N.3    39  ILE39      -0.1245
     57  CA      -130.7750  -24.5790   -7.9360 C.3    39  ILE39       0.1561
     58  C       -131.8720  -25.1120   -7.0540 C.2    39  ILE39       0.2260
     59  O       -132.2650  -24.3980   -6.1630 O.2    39  ILE39      -0.2867
     60  CB      -129.3350  -24.9820   -7.4330 C.3    39  ILE39       0.0252
     61  CG1     -128.8420  -26.3080   -8.0080 C.3    39  ILE39       0.0019
     62  CG2     -129.2160  -24.9850   -5.8910 C.3    39  ILE39       0.0019
     63  CD1     -128.5370  -26.2280   -9.4760 C.3    39  ILE39       0.0001
     64  N       -128.5190  -24.4500  -21.8000 N.3    73  TYR73      -0.1241
     65  CA      -128.7680  -24.6420  -20.3620 C.3    73  TYR73       0.1605
     66  C       -127.4860  -24.9950  -19.6270 C.2    73  TYR73       0.2264
     67  O       -126.6560  -25.7380  -20.1460 O.2    73  TYR73      -0.2867
     68  CB      -129.7910  -25.7670  -20.1110 C.3    73  TYR73       0.0534
     69  CG      -129.8550  -26.1530  -18.6650 C.ar   73  TYR73      -0.0201
     70  CD1     -130.5200  -25.3680  -17.7640 C.ar   73  TYR73      -0.0009
     71  CD2     -129.1780  -27.2850  -18.1810 C.ar   73  TYR73      -0.0009
     72  CE1     -130.5780  -25.7050  -16.4140 C.ar   73  TYR73       0.0417
     73  CE2     -129.1810  -27.6110  -16.8210 C.ar   73  TYR73       0.0417
     74  CZ      -129.8940  -26.8270  -15.9450 C.ar   73  TYR73       0.1957
     75  OH      -129.9210  -27.1170  -14.5860 O.3    73  TYR73      -0.2866
     76  N       -125.6240  -24.8010  -15.1430 N.3    75  VAL75      -0.1245
     77  CA      -125.6370  -24.2890  -13.7680 C.3    75  VAL75       0.1561
     78  C       -124.3530  -23.5050  -13.5040 C.2    75  VAL75       0.2260
     79  O       -123.2750  -24.0040  -13.7450 O.2    75  VAL75      -0.2867
     80  CB      -125.7870  -25.4240  -12.7580 C.3    75  VAL75       0.0252
     81  CG1     -125.5320  -24.9650  -11.3370 C.3    75  VAL75       0.0019
     82  CG2     -127.1910  -25.9960  -12.8370 C.3    75  VAL75       0.0019
     83  N       -129.4470  -22.1330  -11.8020 N.3    84  HIS84      -0.1241
     84  CA      -129.7370  -22.6090  -13.1470 C.3    84  HIS84       0.1621
     85  C       -129.6250  -21.3930  -14.0690 C.2    84  HIS84       0.2264
     86  O       -129.8790  -20.2830  -13.6580 O.2    84  HIS84      -0.2867
     87  CB      -131.1860  -23.1440  -13.2510 C.3    84  HIS84       0.0745
     88  CG      -131.4840  -24.3540  -12.4010 C.ar   84  HIS84       0.0817
     89  ND1     -131.1950  -25.6390  -12.7990 N.ar   84  HIS84      -0.2268
     90  CD2     -132.0830  -24.4730  -11.1920 C.ar   84  HIS84       0.1154
     91  CE1     -131.5990  -26.4970  -11.8760 C.ar   84  HIS84       0.1986
     92  NE2     -132.1320  -25.8150  -10.8890 N.ar   84  HIS84      -0.2212
     93  N       -120.7250  -27.3690  -11.0760 N.3   115  ALA115     -0.1231
     94  CA      -121.7500  -28.3850  -10.8820 C.3   115  ALA115      0.1694
     95  C       -121.8570  -29.2940  -12.0850 C.2   115  ALA115      0.2592
     96  O       -121.9580  -30.4750  -11.9290 O.2   115  ALA115     -0.2718
     97  CB      -123.0660  -27.7280  -10.6370 C.3   115  ALA115      0.0304
     98  N       -121.7870  -28.7710  -13.3010 N.am  116  ARG116     -0.1966
     99  CA      -121.9450  -29.6450  -14.4550 C.3   116  ARG116      0.1729
    100  C       -120.6490  -29.9250  -15.2570 C.2   116  ARG116      0.2616
    101  O       -120.7160  -30.5630  -16.3290 O.2   116  ARG116     -0.2715
    102  CB      -123.0870  -29.1230  -15.3600 C.3   116  ARG116      0.0348
    103  CG      -124.4280  -28.9970  -14.6130 C.3   116  ARG116      0.0492
    104  CD      -125.5560  -28.4310  -15.4480 C.3   116  ARG116      0.2205
    105  NE      -126.1860  -29.4610  -16.2690 N.pl3 116  ARG116     -0.0865
    106  CZ      -126.1030  -29.5730  -17.5890 C.cat 116  ARG116      0.5346
    107  NH1     -125.4180  -28.6910  -18.3550 N.pl3 116  ARG116      0.1354
    108  NH2     -126.7390  -30.5920  -18.1520 N.pl3 116  ARG116      0.1354
    109  N       -119.5060  -29.4690  -14.7330 N.am  117  ASN117     -0.1972
    110  CA      -118.1720  -29.7490  -15.2700 C.3   117  ASN117      0.1688
    111  C       -117.9430  -29.2180  -16.6760 C.2   117  ASN117      0.2292
    112  O       -117.3090  -29.8880  -17.5000 O.2   117  ASN117     -0.2864
    113  CB      -117.8410  -31.2450  -15.2530 C.3   117  ASN117      0.1181
    114  CG      -117.8400  -31.8290  -13.8580 C.2   117  ASN117      0.2629
    115  OD1     -118.6000  -32.7270  -13.5470 O.2   117  ASN117     -0.2716
    116  ND2     -116.9680  -31.3300  -13.0280 N.am  117  ASN117     -0.0877
@<TRIPOS>BOND
     1    10     9    1
     2    11     9    1
     3     9     8    2
     4     1     2    1
     5     8     7    1
     6    20    21   ar
     7    20    18   ar
     8    21    19   ar
     9     6     7    1
    10     6     5    1
    11     2     5    1
    12     2     3    1
    13    18    17   ar
    14    19    17   ar
    15    12     3   am
    16    12    13    1
    17    17    16    1
    18     3     4    2
    19    13    16    1
    20    13    14    1
    21    25    24    2
    22    22    14   am
    23    22    23    1
    24    14    15    2
    25    24    23    1
    26    24    30   am
    27    36    35   ar
    28    31    30    1
    29    31    32    1
    30    31    34    1
    31    33    32    2
    32    23    26    1
    33    26    27    1
    34    26    28    1
    35    32    38   am
    36    64    65    1
    37    34    35    1
    38    35    37   ar
    39    27    29    1
    40    38    39    1
    41    65    68    1
    42    65    66    1
    43    39    40    1
    44    39    42    1
    45    67    66    2
    46    68    69    1
    47    40    41    2
    48    42    43    1
    49    69    71   ar
    50    69    70   ar
    51   107   106    1
    52    71    73   ar
    53   108   106    1
    54    43    44    1
    55    52    51    2
    56    70    72   ar
    57   106   105    2
    58   112   111    2
    59    44    45    1
    60    49    55    1
    61    49    50    1
    62    51    50    1
    63    73    74   ar
    64   111   110    1
    65    55    54    1
    66    72    74   ar
    67   101   100    2
    68   105   104    1
    69    45    46    2
    70    50    53    1
    71    74    75    1
    72    47    46    1
    73    46    48    1
    74   104   103    1
    75   102   103    1
    76   102    99    1
    77   110   113    1
    78   110   109    1
    79   100   109   am
    80   100    99    1
    81   113   114    1
    82    54    53    1
    83    76    77    1
    84    99    98    1
    85    85    86    2
    86    85    84    1
    87   114   115    2
    88   114   116   am
    89    77    78    1
    90    77    80    1
    91    79    78    2
    92    98    95   am
    93    87    84    1
    94    87    88    1
    95    84    83    1
    96    82    80    1
    97    89    88   ar
    98    89    91   ar
    99    80    81    1
   100    88    90   ar
   101    95    96    2
   102    95    94    1
   103    91    92   ar
   104    90    92   ar
   105    93    94    1
   106    94    97    1
   107    63    61    1
   108    61    60    1
   109    57    56    1
   110    57    60    1
   111    57    58    1
   112    60    62    1
   113    58    59    2
