@<TRIPOS>MOLECULE
tmp/5nqeB00.pdb
 152 152 0 0 0
SMALL
GASTEIGER

@<TRIPOS>ATOM
      1  N          7.5470   31.0470   17.4890 N.3    70  PHE70      -0.1227
      2  CA         7.5130   30.4360   16.1730 C.3    70  PHE70       0.1736
      3  C          6.2980   29.5500   15.9610 C.2    70  PHE70       0.2595
      4  O          5.7890   28.9630   16.9050 O.2    70  PHE70      -0.2718
      5  CB         8.7910   29.6060   15.9570 C.3    70  PHE70       0.0547
      6  CG        10.0190   30.4680   15.8970 C.ar   70  PHE70      -0.0202
      7  CD1       10.4030   31.0780   14.7050 C.ar   70  PHE70      -0.0042
      8  CD2       10.7600   30.7250   17.0380 C.ar   70  PHE70      -0.0042
      9  CE1       11.5130   31.9110   14.6590 C.ar   70  PHE70      -0.0003
     10  CE2       11.8800   31.5510   16.9870 C.ar   70  PHE70      -0.0003
     11  CZ        12.2560   32.1270   15.7970 C.ar   70  PHE70      -0.0000
     12  N          5.8600   29.4460   14.7040 N.am   71  HIS71      -0.1961
     13  CA         4.7460   28.6150   14.2470 C.3    71  HIS71       0.1787
     14  C          5.0370   28.0900   12.8510 C.2    71  HIS71       0.2620
     15  O          5.0660   28.8560   11.8980 O.2    71  HIS71      -0.2715
     16  CB         3.3930   29.3550   14.2620 C.3    71  HIS71       0.0785
     17  CG         2.2270   28.4560   13.9590 C.ar   71  HIS71       0.0821
     18  ND1        1.5370   27.8010   14.9690 N.ar   71  HIS71      -0.2267
     19  CD2        1.6920   28.1040   12.7620 C.ar   71  HIS71       0.1154
     20  CE1        0.5910   27.1050   14.3600 C.ar   71  HIS71       0.1986
     21  NE2        0.6450   27.2520   13.0290 N.ar   71  HIS71      -0.2212
     22  N          5.2410   26.7870   12.7740 N.am   72  GLY72      -0.1954
     23  CA         5.4590   26.0440   11.5510 C.3    72  GLY72       0.1869
     24  C          4.1140   25.6490   10.9910 C.2    72  GLY72       0.2309
     25  O          3.2530   25.1560   11.7210 O.2    72  GLY72      -0.2863
     26  N         -0.8830   26.6060   18.6970 N.3    93  TYR93      -0.1227
     27  CA         0.3830   26.3130   19.3390 C.3    93  TYR93       0.1736
     28  C          1.4950   27.2300   18.8530 C.2    93  TYR93       0.2595
     29  O          1.5400   27.5950   17.6740 O.2    93  TYR93      -0.2718
     30  CB         0.7680   24.8450   19.1000 C.3    93  TYR93       0.0548
     31  CG        -0.1390   23.8180   19.7360 C.ar   93  TYR93      -0.0200
     32  CD1       -0.1920   23.6670   21.1180 C.ar   93  TYR93      -0.0009
     33  CD2       -0.8390   22.9080   18.9580 C.ar   93  TYR93      -0.0009
     34  CE1       -0.9870   22.6850   21.7100 C.ar   93  TYR93       0.0417
     35  CE2       -1.6350   21.9180   19.5360 C.ar   93  TYR93       0.0417
     36  CZ        -1.7120   21.8140   20.9130 C.ar   93  TYR93       0.1957
     37  OH        -2.5120   20.8500   21.4800 O.3    93  TYR93      -0.2866
     38  N          2.3960   27.6060   19.7720 N.am   94  PHE94      -0.1962
     39  CA         3.5430   28.4740   19.4720 C.3    94  PHE94       0.1771
     40  C          4.7590   27.9880   20.2120 C.2    94  PHE94       0.2619
     41  O          4.6540   27.7130   21.4090 O.2    94  PHE94      -0.2715
     42  CB         3.2490   29.9460   19.8250 C.3    94  PHE94       0.0574
     43  CG         2.1290   30.5200   19.0050 C.ar   94  PHE94      -0.0200
     44  CD1        2.3410   30.9090   17.6890 C.ar   94  PHE94      -0.0042
     45  CD2        0.8390   30.6120   19.5290 C.ar   94  PHE94      -0.0042
     46  CE1        1.2950   31.4090   16.9210 C.ar   94  PHE94      -0.0003
     47  CE2       -0.2090   31.1060   18.7580 C.ar   94  PHE94      -0.0003
     48  CZ         0.0280   31.5110   17.4620 C.ar   94  PHE94      -0.0000
     49  N          5.8990   27.8560   19.5040 N.am   95  ALA95      -0.1977
     50  CA         7.1430   27.3820   20.0840 C.3    95  ALA95       0.1597
     51  C          8.0670   28.5330   20.4240 C.2    95  ALA95       0.2287
     52  O          8.2020   29.4400   19.6250 O.2    95  ALA95      -0.2864
     53  CB         7.8340   26.4320   19.1290 C.3    95  ALA95       0.0319
     54  N         11.6950   23.5670   17.1890 N.3   100  TYR100     -0.1227
     55  CA        10.4620   22.8920   17.5950 C.3   100  TYR100      0.1736
     56  C          9.4640   22.9790   16.4290 C.2   100  TYR100      0.2596
     57  O          8.9130   21.9630   15.9910 O.2   100  TYR100     -0.2718
     58  CB         9.8850   23.5280   18.8800 C.3   100  TYR100      0.0548
     59  CG         8.8050   22.6790   19.5130 C.ar  100  TYR100     -0.0200
     60  CD1        7.5340   22.5920   18.9480 C.ar  100  TYR100     -0.0009
     61  CD2        9.0740   21.8970   20.6300 C.ar  100  TYR100     -0.0009
     62  CE1        6.5600   21.7490   19.4830 C.ar  100  TYR100      0.0417
     63  CE2        8.0970   21.0750   21.1910 C.ar  100  TYR100      0.0417
     64  CZ         6.8400   21.0090   20.6180 C.ar  100  TYR100      0.1957
     65  OH         5.8840   20.1950   21.1720 O.3   100  TYR100     -0.2866
     66  N          9.2870   24.2150   15.9120 N.am  101  SER101     -0.1952
     67  CA         8.4330   24.5890   14.7840 C.3   101  SER101      0.1924
     68  C          8.9950   24.1100   13.4300 C.2   101  SER101      0.2314
     69  O          8.2340   23.9960   12.4710 O.2   101  SER101     -0.2863
     70  CB         8.2700   26.1000   14.7470 C.3   101  SER101      0.2116
     71  OG         7.6690   26.5740   15.9390 O.3   101  SER101     -0.2180
     72  N          4.9540   19.9610   11.7100 N.3   106  TYR106     -0.1241
     73  CA         4.4450   21.3210   11.8160 C.3   106  TYR106      0.1605
     74  C          4.7890   22.1540   10.5500 C.2   106  TYR106      0.2264
     75  O          3.8670   22.6190    9.8690 O.2   106  TYR106     -0.2867
     76  CB         4.9930   21.9540   13.0980 C.3   106  TYR106      0.0534
     77  CG         4.9400   21.0240   14.3010 C.ar  106  TYR106     -0.0201
     78  CD1        3.7330   20.4690   14.7310 C.ar  106  TYR106     -0.0009
     79  CD2        6.0860   20.7280   15.0270 C.ar  106  TYR106     -0.0009
     80  CE1        3.6760   19.6200   15.8400 C.ar  106  TYR106      0.0417
     81  CE2        6.0460   19.8700   16.1310 C.ar  106  TYR106      0.0417
     82  CZ         4.8370   19.3200   16.5400 C.ar  106  TYR106      0.1957
     83  OH         4.7950   18.4860   17.6430 O.3   106  TYR106     -0.2866
     84  N          0.4690   26.2470   33.8170 N.3   129  HIS129     -0.1226
     85  CA         0.7800   24.9470   33.2420 C.3   129  HIS129      0.1752
     86  C         -0.5060   24.3260   32.6830 C.2   129  HIS129      0.2597
     87  O         -1.5370   24.3560   33.3550 O.2   129  HIS129     -0.2718
     88  CB         1.4360   24.0410   34.2980 C.3   129  HIS129      0.0759
     89  CG         1.5860   22.6200   33.8590 C.ar  129  HIS129      0.0818
     90  ND1        2.6480   22.2200   33.0720 N.ar  129  HIS129     -0.2268
     91  CD2        0.7760   21.5550   34.0770 C.ar  129  HIS129      0.1154
     92  CE1        2.4550   20.9310   32.8340 C.ar  129  HIS129      0.1986
     93  NE2        1.3440   20.4850   33.4240 N.ar  129  HIS129     -0.2212
     94  N         -0.4780   23.8690   31.4510 N.am  130  GLY130     -0.1942
     95  CA        -1.6450   23.2700   30.8510 C.3   130  GLY130      0.2014
     96  C         -1.3450   21.8920   30.3080 C.2   130  GLY130      0.2639
     97  O         -0.3610   21.6960   29.6050 O.2   130  GLY130     -0.2714
     98  N         -2.2220   20.9460   30.6080 N.am  131  ASN131     -0.1958
     99  CA        -2.0420   19.5540   30.2230 C.3   131  ASN131      0.1819
    100  C         -2.3620   19.2930   28.7570 C.2   131  ASN131      0.2621
    101  O         -2.9680   20.1350   28.0900 O.2   131  ASN131     -0.2715
    102  CB        -2.9280   18.6680   31.1030 C.3   131  ASN131      0.1195
    103  CG        -4.3450   19.2320   31.2850 C.2   131  ASN131      0.2630
    104  OD1       -5.0350   19.5440   30.3080 O.2   131  ASN131     -0.2716
    105  ND2       -4.7870   19.3440   32.5460 N.am  131  ASN131     -0.0877
    106  N         -1.9830   18.1240   28.2510 N.am  132  HIS132     -0.1973
    107  CA        -2.3840   17.7800   26.8920 C.3   132  HIS132      0.1656
    108  C         -3.8020   17.5060   26.4440 C.2   132  HIS132      0.2291
    109  O         -4.0530   16.9460   25.3730 O.2   132  HIS132     -0.2864
    110  CB        -1.3790   16.8750   26.1530 C.3   132  HIS132      0.0771
    111  CG        -1.5190   15.3810   26.4350 C.ar  132  HIS132      0.0820
    112  ND1       -2.1760   14.5430   25.6020 N.ar  132  HIS132     -0.2267
    113  CD2       -1.0470   14.5970   27.4870 C.ar  132  HIS132      0.1154
    114  CE1       -2.1310   13.2980   26.1040 C.ar  132  HIS132      0.1986
    115  NE2       -1.4410   13.3340   27.2570 N.ar  132  HIS132     -0.2212
    116  N         -1.5180   29.0380   28.0420 N.3   152  VAL152     -0.1231
    117  CA        -1.0500   27.9080   28.8440 C.3   152  VAL152      0.1692
    118  C          0.2630   27.4820   28.2420 C.2   152  VAL152      0.2593
    119  O          0.3980   27.4770   27.0100 O.2   152  VAL152     -0.2718
    120  CB        -2.0020   26.7100   29.0790 C.3   152  VAL152      0.0266
    121  CG1       -3.1500   27.0940   29.9830 C.3   152  VAL152      0.0020
    122  CG2       -2.5040   26.0980   27.7840 C.3   152  VAL152      0.0020
    123  N          1.2370   27.1690   29.1050 N.am  153  THR153     -0.1939
    124  CA         2.5670   26.7560   28.6830 C.3   153  THR153      0.2028
    125  C          2.8940   25.3310   29.1980 C.2   153  THR153      0.2642
    126  O          2.1560   24.7760   30.0250 O.2   153  THR153     -0.2714
    127  CB         3.5780   27.8060   29.1390 C.3   153  THR153      0.1808
    128  OG1        4.8380   27.5740   28.5030 O.3   153  THR153     -0.2208
    129  CG2        3.7050   27.8770   30.6520 C.3   153  THR153      0.0379
    130  N          4.0000   24.7390   28.6990 N.am  154  ASP154     -0.1971
    131  CA         4.4230   23.4060   29.1260 C.3   154  ASP154      0.1709
    132  C          5.0630   23.4730   30.5400 C.2   154  ASP154      0.2293
    133  O          4.8430   22.5900   31.3650 O.2   154  ASP154     -0.2864
    134  CB         5.3820   22.7780   28.0870 C.3   154  ASP154      0.1436
    135  CG         6.7110   23.4880   27.9140 C.2   154  ASP154      0.3671
    136  OD1        6.7200   24.7400   27.9140 O.co2 154  ASP154     -0.2456
    137  OD2        7.7470   22.7890   27.8100 O.co2 154  ASP154     -0.2456
    138  N          6.7590   25.8740   24.8800 N.3   161  LEU161     -0.1245
    139  CA         5.6120   25.9750   23.9890 C.3   161  LEU161      0.1561
    140  C          4.4340   26.6460   24.7190 C.2   161  LEU161      0.2260
    141  O          4.3210   26.5340   25.9330 O.2   161  LEU161     -0.2867
    142  CB         5.2320   24.6300   23.3460 C.3   161  LEU161      0.0270
    143  CG         4.5240   23.6110   24.1800 C.3   161  LEU161      0.0019
    144  CD1        3.0830   23.4940   23.7380 C.3   161  LEU161      0.0001
    145  CD2        5.2050   22.2790   24.0490 C.3   161  LEU161      0.0001
    146  N          0.0480   27.9230   24.3150 N.3   163  VAL163     -0.1245
    147  CA        -1.2360   27.7010   23.6540 C.3   163  VAL163      0.1561
    148  C         -2.0780   28.9860   23.7810 C.2   163  VAL163      0.2260
    149  O         -2.5070   29.3100   24.8810 O.2   163  VAL163     -0.2867
    150  CB        -2.0160   26.4440   24.1490 C.3   163  VAL163      0.0252
    151  CG1       -3.1070   26.0600   23.1610 C.3   163  VAL163      0.0019
    152  CG2       -1.0890   25.2550   24.4030 C.3   163  VAL163      0.0019
@<TRIPOS>BOND
     1    75    74    2
     2    74    73    1
     3    24    23    1
     4    24    25    2
     5    23    22    1
     6    72    73    1
     7    73    76    1
     8    15    14    2
     9    69    68    2
    10    19    21   ar
    11    19    17   ar
    12    22    14   am
    13    14    13    1
    14    21    20   ar
    15    76    77    1
    16    68    67    1
    17    17    16    1
    18    17    18   ar
    19    13    16    1
    20    13    12    1
    21    77    78   ar
    22    77    79   ar
    23    20    18   ar
    24     9     7   ar
    25     9    11   ar
    26    12     3   am
    27     7     6   ar
    28    78    80   ar
    29    70    67    1
    30    70    71    1
    31    67    66    1
    32    79    81   ar
    33    11    10   ar
    34    80    82   ar
    35     6     5    1
    36     6     8   ar
    37    66    56   am
    38     5     2    1
    39     3     2    1
    40     3     4    2
    41    57    56    2
    42    81    82   ar
    43     2     1    1
    44    56    55    1
    45    82    83    1
    46    46    48   ar
    47    46    44   ar
    48    10     8   ar
    49    54    55    1
    50    48    47   ar
    51    55    58    1
    52    29    28    2
    53    44    43   ar
    54    26    27    1
    55    47    45   ar
    56    28    27    1
    57    28    38   am
    58    58    59    1
    59    60    62   ar
    60    60    59   ar
    61    33    35   ar
    62    33    31   ar
    63    43    45   ar
    64    43    42    1
    65    30    27    1
    66    30    31    1
    67    53    50    1
    68    39    38    1
    69    39    42    1
    70    39    40    1
    71    62    64   ar
    72    49    50    1
    73    49    40   am
    74    59    61   ar
    75    35    36   ar
    76    52    51    2
    77    31    32   ar
    78    50    51    1
    79    40    41    2
    80    64    65    1
    81    64    63   ar
    82    61    63   ar
    83    36    37    1
    84    36    34   ar
    85    32    34   ar
    86   151   150    1
    87   142   139    1
    88   142   143    1
    89   147   148    1
    90   147   150    1
    91   147   146    1
    92   144   143    1
    93   148   149    2
    94   139   140    1
    95   139   138    1
    96   145   143    1
    97   150   152    1
    98   140   141    2
    99   109   108    2
   100   112   114   ar
   101   112   111   ar
   102   114   115   ar
   103   110   111    1
   104   110   107    1
   105   111   113   ar
   106   108   107    1
   107   107   106    1
   108   119   118    2
   109   115   113   ar
   110   122   120    1
   111   137   135   ar
   112   135   136   ar
   113   135   134    1
   114   116   117    1
   115   134   131    1
   116   101   100    2
   117   118   117    1
   118   118   123   am
   119   106   100   am
   120   128   127    1
   121   124   123    1
   122   124   127    1
   123   124   125    1
   124   130   131    1
   125   130   125   am
   126   100    99    1
   127   117   120    1
   128   120   121    1
   129   131   132    1
   130   127   129    1
   131   125   126    2
   132    97    96    2
   133    99    98    1
   134    99   102    1
   135   104   103    2
   136    96    98   am
   137    96    95    1
   138   132   133    2
   139    95    94    1
   140   102   103    1
   141   103   105   am
   142    94    86   am
   143    86    85    1
   144    86    87    2
   145    92    90   ar
   146    92    93   ar
   147    90    89   ar
   148    85    84    1
   149    85    88    1
   150    93    91   ar
   151    89    91   ar
   152    89    88    1
