@<TRIPOS>MOLECULE
tmp/5nqqD01.pdb
 84 76 0 0 0
SMALL
GASTEIGER

@<TRIPOS>ATOM
      1  N         13.7900  -33.3870   42.3590 N.3    98  ARG98      -0.1245
      2  CA        13.0590  -33.7270   43.5810 C.3    98  ARG98       0.1563
      3  C         13.7860  -34.8170   44.3690 C.2    98  ARG98       0.2260
      4  O         14.3840  -35.7250   43.7850 O.2    98  ARG98      -0.2867
      5  CB        11.6410  -34.1830   43.2380 C.3    98  ARG98       0.0307
      6  CG        10.8340  -33.2180   42.3670 C.3    98  ARG98       0.0489
      7  CD         9.9840  -32.2640   43.1970 C.3    98  ARG98       0.2205
      8  NE        10.7900  -31.3180   43.9630 N.pl3  98  ARG98      -0.0865
      9  CZ        11.3710  -30.2440   43.4520 C.cat  98  ARG98       0.5346
     10  NH1       11.2350  -29.9640   42.1650 N.pl3  98  ARG98       0.1354
     11  NH2       12.0660  -29.4270   44.2280 N.pl3  98  ARG98       0.1354
     12  N         17.3120  -24.3300   44.3690 N.3   137  ASN137     -0.1240
     13  CA        17.8990  -24.6120   45.6840 C.3   137  ASN137      0.1653
     14  C         18.8450  -25.8360   45.6590 C.2   137  ASN137      0.2266
     15  O         18.6540  -26.7470   44.8620 O.2   137  ASN137     -0.2867
     16  CB        16.7860  -24.8480   46.7000 C.3   137  ASN137      0.1155
     17  CG        16.2740  -23.5580   47.3030 C.2   137  ASN137      0.2627
     18  OD1       17.0530  -22.7040   47.7500 O.2   137  ASN137     -0.2716
     19  ND2       14.9700  -23.4040   47.3110 N.am  137  ASN137     -0.0877
     20  N         14.0690  -12.7490   48.8650 N.3   164  LEU164     -0.1231
     21  CA        12.7300  -13.0550   49.3450 C.3   164  LEU164      0.1693
     22  C         12.6800  -13.1170   50.8670 C.2   164  LEU164      0.2592
     23  O         11.6880  -12.6770   51.4630 O.2   164  LEU164     -0.2718
     24  CB        12.2200  -14.3470   48.7130 C.3   164  LEU164      0.0284
     25  CG        10.8610  -14.8310   49.2230 C.3   164  LEU164      0.0019
     26  CD1        9.8360  -13.7380   49.0400 C.3   164  LEU164      0.0001
     27  CD2       10.4110  -16.1100   48.4850 C.3   164  LEU164      0.0001
     28  N         13.7150  -13.6640   51.5160 N.am  165  ASP165     -0.1974
     29  CA        13.7430  -13.6830   52.9860 C.3   165  ASP165      0.1709
     30  C         13.6070  -12.2750   53.5660 C.2   165  ASP165      0.2293
     31  O         12.8780  -12.0690   54.5440 O.2   165  ASP165     -0.2864
     32  CB        15.0330  -14.3100   53.5400 C.3   165  ASP165      0.1436
     33  CG        15.1750  -15.8140   53.2550 C.2   165  ASP165      0.3671
     34  OD1       14.1580  -16.5270   53.1950 O.co2 165  ASP165     -0.2456
     35  OD2       16.3290  -16.2960   53.1790 O.co2 165  ASP165     -0.2456
     36  N          9.9370  -11.1550   53.0970 N.3   168  ARG168     -0.1245
     37  CA         9.1040  -11.7780   54.1270 C.3   168  ARG168      0.1563
     38  C          9.2960  -11.1060   55.4820 C.2   168  ARG168      0.2260
     39  O          8.3380  -10.8970   56.2280 O.2   168  ARG168     -0.2867
     40  CB         9.4460  -13.2680   54.2490 C.3   168  ARG168      0.0307
     41  CG         8.9220  -14.1260   53.1170 C.3   168  ARG168      0.0489
     42  CD         9.4050  -15.5850   53.2560 C.3   168  ARG168      0.2205
     43  NE         8.7140  -16.4910   52.3350 N.pl3 168  ARG168     -0.0865
     44  CZ         9.3200  -17.4060   51.5740 C.cat 168  ARG168      0.5346
     45  NH1        8.6120  -18.1990   50.7730 N.pl3 168  ARG168      0.1354
     46  NH2       10.6270  -17.5430   51.5990 N.pl3 168  ARG168      0.1354
     47  N         21.0680  -18.2520   52.4570 N.3   192  HIS192     -0.1241
     48  CA        19.6340  -18.4790   52.3820 C.3   192  HIS192      0.1621
     49  C         19.3360  -19.7810   53.1220 C.2   192  HIS192      0.2264
     50  O         20.0070  -20.7930   52.9110 O.2   192  HIS192     -0.2867
     51  CB        19.1730  -18.5290   50.9200 C.3   192  HIS192      0.0745
     52  CG        17.7330  -18.8960   50.7230 C.ar  192  HIS192      0.0817
     53  ND1       16.6910  -18.1680   51.2570 N.ar  192  HIS192     -0.2268
     54  CD2       17.1630  -19.9080   50.0260 C.ar  192  HIS192      0.1154
     55  CE1       15.5430  -18.7190   50.9030 C.ar  192  HIS192      0.1986
     56  NE2       15.8030  -19.7760   50.1590 N.ar  192  HIS192     -0.2212
     57  N          8.9290  -20.8820   54.2490 N.3   237  ALA237     -0.1245
     58  CA         8.8040  -21.7590   53.0910 C.3   237  ALA237      0.1562
     59  C          8.3390  -23.1600   53.4950 C.2   237  ALA237      0.2260
     60  O          7.5210  -23.7680   52.8000 O.2   237  ALA237     -0.2867
     61  CB        10.1200  -21.8270   52.3330 C.3   237  ALA237      0.0290
     62  N          4.9090  -24.9430   52.1940 N.3   241  ILE241     -0.1245
     63  CA         4.9990  -26.2690   51.5880 C.3   241  ILE241      0.1561
     64  C          4.1040  -27.2640   52.3210 C.2   241  ILE241      0.2260
     65  O          3.4550  -28.1120   51.6970 O.2   241  ILE241     -0.2867
     66  CB         6.4670  -26.7300   51.5730 C.3   241  ILE241      0.0252
     67  CG1        7.2330  -25.9140   50.5190 C.3   241  ILE241      0.0019
     68  CG2        6.5880  -28.2630   51.3250 C.3   241  ILE241      0.0019
     69  CD1        8.7340  -26.0490   50.5730 C.3   241  ILE241      0.0001
     70  N          5.9970  -23.5990   47.1620 N.3   247  THR247     -0.1218
     71  CA         5.8230  -22.1470   47.1300 C.3   247  THR247      0.1862
     72  C          6.1270  -21.6390   45.7290 C.2   247  THR247      0.2287
     73  O          6.8570  -22.2760   44.9650 O.2   247  THR247     -0.2866
     74  CB         6.7080  -21.3890   48.1160 C.3   247  THR247      0.1770
     75  OG1        8.0030  -21.2290   47.5260 O.3   247  THR247     -0.2211
     76  CG2        6.8200  -22.1120   49.4440 C.3   247  THR247      0.0375
     77  N          8.2410  -15.9550   45.4440 N.3   251  ILE251     -0.1245
     78  CA         9.5310  -16.0570   44.7730 C.3   251  ILE251      0.1561
     79  C          9.4360  -15.4870   43.3700 C.2   251  ILE251      0.2260
     80  O         10.3540  -14.8080   42.9060 O.2   251  ILE251     -0.2867
     81  CB        10.0720  -17.5090   44.7710 C.3   251  ILE251      0.0252
     82  CG1       11.4230  -17.5850   44.0530 C.3   251  ILE251      0.0019
     83  CG2        9.2130  -18.4450   44.0520 C.3   251  ILE251      0.0019
     84  CD1       12.5670  -16.7800   44.7690 C.3   251  ILE251      0.0001
@<TRIPOS>BOND
     1    10     9    1
     2     1     2    1
     3     6     7    1
     4     6     5    1
     5    80    79    2
     6     7     8    1
     7     5     2    1
     8    79    78    1
     9     9     8    2
    10     9    11    1
    11     2     3    1
    12     4     3    2
    13    83    81    1
    14    82    84    1
    15    82    81    1
    16    12    13    1
    17    81    78    1
    18    78    77    1
    19    15    14    2
    20    73    72    2
    21    14    13    1
    22    13    16    1
    23    72    71    1
    24    16    17    1
    25    71    70    1
    26    71    74    1
    27    17    19   am
    28    17    18    2
    29    75    74    1
    30    74    76    1
    31    27    25    1
    32    24    25    1
    33    24    21    1
    34    20    21    1
    35    26    25    1
    36    21    22    1
    37    54    56   ar
    38    54    52   ar
    39    56    55   ar
    40    67    69    1
    41    67    66    1
    42    52    51    1
    43    52    53   ar
    44    45    44    1
    45    22    23    2
    46    22    28   am
    47    55    53   ar
    48    51    48    1
    49    68    66    1
    50    28    29    1
    51    66    63    1
    52    44    46    1
    53    44    43    2
    54    63    62    1
    55    63    64    1
    56    65    64    2
    57    61    58    1
    58    43    42    1
    59    48    47    1
    60    48    49    1
    61    60    59    2
    62    50    49    2
    63    29    32    1
    64    29    30    1
    65    58    59    1
    66    58    57    1
    67    36    37    1
    68    41    42    1
    69    41    40    1
    70    35    33   ar
    71    34    33   ar
    72    33    32    1
    73    30    31    2
    74    37    40    1
    75    37    38    1
    76    38    39    2
