@<TRIPOS>MOLECULE
tmp/5nqrA00.pdb
 138 131 0 0 0
SMALL
GASTEIGER

@<TRIPOS>ATOM
      1  N         85.4620   20.8220  115.5150 N.3    15  TRP15      -0.1227
      2  CA        84.7300   20.6790  114.2660 C.3    15  TRP15       0.1737
      3  C         83.2980   21.1740  114.3390 C.2    15  TRP15       0.2595
      4  O         82.7650   21.7030  113.3660 O.2    15  TRP15      -0.2718
      5  CB        84.7110   19.2190  113.8390 C.3    15  TRP15       0.0564
      6  CG        86.0520   18.6160  113.6770 C.ar   15  TRP15       0.0003
      7  CD1       86.8150   18.0320  114.6450 C.ar   15  TRP15       0.0946
      8  CD2       86.8000   18.5250  112.4630 C.ar   15  TRP15       0.0152
      9  NE1       87.9970   17.5850  114.1060 N.ar   15  TRP15      -0.2442
     10  CE2       88.0120   17.8760  112.7680 C.ar   15  TRP15       0.0810
     11  CE3       86.5620   18.9310  111.1470 C.ar   15  TRP15       0.0012
     12  CZ2       88.9840   17.6240  111.8030 C.ar   15  TRP15       0.0191
     13  CZ3       87.5270   18.6810  110.1920 C.ar   15  TRP15       0.0001
     14  CH2       88.7240   18.0340  110.5240 C.ar   15  TRP15       0.0015
     15  N         82.6750   21.0040  115.4970 N.am   16  VAL16      -0.1980
     16  CA        81.2480   21.2440  115.5980 C.3    16  VAL16       0.1595
     17  C         80.9040   22.0360  116.8530 C.2    16  VAL16       0.2287
     18  O         81.5290   21.8750  117.9030 O.2    16  VAL16      -0.2864
     19  CB        80.4650   19.9070  115.5770 C.3    16  VAL16       0.0276
     20  CG1       80.7040   19.1170  116.8500 C.3    16  VAL16       0.0022
     21  CG2       78.9910   20.1550  115.3850 C.3    16  VAL16       0.0022
     22  N         78.7220   23.3190  112.0200 N.3    38  ARG38      -0.1245
     23  CA        80.1320   23.0300  111.8740 C.3    38  ARG38       0.1563
     24  C         80.8910   24.3300  112.0790 C.2    38  ARG38       0.2260
     25  O         80.3610   25.4170  111.8450 O.2    38  ARG38      -0.2867
     26  CB        80.4330   22.4090  110.5120 C.3    38  ARG38       0.0307
     27  CG        80.0680   20.9390  110.4270 C.3    38  ARG38       0.0489
     28  CD        80.4800   20.3450  109.0930 C.3    38  ARG38       0.2205
     29  NE        80.2520   18.9040  109.0420 N.pl3  38  ARG38      -0.0865
     30  CZ        81.1140   17.9970  109.4900 C.cat  38  ARG38       0.5346
     31  NH1       82.2640   18.3810  110.0270 N.pl3  38  ARG38       0.1354
     32  NH2       80.8270   16.7050  109.4020 N.pl3  38  ARG38       0.1354
     33  N         79.3400   23.6810  103.4650 N.3    47  ASP47      -0.1225
     34  CA        80.3250   23.0490  104.3280 C.3    47  ASP47       0.1805
     35  C         81.1700   22.0610  103.5470 C.2    47  ASP47       0.2598
     36  O         82.3880   22.0090  103.7040 O.2    47  ASP47      -0.2718
     37  CB        79.6420   22.3580  105.5040 C.3    47  ASP47       0.1424
     38  CG        78.9850   23.3400  106.4470 C.2    47  ASP47       0.3668
     39  OD1       79.7130   24.1200  107.0980 O.co2  47  ASP47      -0.2456
     40  OD2       77.7410   23.3390  106.5320 O.co2  47  ASP47      -0.2456
     41  N         80.5210   21.2820  102.6930 N.am   48  GLY48      -0.1942
     42  CA        81.2240   20.2430  101.9770 C.3    48  GLY48       0.2014
     43  C         80.5980   19.8890  100.6510 C.2    48  GLY48       0.2639
     44  O         79.7940   20.6370  100.0970 O.2    48  GLY48      -0.2714
     45  N         81.0110   18.7470  100.1240 N.am   49  VAL49      -0.1963
     46  CA        80.4460   18.2180   98.9020 C.3    49  VAL49       0.1727
     47  C         80.1410   16.7530   99.1210 C.2    49  VAL49       0.2616
     48  O         80.8200   16.0850   99.8890 O.2    49  VAL49      -0.2715
     49  CB        81.3990   18.3770   97.6980 C.3    49  VAL49       0.0290
     50  CG1       81.5410   19.8400   97.3140 C.3    49  VAL49       0.0023
     51  CG2       82.7580   17.7550   98.0020 C.3    49  VAL49       0.0023
     52  N         79.0950   16.2650   98.4740 N.am   50  ALA50      -0.1977
     53  CA        78.9320   14.8350   98.3070 C.3    50  ALA50       0.1597
     54  C         79.1140   14.5770   96.8300 C.2    50  ALA50       0.2287
     55  O         78.6310   15.3420   95.9950 O.2    50  ALA50      -0.2864
     56  CB        77.5760   14.3590   98.7870 C.3    50  ALA50       0.0319
     57  N         82.1670    5.3100  110.7690 N.3    71  ARG71      -0.1245
     58  CA        81.7130    6.6270  111.1820 C.3    71  ARG71       0.1563
     59  C         81.4750    6.6530  112.6810 C.2    71  ARG71       0.2260
     60  O         80.4900    6.0930  113.1620 O.2    71  ARG71      -0.2867
     61  CB        80.4440    7.0210  110.4270 C.3    71  ARG71       0.0307
     62  CG        80.6770    7.2880  108.9520 C.3    71  ARG71       0.0489
     63  CD        81.6830    8.4080  108.7550 C.3    71  ARG71       0.2205
     64  NE        81.5320    9.0540  107.4550 N.pl3  71  ARG71      -0.0865
     65  CZ        82.2310   10.1130  107.0610 C.cat  71  ARG71       0.5346
     66  NH1       83.1370   10.6510  107.8660 N.pl3  71  ARG71       0.1354
     67  NH2       82.0230   10.6350  105.8590 N.pl3  71  ARG71       0.1354
     68  N         80.3120    8.8860  114.7640 N.3    73  PRO73      -0.2116
     69  CA        78.9950    9.2380  115.3030 C.3    73  PRO73       0.1372
     70  C         78.0030    8.0890  115.1950 C.2    73  PRO73       0.2244
     71  O         77.1640    7.9300  116.0730 O.2    73  PRO73      -0.2868
     72  CB        78.5600   10.4170  114.4270 C.3    73  PRO73       0.0268
     73  CG        79.8280   11.0090  113.9380 C.3    73  PRO73       0.0207
     74  CD        80.7330    9.8380  113.7160 C.3    73  PRO73       0.0892
     75  N         78.3610    5.5870  101.8100 N.3    80  GLU80      -0.1245
     76  CA        78.0920    6.9810  101.4920 C.3    80  GLU80       0.1567
     77  C         78.5670    7.3430  100.0970 C.2    80  GLU80       0.2260
     78  O         79.3340    6.6090   99.4750 O.2    80  GLU80      -0.2867
     79  CB        78.7730    7.9100  102.5010 C.3    80  GLU80       0.0388
     80  CG        78.4130    7.6640  103.9490 C.3    80  GLU80       0.1160
     81  CD        79.4060    8.2920  104.9070 C.2    80  GLU80       0.3649
     82  OE1       79.6540    9.5100  104.7900 O.co2  80  GLU80      -0.2457
     83  OE2       79.9520    7.5660  105.7650 O.co2  80  GLU80      -0.2457
     84  N         82.6100   12.0700  100.0900 N.3    83  ALA83      -0.1231
     85  CA        82.2300   13.3720  100.6120 C.3    83  ALA83       0.1694
     86  C         83.2690   13.9180  101.5760 C.2    83  ALA83       0.2593
     87  O         84.0170   13.1630  102.1950 O.2    83  ALA83      -0.2718
     88  CB        80.8720   13.2850  101.2950 C.3    83  ALA83       0.0304
     89  N         83.3170   15.2380  101.6890 N.am   84  GLY84      -0.1942
     90  CA        84.2360   15.8830  102.6010 C.3    84  GLY84       0.2014
     91  C         84.0290   17.3780  102.6040 C.2    84  GLY84       0.2638
     92  O         83.2900   17.9080  101.7760 O.2    84  GLY84      -0.2714
     93  N         84.6770   18.0580  103.5420 N.am   85  LEU85      -0.1977
     94  CA        84.6010   19.5080  103.6170 C.3    85  LEU85       0.1596
     95  C         85.2060   20.1350  102.3710 C.2    85  LEU85       0.2287
     96  O         86.1250   19.5800  101.7690 O.2    85  LEU85      -0.2864
     97  CB        85.3190   20.0300  104.8630 C.3    85  LEU85       0.0297
     98  CG        84.7480   19.6690  106.2330 C.3    85  LEU85       0.0022
     99  CD1       85.7160   20.0910  107.3250 C.3    85  LEU85       0.0001
    100  CD2       83.3930   20.3310  106.4370 C.3    85  LEU85       0.0001
    101  N         71.9970   19.1640  104.9570 N.3   119  MET119     -0.1245
    102  CA        72.1440   17.7910  105.4350 C.3   119  MET119      0.1570
    103  C         71.0300   17.3450  106.3810 C.2   119  MET119      0.2261
    104  O         70.4970   16.2420  106.2580 O.2   119  MET119     -0.2867
    105  CB        73.4900   17.6480  106.1460 C.3   119  MET119      0.0387
    106  CG        74.6820   17.7710  105.2240 C.3   119  MET119      0.0595
    107  SD        74.7410   16.4580  104.0020 S.3   119  MET119     -0.1393
    108  CE        75.2240   15.0830  105.0380 C.3   119  MET119      0.0692
    109  N         74.2660   22.3670  108.3530 N.3   126  CYS126     -0.1221
    110  CA        75.2260   21.7110  107.4780 C.3   126  CYS126      0.1808
    111  C         74.7080   21.6020  106.0580 C.2   126  CYS126      0.2602
    112  O         73.5870   21.1540  105.8150 O.2   126  CYS126     -0.2717
    113  CB        75.5910   20.3280  108.0140 C.3   126  CYS126      0.0970
    114  SG        76.5360   20.3790  109.5490 S.3   126  CYS126     -0.0800
    115  N         75.5430   22.0300  105.1220 N.am  127  THR127     -0.1939
    116  CA        75.1940   22.0050  103.7160 C.3   127  THR127      0.2028
    117  C         76.2830   21.3430  102.8990 C.2   127  THR127      0.2642
    118  O         77.4470   21.3040  103.2980 O.2   127  THR127     -0.2714
    119  CB        74.9540   23.4190  103.1620 C.3   127  THR127      0.1808
    120  OG1       76.0880   24.2430  103.4610 O.3   127  THR127     -0.2208
    121  CG2       73.7140   24.0340  103.7850 C.3   127  THR127      0.0379
    122  N         75.8900   20.8200  101.7480 N.am  128  ILE128     -0.1977
    123  CA        76.8420   20.2980  100.7910 C.3   128  ILE128      0.1596
    124  C         76.4410   20.7290   99.3990 C.2   128  ILE128      0.2287
    125  O         75.2930   21.1040   99.1590 O.2   128  ILE128     -0.2864
    126  CB        76.9220   18.7590  100.8240 C.3   128  ILE128      0.0276
    127  CG1       75.5450   18.1620  100.5250 C.3   128  ILE128      0.0022
    128  CG2       77.4400   18.2660  102.1610 C.3   128  ILE128      0.0022
    129  CD1       75.5260   16.6610  100.4430 C.3   128  ILE128      0.0001
    130  N         92.7110    7.8870  106.2800 N.3   153  GLU153     -0.1245
    131  CA        91.3550    7.3520  106.4020 C.3   153  GLU153      0.1567
    132  C         91.3710    5.8850  105.9550 C.2   153  GLU153      0.2260
    133  O         92.2970    5.4270  105.2680 O.2   153  GLU153     -0.2867
    134  CB        90.3480    8.1500  105.5690 C.3   153  GLU153      0.0388
    135  CG        90.4340    9.6740  105.6770 C.3   153  GLU153      0.1160
    136  CD        89.5550   10.3860  104.6430 C.2   153  GLU153      0.3649
    137  OE1       88.9690    9.6960  103.7980 O.co2 153  GLU153     -0.2457
    138  OE2       89.6030   11.6280  104.5590 O.co2 153  GLU153     -0.2457
@<TRIPOS>BOND
     1    55    54    2
     2    54    53    1
     3    50    49    1
     4    49    51    1
     5    49    46    1
     6    53    52    1
     7    53    56    1
     8    52    47   am
     9    46    47    1
    10    46    45    1
    11    47    48    2
    12   125   124    2
    13   124   123    1
    14    78    77    2
    15    84    85    1
    16    44    43    2
    17    77    76    1
    18    45    43   am
    19   129   127    1
    20   127   126    1
    21    85    88    1
    22    85    86    1
    23    43    42    1
    24   123   126    1
    25   123   122    1
    26   126   128    1
    27    76    75    1
    28    76    79    1
    29    86    89   am
    30    86    87    2
    31    89    90    1
    32   122   117   am
    33    96    95    2
    34    92    91    2
    35    42    41    1
    36    95    94    1
    37    79    80    1
    38    90    91    1
    39    91    93   am
    40    41    35   am
    41   117   118    2
    42   117   116    1
    43   119   120    1
    44   119   116    1
    45   119   121    1
    46    33    34    1
    47    93    94    1
    48    35    36    2
    49    35    34    1
    50    94    97    1
    51   116   115    1
    52   137   136   ar
    53    80    81    1
    54   107   108    1
    55   107   106    1
    56    34    37    1
    57   138   136   ar
    58   136   135    1
    59    82    81   ar
    60    97    98    1
    61    81    83   ar
    62   101   102    1
    63   115   111   am
    64   106   105    1
    65   133   132    2
    66   102   105    1
    67   102   103    1
    68    37    38    1
    69   134   135    1
    70   134   131    1
    71   112   111    2
    72    67    65    1
    73   132   131    1
    74   111   110    1
    75    98   100    1
    76    98    99    1
    77   104   103    2
    78   130   131    1
    79    38    40   ar
    80    38    39   ar
    81    65    64    2
    82    65    66    1
    83    64    63    1
    84   110   113    1
    85   110   109    1
    86   113   114    1
    87    63    62    1
    88    62    61    1
    89    29    28    1
    90    29    30    2
    91    28    27    1
    92    32    30    1
    93    30    31    1
    94    13    14   ar
    95    13    11   ar
    96    27    26    1
    97    61    58    1
    98    26    23    1
    99    14    12   ar
   100    57    58    1
   101    11     8   ar
   102    58    59    1
   103    12    10   ar
   104    25    24    2
   105    23    22    1
   106    23    24    1
   107     8    10   ar
   108     8     6   ar
   109    59    60    2
   110    10     9   ar
   111     4     3    2
   112     6     5    1
   113     6     7   ar
   114    74    73    1
   115    74    68    1
   116     5     2    1
   117    73    72    1
   118     9     7   ar
   119     2     3    1
   120     2     1    1
   121     3    15   am
   122    72    69    1
   123    68    69    1
   124    70    69    1
   125    70    71    2
   126    21    19    1
   127    15    16    1
   128    19    16    1
   129    19    20    1
   130    16    17    1
   131    17    18    2
