@<TRIPOS>MOLECULE
tmp/5nr7B00.pdb
 137 132 0 0 0
SMALL
GASTEIGER

@<TRIPOS>ATOM
      1  N         23.9230   38.8430   10.7360 N.3     9  ASP9       -0.1239
      2  CA        24.9640   38.7730    9.7210 C.3     9  ASP9        0.1674
      3  C         26.1340   39.6700   10.0960 C.2     9  ASP9        0.2266
      4  O         25.9520   40.8130   10.5210 O.2     9  ASP9       -0.2867
      5  CB        24.4000   39.1870    8.3620 C.3     9  ASP9        0.1410
      6  CG        22.8910   39.2650    8.3610 C.2     9  ASP9        0.3668
      7  OD1       22.2470   38.3160    7.8740 O.co2   9  ASP9       -0.2456
      8  OD2       22.3460   40.2720    8.8610 O.co2   9  ASP9       -0.2456
      9  N         22.9290   26.6960    8.0600 N.3    36  PHE36      -0.1228
     10  CA        21.6670   27.0290    7.4120 C.3    36  PHE36       0.1721
     11  C         21.6580   28.5130    7.0630 C.2    36  PHE36       0.2437
     12  O         22.2570   29.3220    7.7730 O.2    36  PHE36      -0.2733
     13  CB        20.4800   26.6880    8.3150 C.3    36  PHE36       0.0547
     14  CG        20.2780   25.2140    8.5300 C.ar   36  PHE36      -0.0202
     15  CD1       19.5830   24.4550    7.6030 C.ar   36  PHE36      -0.0042
     16  CD2       20.7740   24.5890    9.6630 C.ar   36  PHE36      -0.0042
     17  CE1       19.3920   23.1010    7.7990 C.ar   36  PHE36      -0.0003
     18  CE2       20.5850   23.2340    9.8650 C.ar   36  PHE36      -0.0003
     19  CZ        19.8940   22.4890    8.9320 C.ar   36  PHE36      -0.0000
     20  N         20.9770   28.8790    5.9670 N.am   37  PRO37      -0.2729
     21  CA        20.3080   27.9360    5.0680 C.3    37  PRO37       0.1401
     22  C         21.3090   27.1340    4.2430 C.2    37  PRO37       0.2269
     23  O         22.4470   27.5690    4.0620 O.2    37  PRO37      -0.2865
     24  CB        19.4600   28.8430    4.1630 C.3    37  PRO37       0.0296
     25  CG        19.4790   30.1990    4.8130 C.3    37  PRO37       0.0237
     26  CD        20.7720   30.2730    5.5480 C.3    37  PRO37       0.0939
     27  N         22.2790   26.7490    1.2850 N.3    39  TYR39      -0.1241
     28  CA        22.4230   27.2850   -0.0610 C.3    39  TYR39       0.1605
     29  C         23.2630   26.3480   -0.9200 C.2    39  TYR39       0.2264
     30  O         24.3590   25.9390   -0.5260 O.2    39  TYR39      -0.2867
     31  CB        23.0680   28.6680   -0.0050 C.3    39  TYR39       0.0534
     32  CG        22.2560   29.7100    0.7330 C.ar   39  TYR39      -0.0201
     33  CD1       20.9110   29.9090    0.4470 C.ar   39  TYR39      -0.0009
     34  CD2       22.8390   30.4990    1.7160 C.ar   39  TYR39      -0.0009
     35  CE1       20.1700   30.8660    1.1220 C.ar   39  TYR39       0.0417
     36  CE2       22.1080   31.4550    2.3940 C.ar   39  TYR39       0.0417
     37  CZ        20.7760   31.6360    2.0930 C.ar   39  TYR39       0.1957
     38  OH        20.0520   32.5910    2.7730 O.3    39  TYR39      -0.2866
     39  N         17.3190   32.4100   -1.2150 N.3    49  ALA49      -0.1245
     40  CA        18.4290   33.2940   -1.5530 C.3    49  ALA49       0.1562
     41  C         18.1320   34.0770   -2.8250 C.2    49  ALA49       0.2260
     42  O         18.3020   35.3000   -2.8740 O.2    49  ALA49      -0.2867
     43  CB        19.7190   32.4860   -1.7000 C.3    49  ALA49       0.0290
     44  N         15.7340   36.7830   -2.1840 N.3    52  LEU52      -0.1231
     45  CA        16.3140   37.9340   -1.5030 C.3    52  LEU52       0.1693
     46  C         17.0620   38.8500   -2.4610 C.2    52  LEU52       0.2592
     47  O         17.2130   40.0410   -2.1690 O.2    52  LEU52      -0.2718
     48  CB        17.2440   37.4750   -0.3790 C.3    52  LEU52       0.0284
     49  CG        16.5700   36.8360    0.8370 C.3    52  LEU52       0.0019
     50  CD1       17.6000   36.1260    1.6970 C.3    52  LEU52       0.0001
     51  CD2       15.8200   37.8840    1.6470 C.3    52  LEU52       0.0001
     52  N         17.5320   38.3240   -3.5920 N.am   53  HIS53      -0.1976
     53  CA        18.1990   39.1250   -4.6080 C.3    53  HIS53       0.1656
     54  C         17.2290   39.6730   -5.6510 C.2    53  HIS53       0.2291
     55  O         17.6660   40.1060   -6.7240 O.2    53  HIS53      -0.2864
     56  CB        19.3000   38.3050   -5.2860 C.3    53  HIS53       0.0771
     57  CG        20.4750   38.0670   -4.3960 C.ar   53  HIS53       0.0820
     58  ND1       21.3430   37.0220   -4.5500 N.ar   53  HIS53      -0.2267
     59  CD2       20.9470   38.7600   -3.3160 C.ar   53  HIS53       0.1154
     60  CE1       22.2890   37.0510   -3.6340 C.ar   53  HIS53       0.1986
     61  NE2       22.0650   38.1130   -2.8640 N.ar   53  HIS53      -0.2212
     62  N         12.7610   28.7080    4.6520 N.3    70  PHE70      -0.1241
     63  CA        13.8510   28.3690    5.5590 C.3    70  PHE70       0.1605
     64  C         13.4580   27.2160    6.4730 C.2    70  PHE70       0.2264
     65  O         14.3000   26.3820    6.8300 O.2    70  PHE70      -0.2867
     66  CB        14.2620   29.5910    6.3800 C.3    70  PHE70       0.0534
     67  CG        14.8730   30.6960    5.5630 C.ar   70  PHE70      -0.0203
     68  CD1       15.9950   30.4650    4.7860 C.ar   70  PHE70      -0.0042
     69  CD2       14.3340   31.9730    5.5860 C.ar   70  PHE70      -0.0042
     70  CE1       16.5630   31.4820    4.0360 C.ar   70  PHE70      -0.0003
     71  CE2       14.8980   32.9960    4.8400 C.ar   70  PHE70      -0.0003
     72  CZ        16.0150   32.7490    4.0650 C.ar   70  PHE70      -0.0000
     73  N         15.2810   23.4130    6.5270 N.3    74  ARG74      -0.1245
     74  CA        15.6710   22.6310    7.6930 C.3    74  ARG74       0.1563
     75  C         14.9000   21.3210    7.7600 C.2    74  ARG74       0.2260
     76  O         15.4610   20.2840    8.1330 O.2    74  ARG74      -0.2867
     77  CB        15.4540   23.4430    8.9670 C.3    74  ARG74       0.0307
     78  CG        16.5600   24.4360    9.2750 C.3    74  ARG74       0.0489
     79  CD        16.3090   25.1310   10.6050 C.3    74  ARG74       0.2205
     80  NE        15.2150   26.0960   10.5240 N.pl3  74  ARG74      -0.0865
     81  CZ        15.3530   27.3470   10.0990 C.cat  74  ARG74       0.5346
     82  NH1       16.5400   27.7910    9.7180 N.pl3  74  ARG74       0.1354
     83  NH2       14.3020   28.1570   10.0560 N.pl3  74  ARG74       0.1354
     84  N         23.4690   28.8570   12.4950 N.3    95  ARG95      -0.1245
     85  CA        22.0800   29.2480   12.2710 C.3    95  ARG95       0.1563
     86  C         21.1510   28.0480   12.4110 C.2    95  ARG95       0.2260
     87  O         21.4630   26.9520   11.9360 O.2    95  ARG95      -0.2867
     88  CB        21.8980   29.8950   10.8960 C.3    95  ARG95       0.0307
     89  CG        22.4240   31.3130   10.7870 C.3    95  ARG95       0.0489
     90  CD        21.6760   32.0890    9.7150 C.3    95  ARG95       0.2205
     91  NE        22.2600   33.4050    9.4770 N.pl3  95  ARG95      -0.0865
     92  CZ        22.1510   34.4320   10.3130 C.cat  95  ARG95       0.5346
     93  NH1       21.4850   34.2930   11.4510 N.pl3  95  ARG95       0.1354
     94  NH2       22.7130   35.5960   10.0150 N.pl3  95  ARG95       0.1354
     95  N         16.9390   31.6000   14.1920 N.3    99  SER99      -0.1202
     96  CA        17.0920   32.5810   13.1240 C.3    99  SER99       0.2020
     97  C         15.7430   32.9350   12.5130 C.2    99  SER99       0.2618
     98  O         15.4690   34.1050   12.2230 O.2    99  SER99      -0.2717
     99  CB        18.0420   32.0460   12.0540 C.3    99  SER99       0.2103
    100  OG        19.3950   32.2230   12.4350 O.3    99  SER99      -0.2182
    101  N         14.8870   31.9310   12.3100 N.am  100  ASN100     -0.1974
    102  CA        13.5670   32.1880   11.7460 C.3   100  ASN100      0.1688
    103  C         12.7280   33.0460   12.6850 C.2   100  ASN100      0.2292
    104  O         12.0260   33.9610   12.2410 O.2   100  ASN100     -0.2864
    105  CB        12.8610   30.8640   11.4460 C.3   100  ASN100      0.1181
    106  CG        12.4700   30.7280    9.9860 C.2   100  ASN100      0.2629
    107  OD1       12.8430   31.5530    9.1510 O.2   100  ASN100     -0.2716
    108  ND2       11.7140   29.6830    9.6700 N.am  100  ASN100     -0.0877
    109  N         14.5160   36.8870   12.7080 N.3   103  TYR103     -0.1227
    110  CA        14.3550   37.7010   11.5080 C.3   103  TYR103      0.1736
    111  C         12.8850   37.9000   11.1640 C.2   103  TYR103      0.2596
    112  O         12.4960   38.9700   10.6800 O.2   103  TYR103     -0.2718
    113  CB        15.1140   37.0670   10.3440 C.3   103  TYR103      0.0548
    114  CG        16.5940   37.3510   10.3960 C.ar  103  TYR103     -0.0200
    115  CD1       17.1180   38.5180    9.8550 C.ar  103  TYR103     -0.0009
    116  CD2       17.4690   36.4640   11.0110 C.ar  103  TYR103     -0.0009
    117  CE1       18.4710   38.7860    9.9110 C.ar  103  TYR103      0.0417
    118  CE2       18.8240   36.7250   11.0720 C.ar  103  TYR103      0.0417
    119  CZ        19.3190   37.8870   10.5200 C.ar  103  TYR103      0.1957
    120  OH        20.6680   38.1510   10.5780 O.3   103  TYR103     -0.2866
    121  N         12.0530   36.8840   11.4010 N.am  104  SER104     -0.1952
    122  CA        10.6300   37.0260   11.1160 C.3   104  SER104      0.1924
    123  C          9.9890   38.0390   12.0570 C.2   104  SER104      0.2314
    124  O          9.2480   38.9270   11.6190 O.2   104  SER104     -0.2863
    125  CB         9.9300   35.6700   11.2230 C.3   104  SER104      0.2116
    126  OG        10.4020   34.7620   10.2400 O.3   104  SER104     -0.2180
    127  N         21.5990   45.8420    2.2310 N.3   143  ARG143     -0.1245
    128  CA        21.8730   45.6580    3.6500 C.3   143  ARG143      0.1563
    129  C         21.1270   46.6930    4.4830 C.2   143  ARG143      0.2260
    130  O         21.5910   47.8200    4.6520 O.2   143  ARG143     -0.2867
    131  CB        23.4000   45.7630    3.9360 C.3   143  ARG143      0.0307
    132  CG        24.2880   44.6070    3.5540 C.3   143  ARG143      0.0489
    133  CD        23.8630   43.3800    4.2960 C.3   143  ARG143      0.2205
    134  NE        24.0010   43.5230    5.7440 N.pl3 143  ARG143     -0.0865
    135  CZ        25.0940   43.2790    6.4530 C.cat 143  ARG143      0.5346
    136  NH1       26.1380   42.7650    5.8250 N.pl3 143  ARG143      0.1354
    137  NH2       25.1420   43.4930    7.7710 N.pl3 143  ARG143      0.1354
@<TRIPOS>BOND
     1    55    54    2
     2    54    53    1
     3    56    53    1
     4    56    57    1
     5    53    52    1
     6    58    57   ar
     7    58    60   ar
     8    57    59   ar
     9    60    61   ar
    10    52    46   am
    11    59    61   ar
    12    42    41    2
    13    41    40    1
    14    46    47    2
    15    46    45    1
    16    44    45    1
    17    43    40    1
    18    40    39    1
    19    45    48    1
    20    29    30    2
    21    29    28    1
    22    48    49    1
    23    28    31    1
    24    28    27    1
    25    31    32    1
    26    33    32   ar
    27    33    35   ar
    28    32    34   ar
    29    49    51    1
    30    49    50    1
    31    35    37   ar
    32    34    36   ar
    33    37    36   ar
    34    37    38    1
    35   127   128    1
    36   132   131    1
    37   132   133    1
    38   128   131    1
    39   128   129    1
    40    70    72   ar
    41    70    68   ar
    42    23    22    2
    43    72    71   ar
    44    24    25    1
    45    24    21    1
    46    22    21    1
    47   133   134    1
    48   129   130    2
    49    62    63    1
    50    68    67   ar
    51    25    26    1
    52    71    69   ar
    53    21    20    1
    54    26    20    1
    55    63    66    1
    56    63    64    1
    57    67    69   ar
    58    67    66    1
    59   134   135    2
    60   136   135    1
    61    20    11   am
    62   135   137    1
    63    64    65    2
    64    73    74    1
    65    11    10    1
    66    11    12    2
    67    10     9    1
    68    10    13    1
    69    15    17   ar
    70    15    14   ar
    71    74    75    1
    72    74    77    1
    73    75    76    2
    74    17    19   ar
    75     7     6   ar
    76    13    14    1
    77     6     5    1
    78     6     8   ar
    79     5     2    1
    80    14    16   ar
    81    19    18   ar
    82    77    78    1
    83   107   106    2
    84    78    79    1
    85    91    90    1
    86    91    92    2
    87    16    18   ar
    88   108   106   am
    89    90    89    1
    90    82    81    1
    91     2     3    1
    92     2     1    1
    93   115   117   ar
    94   115   114   ar
    95   117   119   ar
    96   106   105    1
    97    94    92    1
    98    83    81    1
    99     3     4    2
   100    81    80    2
   101   126   125    1
   102    92    93    1
   103   113   114    1
   104   113   110    1
   105   114   116   ar
   106   119   120    1
   107   119   118   ar
   108    80    79    1
   109   112   111    2
   110    89    88    1
   111    88    85    1
   112   116   118   ar
   113   122   125    1
   114   122   121    1
   115   122   123    1
   116   111   121   am
   117   111   110    1
   118   105   102    1
   119   110   109    1
   120   124   123    2
   121   102   101    1
   122   102   103    1
   123    87    86    2
   124    99   100    1
   125    99    96    1
   126    98    97    2
   127   104   103    2
   128    85    86    1
   129    85    84    1
   130   101    97   am
   131    97    96    1
   132    96    95    1
