@<TRIPOS>MOLECULE
tmp/5nr7A00.pdb
 154 148 0 0 0
SMALL
GASTEIGER

@<TRIPOS>ATOM
      1  N        -11.4980   24.7750  -10.7290 N.3     9  ASP9       -0.1239
      2  CA       -12.2950   24.0260   -9.7700 C.3     9  ASP9        0.1674
      3  C        -13.7650   24.0450  -10.1720 C.2     9  ASP9        0.2266
      4  O        -14.3110   25.0820  -10.5590 O.2     9  ASP9       -0.2867
      5  CB       -12.1100   24.5960   -8.3620 C.3     9  ASP9        0.1410
      6  CG       -11.0100   23.8920   -7.5860 C.2     9  ASP9        0.3668
      7  OD1      -10.9310   24.0830   -6.3570 O.co2   9  ASP9       -0.2456
      8  OD2      -10.2310   23.1380   -8.2080 O.co2   9  ASP9       -0.2456
      9  N         -3.2230   16.1020   -7.9440 N.3    36  PHE36      -0.1228
     10  CA        -2.5130   17.1830   -7.2660 C.3    36  PHE36       0.1721
     11  C         -3.4520   18.3430   -6.9400 C.2    36  PHE36       0.2437
     12  O         -4.4250   18.5800   -7.6570 O.2    36  PHE36      -0.2733
     13  CB        -1.3470   17.6820   -8.1200 C.3    36  PHE36       0.0547
     14  CG        -0.2240   16.6920   -8.2560 C.ar   36  PHE36      -0.0202
     15  CD1        0.7510   16.5910   -7.2760 C.ar   36  PHE36      -0.0042
     16  CD2       -0.1370   15.8690   -9.3670 C.ar   36  PHE36      -0.0042
     17  CE1        1.7890   15.6860   -7.4010 C.ar   36  PHE36      -0.0003
     18  CE2        0.8980   14.9620   -9.4960 C.ar   36  PHE36      -0.0003
     19  CZ         1.8620   14.8700   -8.5120 C.ar   36  PHE36      -0.0000
     20  N         -3.1610   19.0760   -5.8550 N.am   37  PRO37      -0.2729
     21  CA        -2.0460   18.8000   -4.9430 C.3    37  PRO37       0.1401
     22  C         -2.3100   17.5720   -4.0730 C.2    37  PRO37       0.2269
     23  O         -3.4640   17.1890   -3.8810 O.2    37  PRO37      -0.2865
     24  CB        -1.9580   20.0770   -4.0920 C.3    37  PRO37       0.0296
     25  CG        -2.8150   21.0990   -4.7970 C.3    37  PRO37       0.0237
     26  CD        -3.8670   20.3160   -5.4990 C.3    37  PRO37       0.0939
     27  N         -2.8490   16.7570   -1.0940 N.3    39  TYR39      -0.1241
     28  CA        -3.3160   17.1280    0.2390 C.3    39  TYR39       0.1605
     29  C         -3.3670   15.9060    1.1480 C.2    39  TYR39       0.2264
     30  O         -3.9240   14.8670    0.7840 O.2    39  TYR39      -0.2867
     31  CB        -4.6920   17.7860    0.1570 C.3    39  TYR39       0.0534
     32  CG        -4.7010   19.0970   -0.5960 C.ar   39  TYR39      -0.0201
     33  CD1       -3.7890   20.1000   -0.2920 C.ar   39  TYR39      -0.0009
     34  CD2       -5.6170   19.3320   -1.6130 C.ar   39  TYR39      -0.0009
     35  CE1       -3.7910   21.3020   -0.9770 C.ar   39  TYR39       0.0417
     36  CE2       -5.6250   20.5300   -2.3030 C.ar   39  TYR39       0.0417
     37  CZ        -4.7110   21.5110   -1.9810 C.ar   39  TYR39       0.1957
     38  OH        -4.7190   22.7040   -2.6690 O.3    39  TYR39      -0.2866
     39  N         -2.6080   24.5420    1.4470 N.3    49  ALA49      -0.1245
     40  CA        -4.0250   24.5080    1.7930 C.3    49  ALA49       0.1562
     41  C         -4.3100   25.3590    3.0240 C.2    49  ALA49       0.2260
     42  O         -5.2330   26.1820    3.0290 O.2    49  ALA49      -0.2867
     43  CB        -4.4740   23.0620    2.0160 C.3    49  ALA49       0.0290
     44  N         -4.2610   28.9980    2.3270 N.3    52  LEU52      -0.1231
     45  CA        -5.4490   29.4880    1.6370 C.3    52  LEU52       0.1693
     46  C         -6.5920   29.7750    2.6030 C.2    52  LEU52       0.2592
     47  O         -7.4620   30.6010    2.3030 O.2    52  LEU52      -0.2718
     48  CB        -5.8910   28.4780    0.5820 C.3    52  LEU52       0.0284
     49  CG        -4.9690   28.3320   -0.6280 C.3    52  LEU52       0.0019
     50  CD1       -5.3070   27.0810   -1.4230 C.3    52  LEU52       0.0001
     51  CD2       -5.0580   29.5680   -1.5080 C.3    52  LEU52       0.0001
     52  N         -6.6110   29.1120    3.7580 N.am   53  HIS53      -0.1976
     53  CA        -7.6300   29.3410    4.7710 C.3    53  HIS53       0.1656
     54  C         -7.2260   30.4010    5.7920 C.2    53  HIS53       0.2291
     55  O         -7.8330   30.4760    6.8670 O.2    53  HIS53      -0.2864
     56  CB        -7.9780   28.0230    5.4690 C.3    53  HIS53       0.0771
     57  CG        -8.5920   27.0030    4.5580 C.ar   53  HIS53       0.0820
     58  ND1       -7.8400   26.0980    3.8380 N.ar   53  HIS53      -0.2267
     59  CD2       -9.8850   26.7530    4.2410 C.ar   53  HIS53       0.1154
     60  CE1       -8.6440   25.3300    3.1230 C.ar   53  HIS53       0.1986
     61  NE2       -9.8890   25.7070    3.3490 N.ar   53  HIS53      -0.2212
     62  N          3.3310   24.3020   -4.2460 N.3    70  PHE70      -0.1241
     63  CA         2.7400   23.3180   -5.1450 C.3    70  PHE70       0.1605
     64  C          3.7990   22.6630   -6.0220 C.2    70  PHE70       0.2264
     65  O          3.6960   21.4720   -6.3360 O.2    70  PHE70      -0.2867
     66  CB         1.6610   23.9750   -6.0030 C.3    70  PHE70       0.0534
     67  CG         0.4760   24.4590   -5.2150 C.ar   70  PHE70      -0.0203
     68  CD1       -0.2500   23.5850   -4.4260 C.ar   70  PHE70      -0.0042
     69  CD2        0.0940   25.7930   -5.2570 C.ar   70  PHE70      -0.0042
     70  CE1       -1.3400   24.0280   -3.6980 C.ar   70  PHE70      -0.0003
     71  CE2       -0.9970   26.2400   -4.5280 C.ar   70  PHE70      -0.0003
     72  CZ        -1.7120   25.3550   -3.7500 C.ar   70  PHE70      -0.0000
     73  N          4.8490   18.5010   -6.1250 N.3    74  ARG74      -0.1245
     74  CA         5.0580   17.6200   -7.2710 C.3    74  ARG74       0.1563
     75  C          6.4830   17.0780   -7.3130 C.2    74  ARG74       0.2260
     76  O          6.6980   15.9150   -7.6770 O.2    74  ARG74      -0.2867
     77  CB         4.7270   18.3560   -8.5690 C.3    74  ARG74       0.0307
     78  CG         3.2410   18.4040   -8.8850 C.3    74  ARG74       0.0489
     79  CD         2.9850   19.0630  -10.2280 C.3    74  ARG74       0.2205
     80  NE         3.2170   20.5030  -10.1750 N.pl3  74  ARG74      -0.0865
     81  CZ         2.3210   21.3860   -9.7480 C.cat  74  ARG74       0.5346
     82  NH1        1.1290   20.9760   -9.3360 N.pl3  74  ARG74       0.1354
     83  NH2        2.6150   22.6790   -9.7310 N.pl3  74  ARG74       0.1354
     84  N         -4.8560   17.5140  -12.4740 N.3    95  ARG95      -0.1245
     85  CA        -4.0370   18.6870  -12.1890 C.3    95  ARG95       0.1563
     86  C         -2.5550   18.3450  -12.2490 C.2    95  ARG95       0.2260
     87  O         -2.1270   17.2960  -11.7540 O.2    95  ARG95      -0.2867
     88  CB        -4.3720   19.3000  -10.8270 C.3    95  ARG95       0.0307
     89  CG        -5.6440   20.1150  -10.8080 C.3    95  ARG95       0.0489
     90  CD        -5.5630   21.1750   -9.7270 C.3    95  ARG95       0.2205
     91  NE        -6.8140   21.9080   -9.5810 N.pl3  95  ARG95      -0.0865
     92  CZ        -7.2500   22.8180  -10.4460 C.cat  95  ARG95       0.5346
     93  NH1       -6.5400   23.1070  -11.5280 N.pl3  95  ARG95       0.1354
     94  NH2       -8.4020   23.4360  -10.2280 N.pl3  95  ARG95       0.1354
     95  N         -1.5500   23.7350  -13.9330 N.3    99  SER99      -0.1202
     96  CA        -2.3570   24.3590  -12.8910 C.3    99  SER99       0.2020
     97  C         -1.6120   25.5170  -12.2370 C.2    99  SER99       0.2618
     98  O         -2.1940   26.5780  -11.9830 O.2    99  SER99      -0.2717
     99  CB        -2.7650   23.3180  -11.8500 C.3    99  SER99       0.2103
    100  OG        -3.8890   22.5760  -12.2900 O.3    99  SER99      -0.2182
    101  N         -0.3180   25.3350  -11.9650 N.am  100  ASN100     -0.1974
    102  CA         0.4690   26.4060  -11.3610 C.3   100  ASN100      0.1688
    103  C          0.5770   27.6040  -12.2960 C.2   100  ASN100      0.2292
    104  O          0.4880   28.7570  -11.8580 O.2   100  ASN100     -0.2864
    105  CB         1.8580   25.8890  -10.9880 C.3   100  ASN100      0.1181
    106  CG         2.1640   26.0590   -9.5160 C.2   100  ASN100      0.2629
    107  OD1        1.2960   26.4350   -8.7300 O.2   100  ASN100     -0.2716
    108  ND2        3.4050   25.7800   -9.1330 N.am  100  ASN100     -0.0877
    109  N         -3.1910   29.3930  -12.4030 N.3   103  TYR103     -0.1227
    110  CA        -3.6000   30.1400  -11.2170 C.3   103  TYR103      0.1736
    111  C         -2.5960   31.2320  -10.8680 C.2   103  TYR103      0.2596
    112  O         -2.9840   32.3190  -10.4260 O.2   103  TYR103     -0.2718
    113  CB        -3.8040   29.1890  -10.0370 C.3   103  TYR103      0.0548
    114  CG        -5.1470   28.4880  -10.0550 C.ar  103  TYR103     -0.0200
    115  CD1       -5.2910   27.2300  -10.6270 C.ar  103  TYR103     -0.0009
    116  CD2       -6.2700   29.0920   -9.5100 C.ar  103  TYR103     -0.0009
    117  CE1       -6.5190   26.5930  -10.6460 C.ar  103  TYR103      0.0417
    118  CE2       -7.5000   28.4650   -9.5260 C.ar  103  TYR103      0.0417
    119  CZ        -7.6180   27.2170  -10.0970 C.ar  103  TYR103      0.1957
    120  OH        -8.8430   26.5880  -10.1150 O.3   103  TYR103     -0.2866
    121  N         -1.3030   30.9720  -11.0660 N.am  104  SER104     -0.1952
    122  CA        -0.3010   31.9840  -10.7500 C.3   104  SER104      0.1924
    123  C         -0.4370   33.1830  -11.6800 C.2   104  SER104      0.2314
    124  O         -0.4340   34.3350  -11.2310 O.2   104  SER104     -0.2863
    125  CB         1.1010   31.3810  -10.8310 C.3   104  SER104      0.2116
    126  OG         1.2700   30.3700   -9.8510 O.3   104  SER104     -0.2180
    127  N        -15.3350   30.3280   -3.5960 N.3   146  ARG146     -0.1245
    128  CA       -14.7750   31.4970   -2.9290 C.3   146  ARG146      0.1563
    129  C        -14.6460   32.6780   -3.8880 C.2   146  ARG146      0.2260
    130  O        -15.6130   33.4020   -4.1280 O.2   146  ARG146     -0.2867
    131  CB       -13.4130   31.1650   -2.3190 C.3   146  ARG146      0.0307
    132  CG       -13.5090   30.2160   -1.1660 C.3   146  ARG146      0.0489
    133  CD       -12.2180   29.5060   -0.9630 C.3   146  ARG146      0.2205
    134  NE       -11.1030   30.4430   -0.8380 N.pl3 146  ARG146     -0.0865
    135  CZ       -10.0200   30.2260   -0.1010 C.cat 146  ARG146      0.5346
    136  NH1       -9.9010   29.1030    0.6040 N.pl3 146  ARG146      0.1354
    137  NH2       -9.0110   31.0770   -0.1610 N.pl3 146  ARG146      0.1354
    138  N        -11.1910   35.2040   -9.6640 N.3   150  LEU150     -0.1231
    139  CA        -9.9550   34.4510   -9.8450 C.3   150  LEU150      0.1693
    140  C        -10.1790   33.2310  -10.7300 C.2   150  LEU150      0.2591
    141  O         -9.3660   32.9390  -11.6150 O.2   150  LEU150     -0.2718
    142  CB        -9.3950   34.0370   -8.4840 C.3   150  LEU150      0.0284
    143  CG        -8.1650   33.1300   -8.5010 C.3   150  LEU150      0.0019
    144  CD1       -6.9360   33.8790   -8.9960 C.3   150  LEU150      0.0001
    145  CD2       -7.9240   32.5520   -7.1170 C.3   150  LEU150      0.0001
    146  N        -11.2820   32.5110  -10.5120 N.am  151  GLN151     -0.1979
    147  CA       -11.5540   31.3180  -11.3070 C.3   151  GLN151      0.1601
    148  C        -11.7900   31.6730  -12.7690 C.2   151  GLN151      0.2287
    149  O        -11.3510   30.9480  -13.6700 O.2   151  GLN151     -0.2864
    150  CB       -12.7560   30.5700  -10.7320 C.3   151  GLN151      0.0394
    151  CG       -12.5490   30.0920   -9.3060 C.3   151  GLN151      0.0908
    152  CD       -11.4080   29.1000   -9.1880 C.2   151  GLN151      0.2608
    153  OE1      -11.0360   28.4480  -10.1640 O.2   151  GLN151     -0.2717
    154  NE2      -10.8460   28.9830   -7.9900 N.am  151  GLN151     -0.0878
@<TRIPOS>BOND
     1    95    96    1
     2   149   148    2
     3    96    97    1
     4    96    99    1
     5   148   147    1
     6    84    85    1
     7   109   110    1
     8   103   104    2
     9   103   102    1
    10   100    99    1
    11    86    85    1
    12    86    87    2
    13    97    98    2
    14    97   101   am
    15    85    88    1
    16   101   102    1
    17   123   124    2
    18   123   122    1
    19   141   140    2
    20    93    92    1
    21   102   105    1
    22   147   150    1
    23   147   146    1
    24   110   111    1
    25   110   113    1
    26   121   111   am
    27   121   122    1
    28   105   106    1
    29   111   112    2
    30   125   122    1
    31   125   126    1
    32    88    89    1
    33    89    90    1
    34   150   151    1
    35   140   146   am
    36   140   139    1
    37     1     2    1
    38   117   115   ar
    39   117   119   ar
    40   115   114   ar
    41     4     3    2
    42    92    94    1
    43    92    91    2
    44    79    80    1
    45    79    78    1
    46    80    81    2
    47     3     2    1
    48   153   152    2
    49   120   119    1
    50   119   118   ar
    51   114   113    1
    52   114   116   ar
    53   139   138    1
    54   139   142    1
    55     2     5    1
    56    81    83    1
    57    81    82    1
    58    90    91    1
    59   118   116   ar
    60   106   108   am
    61   106   107    2
    62    18    16   ar
    63    18    19   ar
    64    16    14   ar
    65   151   152    1
    66   152   154   am
    67   144   143    1
    68    78    77    1
    69    77    74    1
    70    19    17   ar
    71   143   142    1
    72   143   145    1
    73     5     6    1
    74    14    13    1
    75    14    15   ar
    76     8     6   ar
    77    13    10    1
    78     9    10    1
    79    76    75    2
    80    12    11    2
    81     6     7   ar
    82    17    15   ar
    83    75    74    1
    84    74    73    1
    85    10    11    1
    86    11    20   am
    87    65    64    2
    88    64    63    1
    89    66    67    1
    90    66    63    1
    91    20    26    1
    92    20    21    1
    93    26    25    1
    94    69    67   ar
    95    69    71   ar
    96    67    68   ar
    97    63    62    1
    98    21    24    1
    99    21    22    1
   100    25    24    1
   101    71    72   ar
   102    68    70   ar
   103   130   129    2
   104    22    23    2
   105   129   128    1
   106    72    70   ar
   107   127   128    1
   108   128   131    1
   109    38    37    1
   110   131   132    1
   111    36    37   ar
   112    36    34   ar
   113    37    35   ar
   114    34    32   ar
   115    51    49    1
   116    50    49    1
   117   132   133    1
   118    27    28    1
   119    35    33   ar
   120   133   134    1
   121   134   135    2
   122    49    48    1
   123    32    33   ar
   124    32    31    1
   125   137   135    1
   126   135   136    1
   127    31    28    1
   128    28    29    1
   129    48    45    1
   130    30    29    2
   131    39    40    1
   132    45    44    1
   133    45    46    1
   134    40    43    1
   135    40    41    1
   136    47    46    2
   137    46    52   am
   138    41    42    2
   139    60    61   ar
   140    60    58   ar
   141    61    59   ar
   142    52    53    1
   143    58    57   ar
   144    59    57   ar
   145    57    56    1
   146    53    56    1
   147    53    54    1
   148    54    55    2
