@<TRIPOS>MOLECULE
tmp/5nr8A00.pdb
 201 193 0 0 0
SMALL
GASTEIGER

@<TRIPOS>ATOM
      1  N         93.5820   28.9730   11.9340 N.3     6  TYR6       -0.1241
      2  CA        92.5840   28.4320   12.8530 C.3     6  TYR6        0.1605
      3  C         91.2410   29.1380   12.7730 C.2     6  TYR6        0.2264
      4  O         91.1500   30.3640   12.7820 O.2     6  TYR6       -0.2867
      5  CB        93.1030   28.4600   14.2650 C.3     6  TYR6        0.0534
      6  CG        94.1020   27.3860   14.6060 C.ar    6  TYR6       -0.0201
      7  CD1       95.4260   27.5190   14.2510 C.ar    6  TYR6       -0.0009
      8  CD2       93.7370   26.2450   15.3230 C.ar    6  TYR6       -0.0009
      9  CE1       96.3540   26.5720   14.5840 C.ar    6  TYR6        0.0417
     10  CE2       94.6630   25.2810   15.6590 C.ar    6  TYR6        0.0417
     11  CZ        95.9820   25.4600   15.2860 C.ar    6  TYR6        0.1957
     12  OH        96.9620   24.5430   15.6160 O.3     6  TYR6       -0.2866
     13  N         83.4200   29.1190   18.5710 N.3    10  TRP10      -0.1241
     14  CA        82.6780   30.0290   19.4450 C.3    10  TRP10       0.1605
     15  C         82.5840   31.4500   18.9030 C.2    10  TRP10       0.2264
     16  O         81.8770   32.2940   19.4700 O.2    10  TRP10      -0.2867
     17  CB        83.2670   30.0130   20.8680 C.3    10  TRP10       0.0550
     18  CG        84.6880   30.4850   20.9530 C.ar   10  TRP10       0.0003
     19  CD1       85.1030   31.7430   21.2040 C.ar   10  TRP10       0.0946
     20  CD2       85.8660   29.7000   20.7660 C.ar   10  TRP10       0.0152
     21  NE1       86.4780   31.8080   21.2010 N.ar   10  TRP10      -0.2442
     22  CE2       86.9720   30.5630   20.9260 C.ar   10  TRP10       0.0810
     23  CE3       86.0970   28.3520   20.4840 C.ar   10  TRP10       0.0012
     24  CZ2       88.2880   30.1210   20.7990 C.ar   10  TRP10       0.0191
     25  CZ3       87.3950   27.9230   20.3770 C.ar   10  TRP10       0.0001
     26  CH2       88.4680   28.7990   20.5530 C.ar   10  TRP10       0.0015
     27  N         79.7110   35.9060   18.7480 N.3    14  ARG14      -0.1245
     28  CA        79.9890   37.3270   18.8710 C.3    14  ARG14       0.1563
     29  C         78.8940   38.1310   18.1910 C.2    14  ARG14       0.2260
     30  O         78.2180   37.6480   17.2900 O.2    14  ARG14      -0.2867
     31  CB        81.3590   37.6450   18.2920 C.3    14  ARG14       0.0307
     32  CG        82.4350   36.9610   19.0690 C.3    14  ARG14       0.0489
     33  CD        83.7900   37.6100   18.9410 C.3    14  ARG14       0.2205
     34  NE        84.7320   36.7430   19.6270 N.pl3  14  ARG14      -0.0865
     35  CZ        85.6840   36.0200   19.0460 C.cat  14  ARG14       0.5346
     36  NH1       85.9440   36.0950   17.7500 N.pl3  14  ARG14       0.1354
     37  NH2       86.4080   35.2270   19.8070 N.pl3  14  ARG14       0.1354
     38  N         87.4790   23.8630   18.6750 N.3    37  PHE37      -0.1241
     39  CA        88.1810   22.6570   19.1190 C.3    37  PHE37       0.1605
     40  C         87.1740   21.5200   19.2420 C.2    37  PHE37       0.2264
     41  O         85.9860   21.7410   19.5120 O.2    37  PHE37      -0.2867
     42  CB        88.7990   22.8320   20.5200 C.3    37  PHE37       0.0534
     43  CG        89.9520   23.7900   20.5920 C.ar   37  PHE37      -0.0203
     44  CD1       91.1680   23.4730   20.0280 C.ar   37  PHE37      -0.0042
     45  CD2       89.8120   25.0180   21.2180 C.ar   37  PHE37      -0.0042
     46  CE1       92.2300   24.3560   20.0940 C.ar   37  PHE37      -0.0003
     47  CE2       90.8710   25.9000   21.3090 C.ar   37  PHE37      -0.0003
     48  CZ        92.0820   25.5790   20.7350 C.ar   37  PHE37      -0.0000
     49  N         92.7220   22.4330   23.6300 N.3    77  GLY77      -0.1210
     50  CA        92.7040   23.8650   23.7940 C.3    77  GLY77       0.1956
     51  C         93.0130   24.2860   25.2070 C.2    77  GLY77       0.2611
     52  O         93.0430   23.4880   26.1520 O.2    77  GLY77      -0.2717
     53  N         93.2170   25.5770   25.3700 N.am   78  TRP78      -0.1976
     54  CA        93.7490   26.0770   26.6210 C.3    78  TRP78       0.1640
     55  C         92.7990   26.0020   27.7990 C.2    78  TRP78       0.2290
     56  O         93.2710   26.0010   28.9310 O.2    78  TRP78      -0.2864
     57  CB        94.2820   27.4960   26.4520 C.3    78  TRP78       0.0576
     58  CG        93.2600   28.5840   26.2850 C.ar   78  TRP78       0.0006
     59  CD1       92.7710   29.4010   27.2660 C.ar   78  TRP78       0.0946
     60  CD2       92.6380   29.0130   25.0630 C.ar   78  TRP78       0.0152
     61  NE1       91.8930   30.3070   26.7280 N.ar   78  TRP78      -0.2442
     62  CE2       91.8070   30.0980   25.3770 C.ar   78  TRP78       0.0810
     63  CE3       92.7420   28.6100   23.7360 C.ar   78  TRP78       0.0012
     64  CZ2       91.0520   30.7480   24.4320 C.ar   78  TRP78       0.0191
     65  CZ3       92.0190   29.2840   22.7890 C.ar   78  TRP78       0.0001
     66  CH2       91.1810   30.3500   23.1410 C.ar   78  TRP78       0.0015
     67  N         96.2020   19.7410   20.7110 N.3   117  ASP117     -0.1239
     68  CA        96.3240   21.0060   21.4420 C.3   117  ASP117      0.1674
     69  C         96.1520   20.7620   22.9490 C.2   117  ASP117      0.2266
     70  O         95.2930   21.3480   23.6110 O.2   117  ASP117     -0.2867
     71  CB        95.3040   22.0440   20.9630 C.3   117  ASP117      0.1410
     72  CG        95.4950   22.4420   19.5250 C.2   117  ASP117      0.3668
     73  OD1       95.4990   21.5450   18.6630 O.co2 117  ASP117     -0.2456
     74  OD2       95.6400   23.6420   19.2370 O.co2 117  ASP117     -0.2456
     75  N         97.2880   21.4290   26.5440 N.3   119  GLU119     -0.1245
     76  CA        98.0380   22.4330   27.2990 C.3   119  GLU119      0.1567
     77  C         98.1300   22.0090   28.7560 C.2   119  GLU119      0.2260
     78  O         97.2160   22.2870   29.5370 O.2   119  GLU119     -0.2867
     79  CB        97.3660   23.8090   27.2080 C.3   119  GLU119      0.0388
     80  CG        97.3470   24.3640   25.8020 C.3   119  GLU119      0.1160
     81  CD        97.3260   25.8720   25.7430 C.2   119  GLU119      0.3649
     82  OE1       97.2590   26.5510   26.8020 O.co2 119  GLU119     -0.2457
     83  OE2       97.3400   26.3790   24.6090 O.co2 119  GLU119     -0.2457
     84  N        100.0460   21.7120   18.2790 N.3   162  ALA162     -0.1245
     85  CA       100.2770   23.0980   18.6720 C.3   162  ALA162      0.1562
     86  C        101.1100   23.0700   19.9400 C.2   162  ALA162      0.2260
     87  O        100.6940   22.5020   20.9470 O.2   162  ALA162     -0.2867
     88  CB        98.9530   23.7750   18.9240 C.3   162  ALA162      0.0290
     89  N        103.2950   28.0430   18.9810 N.3   189  MET189     -0.1245
     90  CA       102.4290   29.0890   19.5370 C.3   189  MET189      0.1570
     91  C        103.2720   30.2740   20.0000 C.2   189  MET189      0.2261
     92  O        103.4790   30.4900   21.1910 O.2   189  MET189     -0.2867
     93  CB       101.5870   28.5280   20.6710 C.3   189  MET189      0.0387
     94  CG       100.6590   27.4110   20.1990 C.3   189  MET189      0.0595
     95  SD        99.4800   26.8360   21.4320 S.3   189  MET189     -0.1393
     96  CE       100.5620   25.8940   22.4470 C.3   189  MET189      0.0692
     97  N        103.2790   33.3380   20.7250 N.3   191  TYR191     -0.1227
     98  CA       102.4560   34.4350   21.2190 C.3   191  TYR191      0.1736
     99  C        102.0970   34.1160   22.6780 C.2   191  TYR191      0.2595
    100  O        102.5210   33.0930   23.2070 O.2   191  TYR191     -0.2718
    101  CB       101.2350   34.6750   20.3090 C.3   191  TYR191      0.0548
    102  CG       100.6010   33.4460   19.7020 C.ar  191  TYR191     -0.0200
    103  CD1       99.9350   32.5110   20.4810 C.ar  191  TYR191     -0.0009
    104  CD2      100.6530   33.2350   18.3400 C.ar  191  TYR191     -0.0009
    105  CE1       99.3440   31.3900   19.9030 C.ar  191  TYR191      0.0417
    106  CE2      100.0670   32.1340   17.7650 C.ar  191  TYR191      0.0417
    107  CZ        99.4070   31.2250   18.5410 C.ar  191  TYR191      0.1957
    108  OH        98.8320   30.1330   17.9170 O.3   191  TYR191     -0.2866
    109  N        101.3590   34.9990   23.3260 N.am  192  ASP192     -0.1974
    110  CA       101.1340   34.9270   24.7650 C.3   192  ASP192      0.1709
    111  C        102.4580   34.9120   25.5460 C.2   192  ASP192      0.2293
    112  O        102.5490   34.3430   26.6190 O.2   192  ASP192     -0.2864
    113  CB       100.2590   33.7250   25.1700 C.3   192  ASP192      0.1436
    114  CG        98.8700   33.7720   24.5750 C.2   192  ASP192      0.3671
    115  OD1       98.3570   34.8530   24.2400 O.co2 192  ASP192     -0.2456
    116  OD2       98.2450   32.7100   24.4910 O.co2 192  ASP192     -0.2456
    117  N         95.6680   39.1190   17.2550 N.3   246  TYR246     -0.1241
    118  CA        95.1340   39.7370   18.4510 C.3   246  TYR246      0.1605
    119  C         96.2870   40.3250   19.2260 C.2   246  TYR246      0.2264
    120  O         97.4480   40.0290   18.9370 O.2   246  TYR246     -0.2867
    121  CB        94.4030   38.6950   19.3160 C.3   246  TYR246      0.0534
    122  CG        95.2960   37.6430   19.9250 C.ar  246  TYR246     -0.0201
    123  CD1       95.6200   36.5010   19.2290 C.ar  246  TYR246     -0.0009
    124  CD2       95.8150   37.7950   21.1910 C.ar  246  TYR246     -0.0009
    125  CE1       96.4540   35.5340   19.7920 C.ar  246  TYR246      0.0417
    126  CE2       96.6400   36.8370   21.7580 C.ar  246  TYR246      0.0417
    127  CZ        96.9590   35.7150   21.0450 C.ar  246  TYR246      0.1957
    128  OH        97.7600   34.7420   21.5710 O.3   246  TYR246     -0.2866
    129  N         97.4820   41.8450   23.4520 N.3   248  ARG248     -0.1245
    130  CA        97.2450   41.7610   24.8950 C.3   248  ARG248      0.1563
    131  C         97.3440   43.1320   25.5140 C.2   248  ARG248      0.2260
    132  O         98.2800   43.8970   25.2540 O.2   248  ARG248     -0.2867
    133  CB        98.1830   40.7590   25.5590 C.3   248  ARG248      0.0307
    134  CG        97.7480   39.3370   25.2300 C.3   248  ARG248      0.0489
    135  CD        98.5250   38.3380   25.9720 C.3   248  ARG248      0.2205
    136  NE        97.9370   37.0010   25.9100 N.pl3 248  ARG248     -0.0865
    137  CZ        97.0200   36.4980   26.7360 C.cat 248  ARG248      0.5346
    138  NH1       96.6090   35.2540   26.5470 N.pl3 248  ARG248      0.1354
    139  NH2       96.5080   37.2070   27.7300 N.pl3 248  ARG248      0.1354
    140  N         84.9090   41.2150   21.6790 N.3   274  THR274     -0.1218
    141  CA        85.4870   39.9900   22.2400 C.3   274  THR274      0.1862
    142  C         85.2370   39.8390   23.7370 C.2   274  THR274      0.2287
    143  O         85.2540   38.7230   24.2490 O.2   274  THR274     -0.2866
    144  CB        86.9920   39.8600   21.9320 C.3   274  THR274      0.1770
    145  OG1       87.6950   41.0310   22.3620 O.3   274  THR274     -0.2211
    146  CG2       87.2130   39.6710   20.4630 C.3   274  THR274      0.0375
    147  N         86.6790   40.2210   26.6440 N.3   276  GLU276     -0.1245
    148  CA        87.5840   39.4430   27.4760 C.3   276  GLU276      0.1567
    149  C         88.7560   40.3250   27.8780 C.2   276  GLU276      0.2260
    150  O         89.6760   40.5580   27.1080 O.2   276  GLU276     -0.2867
    151  CB        88.0890   38.2080   26.7400 C.3   276  GLU276      0.0388
    152  CG        88.7620   37.2480   27.6730 C.3   276  GLU276      0.1160
    153  CD        89.0100   35.8780   27.0600 C.2   276  GLU276      0.3649
    154  OE1       88.4570   35.5850   25.9810 O.co2 276  GLU276     -0.2457
    155  OE2       89.7500   35.0740   27.6700 O.co2 276  GLU276     -0.2457
    156  N         92.6870   40.9480   26.4770 N.3   279  MET279     -0.1230
    157  CA        92.7690   40.5280   25.0730 C.3   279  MET279      0.1702
    158  C         92.0460   41.5410   24.1990 C.2   279  MET279      0.2592
    159  O         91.0520   42.1090   24.6370 O.2   279  MET279     -0.2718
    160  CB        92.0240   39.2040   24.8800 C.3   279  MET279      0.0401
    161  CG        92.1830   38.1720   25.9790 C.3   279  MET279      0.0596
    162  SD        93.8930   37.7420   26.2980 S.3   279  MET279     -0.1393
    163  CE        94.4020   37.2510   24.6340 C.3   279  MET279      0.0692
    164  N         92.5040   41.7400   22.9620 N.am  280  LEU280     -0.1980
    165  CA        91.7280   42.4680   21.9580 C.3   280  LEU280      0.1596
    166  C         92.0000   41.8500   20.5990 C.2   280  LEU280      0.2287
    167  O         93.1290   41.5050   20.2920 O.2   280  LEU280     -0.2864
    168  CB        92.1130   43.9440   21.9000 C.3   280  LEU280      0.0297
    169  CG        91.8000   44.7750   23.1400 C.3   280  LEU280      0.0022
    170  CD1       92.4640   46.1470   23.0370 C.3   280  LEU280      0.0001
    171  CD2       90.2960   44.9180   23.3350 C.3   280  LEU280      0.0001
    172  N        101.5260   30.0440   10.8100 N.3   335  MET335     -0.1245
    173  CA       100.2770   29.5930   11.3900 C.3   335  MET335      0.1570
    174  C         99.6420   30.8190   12.0220 C.2   335  MET335      0.2261
    175  O        100.3530   31.7100   12.4760 O.2   335  MET335     -0.2867
    176  CB       100.5670   28.5040   12.4150 C.3   335  MET335      0.0387
    177  CG        99.3710   28.0910   13.2560 C.3   335  MET335      0.0595
    178  SD        99.1570   29.0410   14.7990 S.3   335  MET335     -0.1393
    179  CE       100.5090   28.3940   15.7880 C.3   335  MET335      0.0692
    180  N         96.5480   32.3930   14.6270 N.3   337  TRP337     -0.1241
    181  CA        95.4540   32.4120   15.5920 C.3   337  TRP337      0.1605
    182  C         94.9090   33.8290   15.5840 C.2   337  TRP337      0.2264
    183  O         95.5740   34.7200   16.1130 O.2   337  TRP337     -0.2867
    184  CB        95.9200   32.0480   17.0120 C.3   337  TRP337      0.0550
    185  CG        94.7100   31.8810   17.8670 C.ar  337  TRP337      0.0003
    186  CD1       94.0150   32.8610   18.5240 C.ar  337  TRP337      0.0946
    187  CD2       93.9910   30.6690   18.0750 C.ar  337  TRP337      0.0152
    188  NE1       92.9180   32.3230   19.1350 N.ar  337  TRP337     -0.2442
    189  CE2       92.8810   30.9770   18.8850 C.ar  337  TRP337      0.0810
    190  CE3       94.2010   29.3370   17.6920 C.ar  337  TRP337      0.0012
    191  CZ2       91.9630   30.0190   19.2830 C.ar  337  TRP337      0.0191
    192  CZ3       93.3110   28.3900   18.1090 C.ar  337  TRP337      0.0001
    193  CH2       92.2040   28.7330   18.9030 C.ar  337  TRP337      0.0015
    194  N         89.6720   36.8510   14.3300 N.3   341  LEU341     -0.1245
    195  CA        90.2530   37.9810   15.0630 C.3   341  LEU341      0.1561
    196  C         90.9450   38.9840   14.1510 C.2   341  LEU341      0.2260
    197  O         91.1500   40.1340   14.5420 O.2   341  LEU341     -0.2867
    198  CB        91.2240   37.4790   16.1270 C.3   341  LEU341      0.0270
    199  CG        90.5930   36.5400   17.1680 C.3   341  LEU341      0.0019
    200  CD1       91.6980   35.8870   17.9900 C.3   341  LEU341      0.0001
    201  CD2       89.5710   37.2370   18.0850 C.3   341  LEU341      0.0001
@<TRIPOS>BOND
     1   172   173    1
     2   173   174    1
     3   173   176    1
     4     1     2    1
     5   174   175    2
     6   176   177    1
     7     3     4    2
     8     3     2    1
     9     2     5    1
    10   177   178    1
    11   196   197    2
    12   196   195    1
    13     7     9   ar
    14     7     6   ar
    15     5     6    1
    16   194   195    1
    17     9    11   ar
    18     6     8   ar
    19   180   181    1
    20   178   179    1
    21   195   198    1
    22    11    12    1
    23    11    10   ar
    24     8    10   ar
    25   182   181    1
    26   182   183    2
    27   181   184    1
    28   198   199    1
    29   184   185    1
    30   199   200    1
    31   199   201    1
    32   117   118    1
    33    30    29    2
    34   190   187   ar
    35   190   192   ar
    36    36    35    1
    37   106   104   ar
    38   106   107   ar
    39   185   187   ar
    40   185   186   ar
    41   108   107    1
    42   187   189   ar
    43   192   193   ar
    44    29    28    1
    45    84    85    1
    46    31    28    1
    47    31    32    1
    48   104   102   ar
    49   118   119    1
    50   118   121    1
    51   186   188   ar
    52   107   105   ar
    53    13    14    1
    54    73    72   ar
    55    85    88    1
    56    85    86    1
    57    38    39    1
    58    27    28    1
    59   189   188   ar
    60   189   191   ar
    61   193   191   ar
    62    15    14    1
    63    15    16    2
    64   120   119    2
    65    33    32    1
    66    33    34    1
    67    89    90    1
    68    35    34    2
    69    35    37    1
    70    39    40    1
    71    39    42    1
    72   123   125   ar
    73   123   122   ar
    74    74    72   ar
    75    40    41    2
    76   121   122    1
    77    14    17    1
    78    72    71    1
    79    90    91    1
    80    90    93    1
    81   102   101    1
    82   102   103   ar
    83   125   127   ar
    84   105   103   ar
    85   122   124   ar
    86    86    87    2
    87    91    92    2
    88    44    46   ar
    89    44    43   ar
    90    46    48   ar
    91    94    93    1
    92    94    95    1
    93   167   166    2
    94   101    98    1
    95    25    23   ar
    96    25    26   ar
    97   146   144    1
    98    23    20   ar
    99    42    43    1
   100    26    24   ar
   101    43    45   ar
   102   166   165    1
   103    67    68    1
   104    97    98    1
   105    48    47   ar
   106    20    22   ar
   107    20    18   ar
   108    24    22   ar
   109    17    18    1
   110    22    21   ar
   111    18    19   ar
   112    71    68    1
   113   127   128    1
   114   127   126   ar
   115   124   126   ar
   116    21    19   ar
   117    45    47   ar
   118    98    99    1
   119    95    96    1
   120    68    69    1
   121   140   141    1
   122   168   165    1
   123   168   169    1
   124   144   141    1
   125   144   145    1
   126   165   164    1
   127   141   142    1
   128    99   100    2
   129    99   109   am
   130    65    66   ar
   131    65    63   ar
   132    69    70    2
   133   164   158   am
   134   170   169    1
   135   169   171    1
   136    66    64   ar
   137   109   110    1
   138   129   130    1
   139    49    50    1
   140    63    60   ar
   141   142   143    2
   142    50    51    1
   143   158   159    2
   144   158   157    1
   145   115   114   ar
   146    64    62   ar
   147   116   114   ar
   148   114   113    1
   149    83    81   ar
   150   163   162    1
   151   110   113    1
   152   110   111    1
   153   160   157    1
   154   160   161    1
   155   130   131    1
   156   130   133    1
   157    60    62   ar
   158    60    58   ar
   159   157   156    1
   160    51    53   am
   161    51    52    2
   162   134   133    1
   163   134   135    1
   164   132   131    2
   165    53    54    1
   166    62    61   ar
   167   111   112    2
   168    81    80    1
   169    81    82   ar
   170    80    79    1
   171   136   135    1
   172   136   137    2
   173   161   162    1
   174   154   153   ar
   175    58    57    1
   176    58    59   ar
   177    57    54    1
   178    75    76    1
   179   138   137    1
   180    54    55    1
   181   147   148    1
   182    61    59   ar
   183   137   139    1
   184   151   148    1
   185   151   152    1
   186   153   155   ar
   187   153   152    1
   188   150   149    2
   189    79    76    1
   190    76    77    1
   191   148   149    1
   192    55    56    2
   193    77    78    2
