@<TRIPOS>MOLECULE
tmp/5nraA00.pdb
 209 202 0 0 0
SMALL
GASTEIGER

@<TRIPOS>ATOM
      1  N         93.1270   28.8910   11.8990 N.3     6  TYR6       -0.1241
      2  CA        92.1440   28.3260   12.8190 C.3     6  TYR6        0.1605
      3  C         90.7960   29.0300   12.7530 C.2     6  TYR6        0.2264
      4  O         90.7140   30.2610   12.7800 O.2     6  TYR6       -0.2867
      5  CB        92.6480   28.3530   14.2520 C.3     6  TYR6        0.0534
      6  CG        93.6550   27.2880   14.5830 C.ar    6  TYR6       -0.0201
      7  CD1       94.9780   27.4270   14.2030 C.ar    6  TYR6       -0.0009
      8  CD2       93.2930   26.1480   15.2950 C.ar    6  TYR6       -0.0009
      9  CE1       95.9090   26.4690   14.5090 C.ar    6  TYR6        0.0417
     10  CE2       94.2370   25.1820   15.6190 C.ar    6  TYR6        0.0417
     11  CZ        95.5490   25.3540   15.2220 C.ar    6  TYR6        0.1957
     12  OH        96.5160   24.4280   15.5540 O.3     6  TYR6       -0.2866
     13  N         83.0080   29.0230   18.5530 N.3    10  TRP10      -0.1241
     14  CA        82.2640   29.9040   19.4500 C.3    10  TRP10       0.1605
     15  C         82.1650   31.3270   18.9000 C.2    10  TRP10       0.2264
     16  O         81.4620   32.1690   19.4700 O.2    10  TRP10      -0.2867
     17  CB        82.8540   29.9010   20.8710 C.3    10  TRP10       0.0550
     18  CG        84.2750   30.3820   20.9450 C.ar   10  TRP10       0.0003
     19  CD1       84.7030   31.6570   21.2120 C.ar   10  TRP10       0.0946
     20  CD2       85.4540   29.5960   20.7620 C.ar   10  TRP10       0.0152
     21  NE1       86.0730   31.7130   21.1860 N.ar   10  TRP10      -0.2442
     22  CE2       86.5580   30.4600   20.9150 C.ar   10  TRP10       0.0810
     23  CE3       85.6870   28.2480   20.4680 C.ar   10  TRP10       0.0012
     24  CZ2       87.8740   30.0130   20.7950 C.ar   10  TRP10       0.0191
     25  CZ3       86.9910   27.8130   20.3510 C.ar   10  TRP10       0.0001
     26  CH2       88.0690   28.6880   20.5250 C.ar   10  TRP10       0.0015
     27  N         79.2850   35.7530   18.7710 N.3    14  ARG14      -0.1245
     28  CA        79.5620   37.1780   18.9230 C.3    14  ARG14       0.1563
     29  C         78.4650   37.9960   18.2650 C.2    14  ARG14       0.2260
     30  O         77.7730   37.5200   17.3620 O.2    14  ARG14      -0.2867
     31  CB        80.9300   37.5280   18.3680 C.3    14  ARG14       0.0307
     32  CG        82.0020   36.7910   19.1080 C.3    14  ARG14       0.0489
     33  CD        83.3760   37.3770   18.9270 C.3    14  ARG14       0.2205
     34  NE        84.3060   36.5140   19.6330 N.pl3  14  ARG14      -0.0865
     35  CZ        85.2970   35.8460   19.0570 C.cat  14  ARG14       0.5346
     36  NH1       85.5290   35.9750   17.7540 N.pl3  14  ARG14       0.1354
     37  NH2       86.0540   35.0540   19.7960 N.pl3  14  ARG14       0.1354
     38  N         87.0540   23.8120   18.6670 N.3    37  PHE37      -0.1241
     39  CA        87.7630   22.6160   19.1170 C.3    37  PHE37       0.1605
     40  C         86.7700   21.4720   19.2380 C.2    37  PHE37       0.2264
     41  O         85.5730   21.6850   19.4680 O.2    37  PHE37      -0.2867
     42  CB        88.3680   22.7950   20.5170 C.3    37  PHE37       0.0534
     43  CG        89.5320   23.7340   20.5710 C.ar   37  PHE37      -0.0203
     44  CD1       90.7510   23.3830   20.0060 C.ar   37  PHE37      -0.0042
     45  CD2       89.4140   24.9720   21.1910 C.ar   37  PHE37      -0.0042
     46  CE1       91.8240   24.2580   20.0500 C.ar   37  PHE37      -0.0003
     47  CE2       90.4920   25.8410   21.2460 C.ar   37  PHE37      -0.0003
     48  CZ        91.6910   25.4850   20.6730 C.ar   37  PHE37      -0.0000
     49  N         92.1810   25.5550   25.6790 N.3    78  TRP78      -0.1241
     50  CA        92.5310   26.0250   27.0170 C.3    78  TRP78       0.1605
     51  C         91.4500   25.8880   28.0770 C.2    78  TRP78       0.2264
     52  O         91.7250   26.0750   29.2630 O.2    78  TRP78      -0.2867
     53  CB        93.0210   27.4720   26.9760 C.3    78  TRP78       0.0550
     54  CG        92.0200   28.4960   26.5240 C.ar   78  TRP78       0.0003
     55  CD1       91.2080   29.2630   27.3150 C.ar   78  TRP78       0.0946
     56  CD2       91.7800   28.9200   25.1750 C.ar   78  TRP78       0.0152
     57  NE1       90.4630   30.1190   26.5380 N.ar   78  TRP78      -0.2442
     58  CE2       90.8000   29.9350   25.2220 C.ar   78  TRP78       0.0810
     59  CE3       92.2880   28.5320   23.9330 C.ar   78  TRP78       0.0012
     60  CZ2       90.3270   30.5660   24.0740 C.ar   78  TRP78       0.0191
     61  CZ3       91.8170   29.1580   22.7940 C.ar   78  TRP78       0.0001
     62  CH2       90.8490   30.1690   22.8730 C.ar   78  TRP78       0.0015
     63  N         95.6980   19.6630   20.5870 N.3   117  ASP117     -0.1239
     64  CA        95.8160   20.9230   21.3200 C.3   117  ASP117      0.1674
     65  C         95.6520   20.7100   22.8250 C.2   117  ASP117      0.2266
     66  O         94.8520   21.3640   23.4830 O.2   117  ASP117     -0.2867
     67  CB        94.8030   21.9690   20.8300 C.3   117  ASP117      0.1410
     68  CG        95.0060   22.3530   19.3880 C.2   117  ASP117      0.3668
     69  OD1       95.0220   21.4410   18.5320 O.co2 117  ASP117     -0.2456
     70  OD2       95.1480   23.5580   19.0940 O.co2 117  ASP117     -0.2456
     71  N         96.6990   21.3630   26.4140 N.3   119  GLU119     -0.1231
     72  CA        97.4040   22.3910   27.1760 C.3   119  GLU119      0.1699
     73  C         97.5380   21.9750   28.6340 C.2   119  GLU119      0.2592
     74  O         96.6360   22.2600   29.4130 O.2   119  GLU119     -0.2718
     75  CB        96.6420   23.7230   27.1340 C.3   119  GLU119      0.0402
     76  CG        96.5330   24.3200   25.7590 C.3   119  GLU119      0.1161
     77  CD        96.0080   25.7510   25.7830 C.2   119  GLU119      0.3649
     78  OE1       96.1090   26.4240   26.8350 O.co2 119  GLU119     -0.2457
     79  OE2       95.4840   26.2090   24.7490 O.co2 119  GLU119     -0.2457
     80  N         98.6170   21.3050   29.0450 N.am  120  TYR120     -0.1976
     81  CA        99.7050   20.7850   28.2210 C.3   120  TYR120      0.1639
     82  C        100.1250   19.5060   28.9310 C.2   120  TYR120      0.2290
     83  O         99.9690   19.3980   30.1520 O.2   120  TYR120     -0.2864
     84  CB       100.9120   21.7300   28.2330 C.3   120  TYR120      0.0560
     85  CG       100.5990   23.1370   27.8030 C.ar  120  TYR120     -0.0198
     86  CD1      100.6360   23.4970   26.4630 C.ar  120  TYR120     -0.0009
     87  CD2      100.2500   24.1080   28.7360 C.ar  120  TYR120     -0.0009
     88  CE1      100.3360   24.7840   26.0620 C.ar  120  TYR120      0.0417
     89  CE2       99.9500   25.3980   28.3420 C.ar  120  TYR120      0.0417
     90  CZ        99.9940   25.7320   27.0020 C.ar  120  TYR120      0.1957
     91  OH        99.7000   27.0140   26.6000 O.3   120  TYR120     -0.2866
     92  N         99.5450   21.6370   18.1800 N.3   162  ALA162     -0.1245
     93  CA        99.7760   23.0180   18.5790 C.3   162  ALA162      0.1562
     94  C        100.6240   22.9730   19.8420 C.2   162  ALA162      0.2260
     95  O        100.2120   22.3790   20.8430 O.2   162  ALA162     -0.2867
     96  CB        98.4520   23.6920   18.8480 C.3   162  ALA162      0.0290
     97  N        102.8050   27.9040   18.8940 N.3   189  MET189     -0.1245
     98  CA       101.9670   28.9560   19.4550 C.3   189  MET189      0.1570
     99  C        102.8080   30.1370   19.9180 C.2   189  MET189      0.2261
    100  O        103.0090   30.3660   21.1150 O.2   189  MET189     -0.2867
    101  CB       101.1310   28.3990   20.5970 C.3   189  MET189      0.0387
    102  CG       100.2090   27.2810   20.1450 C.3   189  MET189      0.0595
    103  SD        99.0290   26.7030   21.3440 S.3   189  MET189     -0.1393
    104  CE       100.1120   25.7880   22.3180 C.3   189  MET189      0.0692
    105  N        102.7770   33.1960   20.6430 N.3   191  TYR191     -0.1227
    106  CA       101.9720   34.2890   21.1520 C.3   191  TYR191      0.1736
    107  C        101.6190   33.9600   22.6030 C.2   191  TYR191      0.2595
    108  O        102.0600   32.9320   23.1240 O.2   191  TYR191     -0.2718
    109  CB       100.7380   34.5470   20.2770 C.3   191  TYR191      0.0548
    110  CG       100.1140   33.3200   19.6560 C.ar  191  TYR191     -0.0200
    111  CD1       99.4550   32.3800   20.4350 C.ar  191  TYR191     -0.0009
    112  CD2      100.1520   33.1220   18.2810 C.ar  191  TYR191     -0.0009
    113  CE1       98.8730   31.2570   19.8640 C.ar  191  TYR191      0.0417
    114  CE2       99.5730   32.0160   17.6940 C.ar  191  TYR191      0.0417
    115  CZ        98.9280   31.0920   18.4860 C.ar  191  TYR191      0.1957
    116  OH        98.3540   30.0010   17.8820 O.3   191  TYR191     -0.2866
    117  N        100.8640   34.8330   23.2600 N.am  192  ASP192     -0.1974
    118  CA       100.6430   34.7260   24.6980 C.3   192  ASP192      0.1709
    119  C        101.9690   34.7130   25.4710 C.2   192  ASP192      0.2293
    120  O        102.0700   34.1020   26.5310 O.2   192  ASP192     -0.2864
    121  CB        99.7990   33.4950   25.0700 C.3   192  ASP192      0.1436
    122  CG        98.3680   33.5600   24.5490 C.2   192  ASP192      0.3671
    123  OD1       97.8600   34.6560   24.2470 O.co2 192  ASP192     -0.2456
    124  OD2       97.7370   32.4930   24.4550 O.co2 192  ASP192     -0.2456
    125  N         95.2010   38.9640   17.2470 N.3   246  TYR246     -0.1241
    126  CA        94.6630   39.5650   18.4510 C.3   246  TYR246      0.1605
    127  C         95.8090   40.1700   19.2280 C.2   246  TYR246      0.2264
    128  O         96.9790   39.8960   18.9480 O.2   246  TYR246     -0.2867
    129  CB        93.9380   38.5190   19.3030 C.3   246  TYR246      0.0534
    130  CG        94.8390   37.4740   19.9260 C.ar  246  TYR246     -0.0201
    131  CD1       95.1820   36.3270   19.2250 C.ar  246  TYR246     -0.0009
    132  CD2       95.3410   37.6350   21.2120 C.ar  246  TYR246     -0.0009
    133  CE1       96.0000   35.3660   19.7860 C.ar  246  TYR246      0.0417
    134  CE2       96.1720   36.6850   21.7810 C.ar  246  TYR246      0.0417
    135  CZ        96.4960   35.5510   21.0610 C.ar  246  TYR246      0.1957
    136  OH        97.3020   34.5750   21.6020 O.3   246  TYR246     -0.2866
    137  N         96.9900   41.6640   23.4480 N.3   248  ARG248     -0.1245
    138  CA        96.7250   41.5420   24.8740 C.3   248  ARG248      0.1563
    139  C         96.8570   42.8890   25.5630 C.2   248  ARG248      0.2260
    140  O         97.8250   43.6210   25.3410 O.2   248  ARG248     -0.2867
    141  CB        97.6060   40.4690   25.5080 C.3   248  ARG248      0.0307
    142  CG        97.2300   39.0880   24.9870 C.3   248  ARG248      0.0489
    143  CD        97.8830   37.9690   25.7330 C.3   248  ARG248      0.2205
    144  NE        97.2600   37.7530   27.0290 N.pl3 248  ARG248     -0.0865
    145  CZ        97.3030   36.5930   27.6680 C.cat 248  ARG248      0.5346
    146  NH1       96.7330   36.4620   28.8560 N.pl3 248  ARG248      0.1354
    147  NH2       97.9240   35.5660   27.1110 N.pl3 248  ARG248      0.1354
    148  N         84.4770   41.0480   21.7130 N.3   274  THR274     -0.1218
    149  CA        85.0510   39.8190   22.2600 C.3   274  THR274      0.1862
    150  C         84.7960   39.6660   23.7560 C.2   274  THR274      0.2287
    151  O         84.8160   38.5490   24.2670 O.2   274  THR274     -0.2866
    152  CB        86.5480   39.6630   21.9360 C.3   274  THR274      0.1770
    153  OG1       87.2690   40.8200   22.3760 O.3   274  THR274     -0.2211
    154  CG2       86.7580   39.4720   20.4440 C.3   274  THR274      0.0375
    155  N         86.2200   40.0520   26.6850 N.3   276  GLU276     -0.1245
    156  CA        87.1190   39.2620   27.5080 C.3   276  GLU276      0.1567
    157  C         88.2950   40.1270   27.9220 C.2   276  GLU276      0.2260
    158  O         89.2050   40.3740   27.1330 O.2   276  GLU276     -0.2867
    159  CB        87.5950   38.0230   26.7480 C.3   276  GLU276      0.0388
    160  CG        88.3420   37.0460   27.6110 C.3   276  GLU276      0.1160
    161  CD        88.5130   35.6720   26.9840 C.2   276  GLU276      0.3649
    162  OE1       88.0160   35.4420   25.8610 O.co2 276  GLU276     -0.2457
    163  OE2       89.1530   34.8170   27.6320 O.co2 276  GLU276     -0.2457
    164  N         92.2070   40.6900   26.4830 N.3   279  MET279     -0.1230
    165  CA        92.4010   40.3550   25.0740 C.3   279  MET279      0.1702
    166  C         91.5720   41.2730   24.2000 C.2   279  MET279      0.2592
    167  O         90.5130   41.7360   24.6130 O.2   279  MET279     -0.2718
    168  CB        91.9860   38.9110   24.7760 C.3   279  MET279      0.0401
    169  CG        93.0960   37.9050   24.8850 C.3   279  MET279      0.0596
    170  SD        93.4370   37.5120   26.5990 S.3   279  MET279     -0.1393
    171  CE        91.8700   36.8430   27.1370 C.3   279  MET279      0.0692
    172  N         92.0500   41.5150   22.9830 N.am  280  LEU280     -0.1980
    173  CA        91.2910   42.2580   21.9800 C.3   280  LEU280      0.1596
    174  C         91.5430   41.6590   20.6120 C.2   280  LEU280      0.2287
    175  O         92.6680   41.3010   20.2940 O.2   280  LEU280     -0.2864
    176  CB        91.6900   43.7340   21.9440 C.3   280  LEU280      0.0297
    177  CG        91.3440   44.5690   23.1770 C.3   280  LEU280      0.0022
    178  CD1       91.9810   45.9360   23.0620 C.3   280  LEU280      0.0001
    179  CD2       89.8470   44.7050   23.3720 C.3   280  LEU280      0.0001
    180  N        101.0690   29.9490   10.7580 N.3   335  MET335     -0.1245
    181  CA        99.8130   29.5030   11.3440 C.3   335  MET335      0.1570
    182  C         99.1710   30.7340   11.9620 C.2   335  MET335      0.2261
    183  O         99.8750   31.6290   12.4250 O.2   335  MET335     -0.2867
    184  CB       100.0840   28.4070   12.3850 C.3   335  MET335      0.0387
    185  CG        98.8840   27.9790   13.2250 C.3   335  MET335      0.0595
    186  SD        98.6830   28.9510   14.7400 S.3   335  MET335     -0.1393
    187  CE       100.0250   28.2770   15.7230 C.3   335  MET335      0.0692
    188  N         96.1110   32.3070   14.6070 N.3   337  TRP337     -0.1241
    189  CA        95.0130   32.3080   15.5590 C.3   337  TRP337      0.1605
    190  C         94.4650   33.7280   15.5880 C.2   337  TRP337      0.2264
    191  O         95.1430   34.6080   16.1110 O.2   337  TRP337     -0.2867
    192  CB        95.4720   31.9250   16.9810 C.3   337  TRP337      0.0550
    193  CG        94.2780   31.7510   17.8410 C.ar  337  TRP337      0.0003
    194  CD1       93.5810   32.7290   18.5010 C.ar  337  TRP337      0.0946
    195  CD2       93.5650   30.5320   18.0550 C.ar  337  TRP337      0.0152
    196  NE1       92.4900   32.1780   19.1310 N.ar  337  TRP337     -0.2442
    197  CE2       92.4630   30.8300   18.8790 C.ar  337  TRP337      0.0810
    198  CE3       93.7820   29.2040   17.6650 C.ar  337  TRP337      0.0012
    199  CZ2       91.5600   29.8560   19.2940 C.ar  337  TRP337      0.0191
    200  CZ3       92.8930   28.2430   18.0760 C.ar  337  TRP337      0.0001
    201  CH2       91.7920   28.5700   18.8810 C.ar  337  TRP337      0.0015
    202  N         89.2430   36.7040   14.3570 N.3   341  LEU341     -0.1245
    203  CA        89.8200   37.8300   15.0800 C.3   341  LEU341      0.1561
    204  C         90.4870   38.8470   14.1460 C.2   341  LEU341      0.2260
    205  O         90.6950   39.9970   14.5350 O.2   341  LEU341     -0.2867
    206  CB        90.7910   37.3450   16.1530 C.3   341  LEU341      0.0270
    207  CG        90.1820   36.3760   17.1680 C.3   341  LEU341      0.0019
    208  CD1       91.2660   35.7360   18.0040 C.3   341  LEU341      0.0001
    209  CD2       89.1710   37.0910   18.0580 C.3   341  LEU341      0.0001
@<TRIPOS>BOND
     1   180   181    1
     2   181   182    1
     3   181   184    1
     4     1     2    1
     5   182   183    2
     6   184   185    1
     7     3     4    2
     8     3     2    1
     9     2     5    1
    10   185   186    1
    11   204   205    2
    12   204   203    1
    13     7     9   ar
    14     7     6   ar
    15     5     6    1
    16   202   203    1
    17     9    11   ar
    18     6     8   ar
    19   188   189    1
    20   186   187    1
    21   203   206    1
    22    11    12    1
    23    11    10   ar
    24     8    10   ar
    25   189   190    1
    26   189   192    1
    27   190   191    2
    28   206   207    1
    29   192   193    1
    30   207   208    1
    31   207   209    1
    32   125   126    1
    33    30    29    2
    34   198   195   ar
    35   198   200   ar
    36   114   112   ar
    37   114   115   ar
    38    36    35    1
    39   193   195   ar
    40   193   194   ar
    41   116   115    1
    42   195   197   ar
    43   200   201   ar
    44    92    93    1
    45    29    28    1
    46   112   110   ar
    47    31    28    1
    48    31    32    1
    49   126   127    1
    50   126   129    1
    51   115   113   ar
    52   194   196   ar
    53    69    68   ar
    54    13    14    1
    55    93    96    1
    56    93    94    1
    57    38    39    1
    58    27    28    1
    59   197   196   ar
    60   197   199   ar
    61   201   199   ar
    62    97    98    1
    63    15    14    1
    64    15    16    2
    65    33    32    1
    66    33    34    1
    67   128   127    2
    68    35    34    2
    69    35    37    1
    70    70    68   ar
    71    39    40    1
    72    39    42    1
    73   131   133   ar
    74   131   130   ar
    75    40    41    2
    76   129   130    1
    77    68    67    1
    78    14    17    1
    79    98    99    1
    80    98   101    1
    81   110   109    1
    82   110   111   ar
    83   133   135   ar
    84    94    95    2
    85   113   111   ar
    86    99   100    2
    87   130   132   ar
    88    44    46   ar
    89    44    43   ar
    90    46    48   ar
    91   102   101    1
    92   102   103    1
    93   109   106    1
    94   175   174    2
    95    25    23   ar
    96    25    26   ar
    97   154   152    1
    98    23    20   ar
    99    42    43    1
   100    26    24   ar
   101    43    45   ar
   102    63    64    1
   103   174   173    1
   104   105   106    1
   105    48    47   ar
   106    20    22   ar
   107    20    18   ar
   108    24    22   ar
   109    67    64    1
   110    17    18    1
   111    22    21   ar
   112    18    19   ar
   113   135   136    1
   114   135   134   ar
   115   106   107    1
   116    21    19   ar
   117    45    47   ar
   118   132   134   ar
   119    64    65    1
   120   103   104    1
   121   148   149    1
   122   152   149    1
   123   152   153    1
   124   176   173    1
   125   176   177    1
   126   173   172    1
   127   149   150    1
   128   107   108    2
   129   107   117   am
   130    61    62   ar
   131    61    59   ar
   132    65    66    2
   133    62    60   ar
   134   172   166   am
   135   178   177    1
   136   177   179    1
   137   117   118    1
   138   137   138    1
   139   150   151    2
   140    59    56   ar
   141    60    58   ar
   142   166   167    2
   143   166   165    1
   144   123   122   ar
   145   124   122   ar
   146   122   121    1
   147   118   121    1
   148   118   119    1
   149    79    77   ar
   150   168   169    1
   151   168   165    1
   152   138   141    1
   153   138   139    1
   154   169   170    1
   155   142   141    1
   156   142   143    1
   157   165   164    1
   158    56    58   ar
   159    56    54   ar
   160    58    57   ar
   161   140   139    2
   162   119   120    2
   163    49    50    1
   164   143   144    1
   165    76    77    1
   166    76    75    1
   167    77    78   ar
   168   162   161   ar
   169    88    86   ar
   170    88    90   ar
   171    71    72    1
   172    86    85   ar
   173    54    53    1
   174    54    55   ar
   175    57    55   ar
   176   170   171    1
   177    91    90    1
   178   155   156    1
   179   159   156    1
   180   159   160    1
   181    53    50    1
   182   161   160    1
   183   161   163   ar
   184    90    89   ar
   185    50    51    1
   186   144   145    2
   187   147   145    1
   188   158   157    2
   189    75    72    1
   190    72    73    1
   191   156   157    1
   192   145   146    1
   193    85    84    1
   194    85    87   ar
   195    51    52    2
   196    81    84    1
   197    81    82    1
   198    81    80    1
   199    89    87   ar
   200    73    80   am
   201    73    74    2
   202    82    83    2
