@<TRIPOS>MOLECULE
tmp/5nreA00.pdb
 121 122 0 0 0
SMALL
GASTEIGER

@<TRIPOS>ATOM
      1  N        -36.6590   13.5540   13.7190 N.3   166  GLN166     -0.1245
      2  CA       -35.6980   14.5390   14.1840 C.3   166  GLN166      0.1566
      3  C        -36.4300   15.5340   15.0980 C.2   166  GLN166      0.2260
      4  O        -37.5250   15.9950   14.7780 O.2   166  GLN166     -0.2867
      5  CB       -35.0330   15.2310   12.9830 C.3   166  GLN166      0.0367
      6  CG       -33.6190   15.6900   13.2570 C.3   166  GLN166      0.0905
      7  CD       -33.5500   17.1310   13.7690 C.2   166  GLN166      0.2608
      8  OE1      -34.5450   17.6740   14.2980 O.2   166  GLN166     -0.2717
      9  NE2      -32.3850   17.7540   13.6100 N.am  166  GLN166     -0.0878
     10  N        -36.2330   18.6640   16.1400 N.3   168  TRP168     -0.1227
     11  CA       -36.5760   20.0440   15.8090 C.3   168  TRP168      0.1737
     12  C        -37.6800   20.1480   14.7800 C.2   168  TRP168      0.2595
     13  O        -38.3280   21.1940   14.6910 O.2   168  TRP168     -0.2718
     14  CB       -35.3530   20.8140   15.3000 C.3   168  TRP168      0.0564
     15  CG       -34.3460   21.0600   16.3720 C.ar  168  TRP168      0.0003
     16  CD1      -33.3600   20.2080   16.7780 C.ar  168  TRP168      0.0946
     17  CD2      -34.2410   22.2270   17.2020 C.ar  168  TRP168      0.0152
     18  NE1      -32.6490   20.7660   17.8160 N.ar  168  TRP168     -0.2442
     19  CE2      -33.1620   22.0130   18.0840 C.ar  168  TRP168      0.0810
     20  CE3      -34.9570   23.4280   17.2830 C.ar  168  TRP168      0.0012
     21  CZ2      -32.7730   22.9590   19.0340 C.ar  168  TRP168      0.0191
     22  CZ3      -34.5800   24.3730   18.2330 C.ar  168  TRP168      0.0001
     23  CH2      -33.4970   24.1300   19.0980 C.ar  168  TRP168      0.0015
     24  N        -37.9650   19.0830   14.0470 N.am  169  TRP169     -0.1976
     25  CA       -38.8070   19.2090   12.8660 C.3   169  TRP169      0.1640
     26  C        -40.0580   18.3520   12.9140 C.2   169  TRP169      0.2290
     27  O        -40.8220   18.3530   11.9480 O.2   169  TRP169     -0.2864
     28  CB       -37.9840   18.8700   11.6080 C.3   169  TRP169      0.0576
     29  CG       -36.9040   19.8330   11.3900 C.ar  169  TRP169      0.0006
     30  CD1      -35.5990   19.6840   11.7240 C.ar  169  TRP169      0.0946
     31  CD2      -37.0280   21.1420   10.8240 C.ar  169  TRP169      0.0152
     32  NE1      -34.8840   20.8090   11.3720 N.ar  169  TRP169     -0.2442
     33  CE2      -35.7440   21.7230   10.8280 C.ar  169  TRP169      0.0810
     34  CE3      -38.0960   21.8690   10.3070 C.ar  169  TRP169      0.0012
     35  CZ2      -35.4970   23.0090   10.3340 C.ar  169  TRP169      0.0191
     36  CZ3      -37.8540   23.1520    9.8150 C.ar  169  TRP169      0.0001
     37  CH2      -36.5670   23.7090    9.8430 C.ar  169  TRP169      0.0015
     38  N        -35.4730   20.3770    5.7830 N.3   178  THR178     -0.1218
     39  CA       -34.1440   20.6580    5.2420 C.3   178  THR178      0.1862
     40  C        -33.6240   19.4680    4.4390 C.2   178  THR178      0.2287
     41  O        -32.4840   19.0190    4.6200 O.2   178  THR178     -0.2866
     42  CB       -33.1430   21.0320    6.3500 C.3   178  THR178      0.1770
     43  OG1      -33.0080   19.9560    7.2830 O.3   178  THR178     -0.2211
     44  CG2      -33.6190   22.2510    7.1060 C.3   178  THR178      0.0375
     45  N        -39.1730   14.3000    8.5370 N.3   197  TYR197     -0.1241
     46  CA       -37.7480   14.5290    8.4860 C.3   197  TYR197      0.1605
     47  C        -37.0890   13.5870    9.4930 C.2   197  TYR197      0.2264
     48  O        -37.1960   13.7830   10.7130 O.2   197  TYR197     -0.2867
     49  CB       -37.3940   15.9880    8.7490 C.3   197  TYR197      0.0534
     50  CG       -35.9510   16.1950    8.4360 C.ar  197  TYR197     -0.0201
     51  CD1      -34.9910   16.2140    9.4340 C.ar  197  TYR197     -0.0009
     52  CD2      -35.5340   16.3030    7.1160 C.ar  197  TYR197     -0.0009
     53  CE1      -33.6620   16.3920    9.1200 C.ar  197  TYR197      0.0417
     54  CE2      -34.2300   16.4710    6.7970 C.ar  197  TYR197      0.0417
     55  CZ       -33.2930   16.5200    7.7860 C.ar  197  TYR197      0.1957
     56  OH       -31.9690   16.6550    7.4280 O.3   197  TYR197     -0.2866
     57  N        -33.9400   11.5660   11.3810 N.3   199  HIS199     -0.1241
     58  CA       -32.6590   11.8870   11.9760 C.3   199  HIS199      0.1621
     59  C        -31.6720   10.7460   11.7260 C.2   199  HIS199      0.2264
     60  O        -31.9870    9.5890   11.9960 O.2   199  HIS199     -0.2867
     61  CB       -32.8840   12.1460   13.4590 C.3   199  HIS199      0.0745
     62  CG       -31.7590   12.8330   14.1550 C.ar  199  HIS199      0.0817
     63  ND1      -31.7930   13.0940   15.5170 N.ar  199  HIS199     -0.2268
     64  CD2      -30.5800   13.3250   13.7060 C.ar  199  HIS199      0.1154
     65  CE1      -30.6750   13.6990   15.8700 C.ar  199  HIS199      0.1986
     66  NE2      -29.9210   13.8490   14.7930 N.ar  199  HIS199     -0.2212
     67  N        -27.0620   17.7570    4.1780 N.3   233  TRP233     -0.1241
     68  CA       -26.8410   17.1520    5.4900 C.3   233  TRP233      0.1605
     69  C        -26.2410   15.7590    5.3280 C.2   233  TRP233      0.2264
     70  O        -26.4770   14.8660    6.1360 O.2   233  TRP233     -0.2867
     71  CB       -28.1380   17.1540    6.2930 C.3   233  TRP233      0.0550
     72  CG       -28.4800   18.5460    6.7450 C.ar  233  TRP233      0.0003
     73  CD1      -29.4480   19.3700    6.2400 C.ar  233  TRP233      0.0946
     74  CD2      -27.8120   19.2920    7.7680 C.ar  233  TRP233      0.0152
     75  NE1      -29.4310   20.5810    6.8990 N.ar  233  TRP233     -0.2442
     76  CE2      -28.4350   20.5540    7.8420 C.ar  233  TRP233      0.0810
     77  CE3      -26.7510   19.0120    8.6310 C.ar  233  TRP233      0.0012
     78  CZ2      -28.0280   21.5290    8.7400 C.ar  233  TRP233      0.0191
     79  CZ3      -26.3540   19.9840    9.5330 C.ar  233  TRP233      0.0001
     80  CH2      -26.9910   21.2240    9.5790 C.ar  233  TRP233      0.0015
     81  N        -27.5000   12.1140    6.1920 N.3   236  GLU236     -0.1245
     82  CA       -28.8820   12.3270    6.6240 C.3   236  GLU236      0.1567
     83  C        -29.7690   12.7140    5.4590 C.2   236  GLU236      0.2260
     84  O        -30.9530   12.3550    5.4350 O.2   236  GLU236     -0.2867
     85  CB       -28.9470   13.3950    7.6960 C.3   236  GLU236      0.0388
     86  CG       -30.3340   13.6030    8.2830 C.3   236  GLU236      0.1160
     87  CD       -30.2620   14.4310    9.5110 C.2   236  GLU236      0.3649
     88  OE1      -30.4720   15.6480    9.3920 O.co2 236  GLU236     -0.2457
     89  OE2      -29.9660   13.8730   10.6020 O.co2 236  GLU236     -0.2457
     90  N        -33.5860   16.7280   21.9170 N.3   259  ASP259     -0.1239
     91  CA       -32.6190   17.8000   22.1390 C.3   259  ASP259      0.1674
     92  C        -33.1730   18.7030   23.2420 C.2   259  ASP259      0.2266
     93  O        -34.1130   19.4660   22.9920 O.2   259  ASP259     -0.2867
     94  CB       -32.3770   18.6030   20.8630 C.3   259  ASP259      0.1410
     95  CG       -31.3030   19.6830   21.0280 C.2   259  ASP259      0.3668
     96  OD1      -30.7530   19.8540   22.1410 O.co2 259  ASP259     -0.2456
     97  OD2      -31.0020   20.3380   20.0160 O.co2 259  ASP259     -0.2456
     98  N        -32.1640   21.3420   24.4170 N.3   261  HIS261     -0.1241
     99  CA       -32.0670   22.7700   24.1290 C.3   261  HIS261      0.1621
    100  C        -33.3730   23.3200   23.5820 C.2   261  HIS261      0.2264
    101  O        -33.6040   24.5320   23.6450 O.2   261  HIS261     -0.2867
    102  CB       -30.9380   23.0390   23.1330 C.3   261  HIS261      0.0745
    103  CG       -30.6850   24.4910   22.9000 C.ar  261  HIS261      0.0817
    104  ND1      -30.0060   25.2820   23.8030 N.ar  261  HIS261     -0.2268
    105  CD2      -31.0360   25.3030   21.8740 C.ar  261  HIS261      0.1154
    106  CE1      -29.9350   26.5160   23.3310 C.ar  261  HIS261      0.1986
    107  NE2      -30.5520   26.5540   22.1630 N.ar  261  HIS261     -0.2212
    108  N        -29.7330   14.2650   22.9350 N.3   275  TRP275     -0.1241
    109  CA       -28.5200   14.7560   22.3020 C.3   275  TRP275      0.1605
    110  C        -27.5340   15.1710   23.3850 C.2   275  TRP275      0.2264
    111  O        -27.9210   15.7320   24.4160 O.2   275  TRP275     -0.2867
    112  CB       -28.8010   15.9650   21.4300 C.3   275  TRP275      0.0550
    113  CG       -29.7800   15.8360   20.3270 C.ar  275  TRP275      0.0003
    114  CD1      -30.8040   14.9600   20.2040 C.ar  275  TRP275      0.0946
    115  CD2      -29.8310   16.6810   19.1800 C.ar  275  TRP275      0.0152
    116  NE1      -31.5060   15.2140   19.0380 N.ar  275  TRP275     -0.2442
    117  CE2      -30.9310   16.2730   18.3980 C.ar  275  TRP275      0.0810
    118  CE3      -29.0660   17.7600   18.7540 C.ar  275  TRP275      0.0012
    119  CZ2      -31.2660   16.8920   17.1860 C.ar  275  TRP275      0.0191
    120  CZ3      -29.3870   18.3650   17.5440 C.ar  275  TRP275      0.0001
    121  CH2      -30.4800   17.9270   16.7770 C.ar  275  TRP275      0.0015
@<TRIPOS>BOND
     1    67    68    1
     2    40    41    2
     3    40    39    1
     4    39    38    1
     5    39    42    1
     6    69    68    1
     7    69    70    2
     8    84    83    2
     9    83    82    1
    10    68    71    1
    11    81    82    1
    12    73    72   ar
    13    73    75   ar
    14    71    72    1
    15    42    44    1
    16    42    43    1
    17    82    85    1
    18    72    74   ar
    19    54    52   ar
    20    54    55   ar
    21    75    76   ar
    22    52    50   ar
    23    56    55    1
    24    85    86    1
    25    74    76   ar
    26    74    77   ar
    27    55    53   ar
    28    76    78   ar
    29    86    87    1
    30    50    49    1
    31    50    51   ar
    32    46    45    1
    33    46    49    1
    34    46    47    1
    35    77    79   ar
    36    78    80   ar
    37    53    51   ar
    38    88    87   ar
    39    47    48    2
    40    87    89   ar
    41    79    80   ar
    42    36    37   ar
    43    36    34   ar
    44    37    35   ar
    45    34    31   ar
    46    35    33   ar
    47    31    33   ar
    48    31    29   ar
    49    33    32   ar
    50    32    30   ar
    51    57    58    1
    52    29    28    1
    53    29    30   ar
    54    28    25    1
    55    59    58    1
    56    59    60    2
    57    27    26    2
    58    58    61    1
    59    25    26    1
    60    25    24    1
    61     5     6    1
    62     5     2    1
    63     6     7    1
    64    61    62    1
    65     9     7   am
    66    64    62   ar
    67    64    66   ar
    68     1     2    1
    69     7     8    2
    70    24    12   am
    71    62    63   ar
    72     2     3    1
    73    13    12    2
    74     4     3    2
    75    12    11    1
    76    66    65   ar
    77    14    11    1
    78    14    15    1
    79    63    65   ar
    80    11    10    1
    81    15    16   ar
    82    15    17   ar
    83   121   119   ar
    84   121   120   ar
    85    16    18   ar
    86   119   117   ar
    87    17    20   ar
    88    17    19   ar
    89    20    22   ar
    90   120   118   ar
    91    18    19   ar
    92    19    21   ar
    93    22    23   ar
    94   117   116   ar
    95   117   115   ar
    96   118   115   ar
    97    21    23   ar
    98   116   114   ar
    99   115   113   ar
   100    97    95   ar
   101   114   113   ar
   102   113   112    1
   103    94    95    1
   104    94    91    1
   105    95    96   ar
   106   112   109    1
   107   105   107   ar
   108   105   103   ar
   109    90    91    1
   110    91    92    1
   111   107   106   ar
   112   109   108    1
   113   109   110    1
   114   103   102    1
   115   103   104   ar
   116    93    92    2
   117   102    99    1
   118   106   104   ar
   119   110   111    2
   120   100   101    2
   121   100    99    1
   122    99    98    1
