@<TRIPOS>MOLECULE
tmp/5nrfA00.pdb
 214 207 0 0 0
SMALL
GASTEIGER

@<TRIPOS>ATOM
      1  N         93.3230   29.0060   11.9610 N.3     6  TYR6       -0.1241
      2  CA        92.3330   28.4560   12.8800 C.3     6  TYR6        0.1605
      3  C         90.9820   29.1530   12.8080 C.2     6  TYR6        0.2264
      4  O         90.8840   30.3840   12.8470 O.2     6  TYR6       -0.2867
      5  CB        92.8320   28.4820   14.3160 C.3     6  TYR6        0.0534
      6  CG        93.8550   27.4200   14.6280 C.ar    6  TYR6       -0.0201
      7  CD1       95.1800   27.5640   14.2350 C.ar    6  TYR6       -0.0009
      8  CD2       93.5010   26.2750   15.3360 C.ar    6  TYR6       -0.0009
      9  CE1       96.1210   26.5960   14.5390 C.ar    6  TYR6        0.0417
     10  CE2       94.4370   25.3040   15.6510 C.ar    6  TYR6        0.0417
     11  CZ        95.7460   25.4670   15.2450 C.ar    6  TYR6        0.1957
     12  OH        96.6920   24.5180   15.5530 O.3     6  TYR6       -0.2866
     13  N         83.1940   29.1180   18.6270 N.3    10  TRP10      -0.1241
     14  CA        82.4440   30.0150   19.5110 C.3    10  TRP10       0.1605
     15  C         82.3460   31.4380   18.9650 C.2    10  TRP10       0.2264
     16  O         81.6450   32.2810   19.5370 O.2    10  TRP10      -0.2867
     17  CB        83.0310   30.0040   20.9310 C.3    10  TRP10       0.0550
     18  CG        84.4550   30.4890   20.9990 C.ar   10  TRP10       0.0003
     19  CD1       84.8760   31.7590   21.2650 C.ar   10  TRP10       0.0946
     20  CD2       85.6370   29.7050   20.8120 C.ar   10  TRP10       0.0152
     21  NE1       86.2490   31.8170   21.2430 N.ar   10  TRP10      -0.2442
     22  CE2       86.7410   30.5690   20.9580 C.ar   10  TRP10       0.0810
     23  CE3       85.8690   28.3590   20.5200 C.ar   10  TRP10       0.0012
     24  CZ2       88.0580   30.1230   20.8480 C.ar   10  TRP10       0.0191
     25  CZ3       87.1700   27.9210   20.4020 C.ar   10  TRP10       0.0001
     26  CH2       88.2510   28.7990   20.5670 C.ar   10  TRP10       0.0015
     27  N         79.4880   35.8840   18.8420 N.3    14  ARG14      -0.1245
     28  CA        79.7710   37.3110   18.9910 C.3    14  ARG14       0.1563
     29  C         78.6710   38.1290   18.3370 C.2    14  ARG14       0.2260
     30  O         77.9970   37.6550   17.4190 O.2    14  ARG14      -0.2867
     31  CB        81.1400   37.6680   18.4240 C.3    14  ARG14       0.0307
     32  CG        82.2420   36.8700   19.0760 C.3    14  ARG14       0.0489
     33  CD        83.5820   37.5770   19.1080 C.3    14  ARG14       0.2205
     34  NE        84.5120   36.6950   19.7930 N.pl3  14  ARG14      -0.0865
     35  CZ        85.4620   35.9820   19.1950 C.cat  14  ARG14       0.5346
     36  NH1       85.6690   36.0860   17.8820 N.pl3  14  ARG14       0.1354
     37  NH2       86.2220   35.1800   19.9220 N.pl3  14  ARG14       0.1354
     38  N         87.2300   23.8970   18.7170 N.3    37  PHE37      -0.1241
     39  CA        87.9530   22.7040   19.1570 C.3    37  PHE37       0.1605
     40  C         86.9720   21.5480   19.2770 C.2    37  PHE37       0.2264
     41  O         85.7710   21.7410   19.5130 O.2    37  PHE37      -0.2867
     42  CB        88.5530   22.8850   20.5590 C.3    37  PHE37       0.0534
     43  CG        89.7140   23.8280   20.6210 C.ar   37  PHE37      -0.0203
     44  CD1       90.9430   23.4800   20.0730 C.ar   37  PHE37      -0.0042
     45  CD2       89.5830   25.0560   21.2630 C.ar   37  PHE37      -0.0042
     46  CE1       92.0240   24.3680   20.1340 C.ar   37  PHE37      -0.0003
     47  CE2       90.6560   25.9420   21.3370 C.ar   37  PHE37      -0.0003
     48  CZ        91.8750   25.5990   20.7760 C.ar   37  PHE37      -0.0000
     49  N         92.3820   25.6890   25.7140 N.3    78  TRP78      -0.1241
     50  CA        92.7360   26.1770   27.0440 C.3    78  TRP78       0.1605
     51  C         91.6740   26.0030   28.1230 C.2    78  TRP78       0.2264
     52  O         91.9750   26.1480   29.3100 O.2    78  TRP78      -0.2867
     53  CB        93.2050   27.6360   26.9980 C.3    78  TRP78       0.0550
     54  CG        92.1950   28.6380   26.5480 C.ar   78  TRP78       0.0003
     55  CD1       91.3740   29.3960   27.3400 C.ar   78  TRP78       0.0946
     56  CD2       91.9430   29.0470   25.2020 C.ar   78  TRP78       0.0152
     57  NE1       90.6150   30.2390   26.5620 N.ar   78  TRP78      -0.2442
     58  CE2       90.9480   30.0480   25.2470 C.ar   78  TRP78       0.0810
     59  CE3       92.4540   28.6580   23.9630 C.ar   78  TRP78       0.0012
     60  CZ2       90.4540   30.6570   24.0980 C.ar   78  TRP78       0.0191
     61  CZ3       91.9750   29.2710   22.8260 C.ar   78  TRP78       0.0001
     62  CH2       90.9800   30.2610   22.8990 C.ar   78  TRP78       0.0015
     63  N         95.8950   19.7580   20.6510 N.3   117  ASP117     -0.1239
     64  CA        96.0190   21.0170   21.3920 C.3   117  ASP117      0.1674
     65  C         95.8710   20.8220   22.8980 C.2   117  ASP117      0.2266
     66  O         95.0840   21.4920   23.5660 O.2   117  ASP117     -0.2867
     67  CB        95.0040   22.0500   20.8960 C.3   117  ASP117      0.1410
     68  CG        95.2190   22.4240   19.4560 C.2   117  ASP117      0.3668
     69  OD1       95.2360   21.5140   18.6090 O.co2 117  ASP117     -0.2456
     70  OD2       95.3770   23.6160   19.1530 O.co2 117  ASP117     -0.2456
     71  N         96.8910   21.4590   26.5000 N.3   119  GLU119     -0.1231
     72  CA        97.5920   22.4830   27.2730 C.3   119  GLU119      0.1699
     73  C         97.7320   22.0670   28.7350 C.2   119  GLU119      0.2592
     74  O         96.8380   22.3600   29.5360 O.2   119  GLU119     -0.2718
     75  CB        96.8370   23.8250   27.2140 C.3   119  GLU119      0.0402
     76  CG        96.7140   24.4310   25.8270 C.3   119  GLU119      0.1161
     77  CD        96.2010   25.8700   25.8520 C.2   119  GLU119      0.3649
     78  OE1       96.2420   26.5030   26.9280 O.co2 119  GLU119     -0.2457
     79  OE2       95.7460   26.3730   24.7950 O.co2 119  GLU119     -0.2457
     80  N         98.8180   21.3980   29.1300 N.am  120  TYR120     -0.1976
     81  CA        99.8970   20.8980   28.2870 C.3   120  TYR120      0.1639
     82  C        100.3220   19.6230   28.9970 C.2   120  TYR120      0.2290
     83  O        100.1560   19.5170   30.2160 O.2   120  TYR120     -0.2864
     84  CB       101.0970   21.8470   28.2930 C.3   120  TYR120      0.0560
     85  CG       100.7780   23.2560   27.8750 C.ar  120  TYR120     -0.0198
     86  CD1      100.7920   23.6200   26.5390 C.ar  120  TYR120     -0.0009
     87  CD2      100.4500   24.2250   28.8200 C.ar  120  TYR120     -0.0009
     88  CE1      100.4920   24.9130   26.1500 C.ar  120  TYR120      0.0417
     89  CE2      100.1480   25.5130   28.4420 C.ar  120  TYR120      0.0417
     90  CZ       100.1700   25.8550   27.1050 C.ar  120  TYR120      0.1957
     91  OH        99.8690   27.1420   26.7290 O.3   120  TYR120     -0.2866
     92  N         99.7770   21.7280   18.2670 N.3   162  ALA162     -0.1245
     93  CA       100.0040   23.1140   18.6570 C.3   162  ALA162      0.1562
     94  C        100.8390   23.0720   19.9270 C.2   162  ALA162      0.2260
     95  O        100.4180   22.4970   20.9330 O.2   162  ALA162     -0.2867
     96  CB        98.6810   23.8100   18.9110 C.3   162  ALA162      0.0290
     97  N        103.0190   28.0280   18.9810 N.3   189  MET189     -0.1245
     98  CA       102.1750   29.0800   19.5440 C.3   189  MET189      0.1570
     99  C        103.0240   30.2570   20.0050 C.2   189  MET189      0.2261
    100  O        103.2360   30.4710   21.2040 O.2   189  MET189     -0.2867
    101  CB       101.3240   28.5270   20.6840 C.3   189  MET189      0.0387
    102  CG       100.3620   27.4560   20.2080 C.3   189  MET189      0.0595
    103  SD        99.2770   26.8200   21.4790 S.3   189  MET189     -0.1393
    104  CE       100.3800   25.7850   22.4850 C.3   189  MET189      0.0692
    105  N        103.0130   33.3350   20.7620 N.3   191  TYR191     -0.1227
    106  CA       102.2110   34.4380   21.2680 C.3   191  TYR191      0.1736
    107  C        101.8470   34.1090   22.7120 C.2   191  TYR191      0.2595
    108  O        102.2620   33.0670   23.2220 O.2   191  TYR191     -0.2718
    109  CB       100.9790   34.7030   20.3790 C.3   191  TYR191      0.0548
    110  CG       100.3530   33.4750   19.7320 C.ar  191  TYR191     -0.0200
    111  CD1       99.7240   32.5020   20.5040 C.ar  191  TYR191     -0.0009
    112  CD2      100.3780   33.3020   18.3470 C.ar  191  TYR191     -0.0009
    113  CE1       99.1420   31.3760   19.9090 C.ar  191  TYR191      0.0417
    114  CE2       99.8020   32.1980   17.7490 C.ar  191  TYR191      0.0417
    115  CZ        99.1900   31.2360   18.5260 C.ar  191  TYR191      0.1957
    116  OH        98.6230   30.1400   17.9090 O.3   191  TYR191     -0.2866
    117  N        101.0960   34.9900   23.3670 N.am  192  ASP192     -0.1974
    118  CA       100.8510   34.8860   24.8040 C.3   192  ASP192      0.1709
    119  C        102.1590   34.8860   25.5970 C.2   192  ASP192      0.2293
    120  O        102.2430   34.2800   26.6620 O.2   192  ASP192     -0.2864
    121  CB       100.0160   33.6440   25.1690 C.3   192  ASP192      0.1436
    122  CG        98.5920   33.6920   24.6200 C.2   192  ASP192      0.3671
    123  OD1       98.0910   34.7800   24.2800 O.co2 192  ASP192     -0.2456
    124  OD2       97.9590   32.6220   24.5240 O.co2 192  ASP192     -0.2456
    125  N         95.4100   39.1030   17.3370 N.3   246  TYR246     -0.1241
    126  CA        94.8590   39.7110   18.5330 C.3   246  TYR246      0.1605
    127  C         96.0080   40.3150   19.3200 C.2   246  TYR246      0.2264
    128  O         97.1850   40.0470   19.0370 O.2   246  TYR246     -0.2867
    129  CB        94.1150   38.6660   19.3820 C.3   246  TYR246      0.0534
    130  CG        95.0200   37.6130   19.9870 C.ar  246  TYR246     -0.0201
    131  CD1       95.3680   36.4730   19.2680 C.ar  246  TYR246     -0.0009
    132  CD2       95.5300   37.7560   21.2720 C.ar  246  TYR246     -0.0009
    133  CE1       96.2060   35.5000   19.8180 C.ar  246  TYR246      0.0417
    134  CE2       96.3740   36.7970   21.8260 C.ar  246  TYR246      0.0417
    135  CZ        96.7010   35.6710   21.0960 C.ar  246  TYR246      0.1957
    136  OH        97.5280   34.7110   21.6390 O.3   246  TYR246     -0.2866
    137  N         97.1730   41.8590   23.5610 N.3   248  ARG248     -0.1245
    138  CA        96.8970   41.7340   24.9890 C.3   248  ARG248      0.1563
    139  C         97.0500   43.0810   25.6740 C.2   248  ARG248      0.2260
    140  O         98.0130   43.8160   25.4280 O.2   248  ARG248     -0.2867
    141  CB        97.7440   40.6330   25.6320 C.3   248  ARG248      0.0307
    142  CG        97.3650   39.2600   25.0780 C.3   248  ARG248      0.0489
    143  CD        98.0190   38.1210   25.7990 C.3   248  ARG248      0.2205
    144  NE        97.4940   37.9360   27.1450 N.pl3 248  ARG248     -0.0865
    145  CZ        97.5590   36.7810   27.7960 C.cat 248  ARG248      0.5346
    146  NH1       97.0850   36.6700   29.0300 N.pl3 248  ARG248      0.1354
    147  NH2       98.1080   35.7320   27.1990 N.pl3 248  ARG248      0.1354
    148  N         84.7180   41.1770   21.7900 N.3   274  THR274     -0.1218
    149  CA        85.3040   39.9630   22.3590 C.3   274  THR274      0.1862
    150  C         85.0400   39.8260   23.8560 C.2   274  THR274      0.2287
    151  O         85.0790   38.7130   24.3910 O.2   274  THR274     -0.2866
    152  CB        86.8030   39.8430   22.0610 C.3   274  THR274      0.1770
    153  OG1       87.4810   41.0310   22.4870 O.3   274  THR274     -0.2211
    154  CG2       87.0360   39.6420   20.5740 C.3   274  THR274      0.0375
    155  N         86.4150   40.2480   26.7850 N.3   276  GLU276     -0.1245
    156  CA        87.2920   39.4520   27.6280 C.3   276  GLU276      0.1567
    157  C         88.4770   40.3080   28.0460 C.2   276  GLU276      0.2260
    158  O         89.3870   40.5670   27.2530 O.2   276  GLU276     -0.2867
    159  CB        87.7590   38.2000   26.8830 C.3   276  GLU276      0.0388
    160  CG        88.2970   37.1560   27.8160 C.3   276  GLU276      0.1160
    161  CD        88.5450   35.8010   27.1660 C.2   276  GLU276      0.3649
    162  OE1       88.1730   35.5970   25.9930 O.co2 276  GLU276     -0.2457
    163  OE2       89.1400   34.9350   27.8410 O.co2 276  GLU276     -0.2457
    164  N         92.3990   40.9540   26.6480 N.3   279  MET279     -0.1230
    165  CA        92.5100   40.5250   25.2500 C.3   279  MET279      0.1702
    166  C         91.7490   41.4970   24.3410 C.2   279  MET279      0.2592
    167  O         90.7440   42.0650   24.7620 O.2   279  MET279     -0.2718
    168  CB        91.9070   39.1220   25.0810 C.3   279  MET279      0.0401
    169  CG        92.1640   38.1680   26.2430 C.3   279  MET279      0.0596
    170  SD        93.9020   37.7800   26.4820 S.3   279  MET279     -0.1393
    171  CE        94.3000   36.9070   24.9680 C.3   279  MET279      0.0692
    172  N         92.2240   41.7000   23.1080 N.am  280  LEU280     -0.1966
    173  CA        91.4670   42.4340   22.0870 C.3   280  LEU280      0.1728
    174  C         91.7330   41.8260   20.7240 C.2   280  LEU280      0.2616
    175  O         92.8630   41.4520   20.4220 O.2   280  LEU280     -0.2715
    176  CB        91.8710   43.9160   22.0480 C.3   280  LEU280      0.0311
    177  CG        91.5440   44.7840   23.2650 C.3   280  LEU280      0.0022
    178  CD1       92.2030   46.1450   23.1210 C.3   280  LEU280      0.0001
    179  CD2       90.0470   44.9420   23.4340 C.3   280  LEU280      0.0001
    180  N         90.6980   41.7360   19.8980 N.am  281  ALA281     -0.1977
    181  CA        90.8690   41.3540   18.5000 C.3   281  ALA281      0.1597
    182  C         91.5730   42.4760   17.7520 C.2   281  ALA281      0.2287
    183  O         91.4930   43.6490   18.1580 O.2   281  ALA281     -0.2864
    184  CB        89.5200   41.0750   17.8580 C.3   281  ALA281      0.0319
    185  N        101.2900   30.0650   10.8350 N.3   335  MET335     -0.1245
    186  CA       100.0300   29.6310   11.4080 C.3   335  MET335      0.1570
    187  C         99.3940   30.8610   12.0370 C.2   335  MET335      0.2261
    188  O        100.0990   31.7590   12.4930 O.2   335  MET335     -0.2867
    189  CB       100.2970   28.5300   12.4430 C.3   335  MET335      0.0387
    190  CG        99.0890   28.1260   13.2840 C.3   335  MET335      0.0595
    191  SD        98.9230   29.0690   14.8120 S.3   335  MET335     -0.1393
    192  CE       100.2950   28.3810   15.7410 C.3   335  MET335      0.0692
    193  N         96.3080   32.4410   14.6810 N.3   337  TRP337     -0.1241
    194  CA        95.1870   32.4590   15.6040 C.3   337  TRP337      0.1605
    195  C         94.6550   33.8880   15.6400 C.2   337  TRP337      0.2264
    196  O         95.3350   34.7640   16.1690 O.2   337  TRP337     -0.2867
    197  CB        95.6250   32.0620   17.0220 C.3   337  TRP337      0.0550
    198  CG        94.4240   31.8740   17.8780 C.ar  337  TRP337      0.0003
    199  CD1       93.7200   32.8500   18.5460 C.ar  337  TRP337      0.0946
    200  CD2       93.7180   30.6500   18.0890 C.ar  337  TRP337      0.0152
    201  NE1       92.6370   32.2900   19.1780 N.ar  337  TRP337     -0.2442
    202  CE2       92.6180   30.9430   18.9210 C.ar  337  TRP337      0.0810
    203  CE3       93.9360   29.3270   17.6880 C.ar  337  TRP337      0.0012
    204  CZ2       91.7170   29.9640   19.3320 C.ar  337  TRP337      0.0191
    205  CZ3       93.0490   28.3610   18.0990 C.ar  337  TRP337      0.0001
    206  CH2       91.9520   28.6810   18.9210 C.ar  337  TRP337      0.0015
    207  N         89.4260   36.8590   14.4270 N.3   341  LEU341     -0.1245
    208  CA        90.0110   37.9790   15.1720 C.3   341  LEU341      0.1561
    209  C         90.6830   39.0050   14.2520 C.2   341  LEU341      0.2260
    210  O         90.8770   40.1530   14.6300 O.2   341  LEU341     -0.2867
    211  CB        90.9820   37.4600   16.2430 C.3   341  LEU341      0.0270
    212  CG        90.3590   36.5370   17.2990 C.3   341  LEU341      0.0019
    213  CD1       91.4550   35.8800   18.1230 C.3   341  LEU341      0.0001
    214  CD2       89.3740   37.2680   18.2170 C.3   341  LEU341      0.0001
@<TRIPOS>BOND
     1   185   186    1
     2   186   187    1
     3   186   189    1
     4     1     2    1
     5   187   188    2
     6   189   190    1
     7     3     4    2
     8     3     2    1
     9     2     5    1
    10   190   191    1
    11     7     9   ar
    12     7     6   ar
    13   209   210    2
    14   209   208    1
    15     5     6    1
    16   207   208    1
    17     9    11   ar
    18     6     8   ar
    19   193   194    1
    20   191   192    1
    21   208   211    1
    22    11    12    1
    23    11    10   ar
    24     8    10   ar
    25   194   195    1
    26   194   197    1
    27   195   196    2
    28   211   212    1
    29   197   198    1
    30   212   213    1
    31   212   214    1
    32   125   126    1
    33    30    29    2
    34   203   200   ar
    35   203   205   ar
    36   114   112   ar
    37   114   115   ar
    38   182   183    2
    39   182   181    1
    40   184   181    1
    41   198   200   ar
    42   198   199   ar
    43    36    35    1
    44   116   115    1
    45   200   202   ar
    46   205   206   ar
    47    92    93    1
    48    29    28    1
    49   112   110   ar
    50    31    28    1
    51    31    32    1
    52   181   180    1
    53   115   113   ar
    54   126   127    1
    55   126   129    1
    56   199   201   ar
    57    69    68   ar
    58    13    14    1
    59    93    96    1
    60    93    94    1
    61    38    39    1
    62    27    28    1
    63   206   204   ar
    64   202   201   ar
    65   202   204   ar
    66    15    14    1
    67    15    16    2
    68    97    98    1
    69   128   127    2
    70    32    33    1
    71    33    34    1
    72    70    68   ar
    73    39    40    1
    74    39    42    1
    75    35    34    2
    76    35    37    1
    77   131   133   ar
    78   131   130   ar
    79    40    41    2
    80   129   130    1
    81    68    67    1
    82    14    17    1
    83    98    99    1
    84    98   101    1
    85   110   109    1
    86   110   111   ar
    87   133   135   ar
    88   180   174   am
    89   113   111   ar
    90    94    95    2
    91   130   132   ar
    92    99   100    2
    93    44    46   ar
    94    44    43   ar
    95    46    48   ar
    96   102   101    1
    97   102   103    1
    98   109   106    1
    99    25    23   ar
   100    25    26   ar
   101   175   174    2
   102    23    20   ar
   103    42    43    1
   104    26    24   ar
   105   154   152    1
   106    43    45   ar
   107    63    64    1
   108   174   173    1
   109   105   106    1
   110    48    47   ar
   111    20    22   ar
   112    20    18   ar
   113    24    22   ar
   114    67    64    1
   115    17    18    1
   116    22    21   ar
   117    18    19   ar
   118   135   136    1
   119   135   134   ar
   120    21    19   ar
   121    45    47   ar
   122   106   107    1
   123   132   134   ar
   124    64    65    1
   125   103   104    1
   126   148   149    1
   127   176   173    1
   128   176   177    1
   129   152   149    1
   130   152   153    1
   131   173   172    1
   132   149   150    1
   133   107   108    2
   134   107   117   am
   135    61    62   ar
   136    61    59   ar
   137    65    66    2
   138    62    60   ar
   139   172   166   am
   140   178   177    1
   141   177   179    1
   142   117   118    1
   143   137   138    1
   144   150   151    2
   145    59    56   ar
   146    60    58   ar
   147   123   122   ar
   148   166   167    2
   149   166   165    1
   150   124   122   ar
   151   122   121    1
   152    79    77   ar
   153   118   121    1
   154   118   119    1
   155   171   170    1
   156   138   141    1
   157   138   139    1
   158   142   141    1
   159   142   143    1
   160   168   165    1
   161   168   169    1
   162    56    58   ar
   163    56    54   ar
   164    58    57   ar
   165   165   164    1
   166   140   139    2
   167   119   120    2
   168    49    50    1
   169   143   144    1
   170    76    77    1
   171    76    75    1
   172    77    78   ar
   173   162   161   ar
   174    88    86   ar
   175    88    90   ar
   176   169   170    1
   177    71    72    1
   178    86    85   ar
   179    54    53    1
   180    54    55   ar
   181    57    55   ar
   182    91    90    1
   183   155   156    1
   184   159   156    1
   185   159   160    1
   186    53    50    1
   187    50    51    1
   188    90    89   ar
   189   144   145    2
   190   161   160    1
   191   161   163   ar
   192   147   145    1
   193    75    72    1
   194   158   157    2
   195    72    73    1
   196   156   157    1
   197   145   146    1
   198    85    84    1
   199    85    87   ar
   200    51    52    2
   201    81    84    1
   202    81    82    1
   203    81    80    1
   204    89    87   ar
   205    73    80   am
   206    73    74    2
   207    82    83    2
