@<TRIPOS>MOLECULE
tmp/5nriA00.pdb
 141 134 0 0 0
SMALL
GASTEIGER

@<TRIPOS>ATOM
      1  N         49.0810   20.1570   58.9580 N.3   103  LYS103     -0.1245
      2  CA        49.8130   18.9580   59.3910 C.3   103  LYS103      0.1561
      3  C         50.4830   18.1350   58.2960 C.2   103  LYS103      0.2260
      4  O         51.5290   17.5580   58.5610 O.2   103  LYS103     -0.2867
      5  CB        48.9800   18.0280   60.3480 C.3   103  LYS103      0.0271
      6  CG        48.6510   18.7240   61.6630 C.3   103  LYS103      0.0035
      7  CD        48.1000   17.6770   62.6550 C.3   103  LYS103      0.0206
      8  CE        47.5010   18.4150   63.8080 C.3   103  LYS103      0.1093
      9  NZ        46.1920   17.7830   64.1310 N.3   103  LYS103     -0.1314
     10  N         54.9410   10.4760   63.3560 N.3   118  PRO118     -0.2116
     11  CA        54.3820    9.1030   63.1630 C.3   118  PRO118      0.1372
     12  C         54.3080    8.7650   61.6490 C.2   118  PRO118      0.2244
     13  O         53.9380    9.6190   60.8320 O.2   118  PRO118     -0.2868
     14  CB        52.9850    9.2200   63.6650 C.3   118  PRO118      0.0268
     15  CG        53.0830   10.2740   64.7700 C.3   118  PRO118      0.0207
     16  CD        54.0870   11.3110   64.2520 C.3   118  PRO118      0.0892
     17  N         45.3360    6.9620   63.8140 N.3   145  PHE145     -0.1241
     18  CA        44.6800    8.2390   64.0150 C.3   145  PHE145      0.1605
     19  C         44.3040    8.8790   62.6530 C.2   145  PHE145      0.2264
     20  O         45.2540    9.0290   61.8150 O.2   145  PHE145     -0.2867
     21  CB        45.5240    9.1610   64.8400 C.3   145  PHE145      0.0534
     22  CG        45.4360    8.8700   66.3120 C.ar  145  PHE145     -0.0203
     23  CD1       46.2300    7.9270   66.9100 C.ar  145  PHE145     -0.0042
     24  CD2       44.5480    9.6350   67.0760 C.ar  145  PHE145     -0.0042
     25  CE1       46.0830    7.6790   68.3040 C.ar  145  PHE145     -0.0003
     26  CE2       44.3910    9.3400   68.4380 C.ar  145  PHE145     -0.0003
     27  CZ        45.1620    8.3880   69.0140 C.ar  145  PHE145     -0.0000
     28  N         43.0240   12.2030   60.8100 N.3   147  LYS147     -0.1245
     29  CA        42.9670   13.6200   61.1530 C.3   147  LYS147      0.1561
     30  C         42.9460   14.5230   59.8830 C.2   147  LYS147      0.2260
     31  O         43.5310   14.1530   58.8490 O.2   147  LYS147     -0.2867
     32  CB        44.2600   13.9380   61.9140 C.3   147  LYS147      0.0271
     33  CG        44.7670   12.8230   62.8490 C.3   147  LYS147      0.0035
     34  CD        45.6050   13.2280   64.0340 C.3   147  LYS147      0.0206
     35  CE        47.0660   13.2940   63.6970 C.3   147  LYS147      0.1093
     36  NZ        48.0850   13.6040   64.7530 N.3   147  LYS147     -0.1314
     37  N         39.6270   14.5840   65.3340 N.3   157  VAL157     -0.1245
     38  CA        40.5470   13.4310   65.2970 C.3   157  VAL157      0.1561
     39  C         39.8390   12.1770   65.7840 C.2   157  VAL157      0.2260
     40  O         39.1360   12.2080   66.7990 O.2   157  VAL157     -0.2867
     41  CB        41.7890   13.7460   66.1080 C.3   157  VAL157      0.0252
     42  CG1       42.6640   12.5950   66.4090 C.3   157  VAL157      0.0019
     43  CG2       42.5720   14.8400   65.5120 C.3   157  VAL157      0.0019
     44  N         47.7150    8.3380   60.5140 N.3   183  GLU183     -0.1231
     45  CA        48.9220    8.1000   61.2460 C.3   183  GLU183      0.1699
     46  C         48.8990    6.7430   62.0050 C.2   183  GLU183      0.2592
     47  O         47.8790    6.4060   62.6030 O.2   183  GLU183     -0.2718
     48  CB        49.2310    9.1530   62.3530 C.3   183  GLU183      0.0402
     49  CG        49.8620   10.4200   61.8270 C.3   183  GLU183      0.1161
     50  CD        50.1770   11.4590   62.8750 C.2   183  GLU183      0.3649
     51  OE1       49.5030   11.4180   63.9470 O.co2 183  GLU183     -0.2457
     52  OE2       51.0970   12.2600   62.7120 O.co2 183  GLU183     -0.2457
     53  N         50.0400    6.0890   62.0110 N.am  184  LYS184     -0.1966
     54  CA        50.2690    5.0080   62.9780 C.3   184  LYS184      0.1728
     55  C         50.0330    5.6380   64.4180 C.2   184  LYS184      0.2617
     56  O         50.6380    6.6680   64.7250 O.2   184  LYS184     -0.2715
     57  CB        51.6680    4.4870   62.8970 C.3   184  LYS184      0.0311
     58  CG        52.0430    3.3750   63.8530 C.3   184  LYS184      0.0038
     59  CD        53.3630    2.8350   63.5990 C.3   184  LYS184      0.0206
     60  CE        53.6530    1.6360   64.5820 C.3   184  LYS184      0.1093
     61  NZ        54.4680    2.1100   65.6860 N.3   184  LYS184     -0.1314
     62  N         49.3270    4.8770   65.2600 N.am  185  SER185     -0.1936
     63  CA        49.1840    5.2690   66.6540 C.3   185  SER185      0.2055
     64  C         50.4590    4.9280   67.3810 C.2   185  SER185      0.2642
     65  O         51.0130    3.8420   67.3150 O.2   185  SER185     -0.2714
     66  CB        48.0230    4.5860   67.2780 C.3   185  SER185      0.2130
     67  OG        47.9070    4.9860   68.6330 O.3   185  SER185     -0.2179
     68  N         50.9770    5.9180   68.1060 N.am  186  ILE186     -0.1977
     69  CA        52.1760    5.7560   68.8930 C.3   186  ILE186      0.1596
     70  C         51.6480    5.2720   70.3160 C.2   186  ILE186      0.2287
     71  O         50.9840    6.0750   71.0110 O.2   186  ILE186     -0.2864
     72  CB        52.9890    7.0360   69.0180 C.3   186  ILE186      0.0276
     73  CG1       53.2360    7.5990   67.6040 C.3   186  ILE186      0.0022
     74  CG2       54.2380    6.8950   69.8100 C.3   186  ILE186      0.0022
     75  CD1       53.9300    6.6440   66.6320 C.3   186  ILE186      0.0001
     76  N         52.6210   11.1330   76.4510 N.3   191  GLU191     -0.1301
     77  CA        52.3840   12.3460   75.6700 C.3   191  GLU191      0.1252
     78  C         53.0890   13.5150   76.2800 C.3   191  GLU191      0.2009
     79  O         52.9770   13.6870   77.5490 O.3   191  GLU191     -0.2188
     80  CB        50.9180   12.5910   75.3790 C.3   191  GLU191      0.0335
     81  CG        50.6850   13.8000   74.4560 C.3   191  GLU191      0.1156
     82  CD        49.3940   13.8860   73.7940 C.2   191  GLU191      0.3649
     83  OE1       48.4720   13.1240   74.0920 O.co2 191  GLU191     -0.2457
     84  OE2       49.1970   14.8480   72.9740 O.co2 191  GLU191     -0.2457
     85  N         42.8370    9.3990   74.6810 N.3   213  PHE213     -0.1227
     86  CA        43.8400   10.3130   74.1240 C.3   213  PHE213      0.1736
     87  C         43.4320   11.7150   74.4650 C.2   213  PHE213      0.2595
     88  O         42.3940   11.9120   75.0920 O.2   213  PHE213     -0.2718
     89  CB        44.0750   10.0880   72.5830 C.3   213  PHE213      0.0547
     90  CG        42.8950   10.3790   71.7080 C.ar  213  PHE213     -0.0202
     91  CD1       42.6800   11.6540   71.1980 C.ar  213  PHE213     -0.0042
     92  CD2       42.0280    9.3710   71.3430 C.ar  213  PHE213     -0.0042
     93  CE1       41.5910   11.9020   70.3770 C.ar  213  PHE213     -0.0003
     94  CE2       40.9490    9.6180   70.5000 C.ar  213  PHE213     -0.0003
     95  CZ        40.7330   10.8700   70.0260 C.ar  213  PHE213     -0.0000
     96  N         44.2540   12.7040   74.0960 N.am  214  TYR214     -0.1976
     97  CA        44.0450   14.1150   74.4870 C.3   214  TYR214      0.1639
     98  C         42.9790   14.6690   73.5710 C.2   214  TYR214      0.2290
     99  O         43.2880   15.3210   72.5080 O.2   214  TYR214     -0.2864
    100  CB        45.3530   14.8970   74.4460 C.3   214  TYR214      0.0560
    101  CG        45.3810   16.2130   75.0320 C.ar  214  TYR214     -0.0198
    102  CD1       44.7000   16.4910   76.2650 C.ar  214  TYR214     -0.0009
    103  CD2       46.1780   17.2200   74.4800 C.ar  214  TYR214     -0.0009
    104  CE1       44.7540   17.7760   76.8220 C.ar  214  TYR214      0.0417
    105  CE2       46.2790   18.4880   75.0930 C.ar  214  TYR214      0.0417
    106  CZ        45.5870   18.7600   76.2350 C.ar  214  TYR214      0.1957
    107  OH        45.6880   20.0500   76.7490 O.3   214  TYR214     -0.2866
    108  N         40.8080   18.0610   76.9600 N.3   219  LYS219     -0.1245
    109  CA        41.3440   19.4340   76.8750 C.3   219  LYS219      0.1561
    110  C         40.3870   20.4260   77.5290 C.2   219  LYS219      0.2260
    111  O         40.8350   21.3590   78.2840 O.2   219  LYS219     -0.2867
    112  CB        41.4990   19.8520   75.4090 C.3   219  LYS219      0.0271
    113  CG        42.7160   19.3450   74.6580 C.3   219  LYS219      0.0035
    114  CD        42.5780   19.4600   73.1290 C.3   219  LYS219      0.0206
    115  CE        43.9050   18.9520   72.5130 C.3   219  LYS219      0.1093
    116  NZ        44.1070   19.1660   71.0530 N.3   219  LYS219     -0.1314
    117  N         54.6370   12.3880   71.0560 N.3   263  MET263     -0.1245
    118  CA        54.3730   11.1650   71.7200 C.3   263  MET263      0.1570
    119  C         55.6780   10.4420   71.8620 C.2   263  MET263      0.2261
    120  O         56.5960   10.5220   71.0080 O.2   263  MET263     -0.2867
    121  CB        53.3460   10.3190   70.9540 C.3   263  MET263      0.0387
    122  CG        51.9980   10.8660   70.5180 C.3   263  MET263      0.0595
    123  SD        51.0460   11.2500   72.0320 S.3   263  MET263     -0.1393
    124  CE        50.8560    9.6290   72.7170 C.3   263  MET263      0.0692
    125  N         53.8260   15.5030   66.6440 N.3   273  LEU273     -0.1231
    126  CA        52.5030   15.5710   66.0920 C.3   273  LEU273      0.1693
    127  C         52.2640   16.8700   65.3530 C.2   273  LEU273      0.2591
    128  O         51.6140   16.8960   64.2590 O.2   273  LEU273     -0.2718
    129  CB        51.4070   15.3540   67.2150 C.3   273  LEU273      0.0284
    130  CG        51.5840   13.9940   67.9300 C.3   273  LEU273      0.0019
    131  CD1       50.4110   13.9780   68.8910 C.3   273  LEU273      0.0001
    132  CD2       51.6050   12.8240   66.9770 C.3   273  LEU273      0.0001
    133  N         52.6430   18.0040   66.0260 N.am  274  GLU274     -0.1979
    134  CA        52.3780   19.3500   65.4960 C.3   274  GLU274      0.1602
    135  C         53.1630   20.3280   66.2520 C.2   274  GLU274      0.2287
    136  O         53.6280   20.0340   67.3730 O.2   274  GLU274     -0.2864
    137  CB        50.9500   19.7060   65.4910 C.3   274  GLU274      0.0415
    138  CG        50.3010   19.8900   66.8910 C.3   274  GLU274      0.1163
    139  CD        49.6410   18.6610   67.4520 C.2   274  GLU274      0.3649
    140  OE1       49.0310   17.8680   66.6860 O.co2 274  GLU274     -0.2457
    141  OE2       49.6570   18.6060   68.7820 O.co2 274  GLU274     -0.2457
@<TRIPOS>BOND
     1     3     4    2
     2     3     2    1
     3    31    30    2
     4     1     2    1
     5     2     5    1
     6    30    29    1
     7     5     6    1
     8    44    45    1
     9    28    29    1
    10    13    12    2
    11    29    32    1
    12    45    46    1
    13    45    48    1
    14    12    11    1
    15     6     7    1
    16    20    19    2
    17    49    48    1
    18    49    50    1
    19    32    33    1
    20    46    53   am
    21    46    47    2
    22    53    54    1
    23    19    18    1
    24     7     8    1
    25    52    50   ar
    26    33    34    1
    27    50    51   ar
    28    57    54    1
    29    57    58    1
    30    54    55    1
    31    11    10    1
    32    11    14    1
    33    10    16    1
    34    59    58    1
    35    59    60    1
    36    14    15    1
    37    35    34    1
    38    35    36    1
    39     8     9    1
    40    17    18    1
    41    18    21    1
    42    16    15    1
    43   128   127    2
    44    55    56    2
    45    55    62   am
    46    60    61    1
    47    21    22    1
    48    62    63    1
    49    38    37    1
    50    38    39    1
    51    38    41    1
    52   127   133   am
    53   127   126    1
    54   137   134    1
    55   137   138    1
    56   134   133    1
    57   134   135    1
    58    43    41    1
    59    39    40    2
    60   126   125    1
    61   126   129    1
    62    41    42    1
    63   135   136    2
    64    22    23   ar
    65    22    24   ar
    66    75    73    1
    67    63    66    1
    68    63    64    1
    69   140   139   ar
    70   138   139    1
    71    23    25   ar
    72   132   130    1
    73    24    26   ar
    74   129   130    1
    75    66    67    1
    76    65    64    2
    77    64    68   am
    78   139   141   ar
    79    73    72    1
    80   130   131    1
    81    68    69    1
    82    25    27   ar
    83    26    27   ar
    84    69    72    1
    85    69    70    1
    86    72    74    1
    87    95    93   ar
    88    95    94   ar
    89    70    71    2
    90    93    91   ar
    91    94    92   ar
    92   122   121    1
    93   122   123    1
    94   121   118    1
    95   120   119    2
    96   116   115    1
    97   117   118    1
    98    91    90   ar
    99    92    90   ar
   100    90    89    1
   101   118   119    1
   102   123   124    1
   103    99    98    2
   104   115   114    1
   105    89    86    1
   106    84    82   ar
   107   114   113    1
   108    98    97    1
   109    82    83   ar
   110    82    81    1
   111    96    87   am
   112    96    97    1
   113    86    87    1
   114    86    85    1
   115   100    97    1
   116   100   101    1
   117    81    80    1
   118    87    88    2
   119   103   101   ar
   120   103   105   ar
   121   113   112    1
   122   101   102   ar
   123   105   106   ar
   124    80    77    1
   125   112   109    1
   126    77    78    1
   127    77    76    1
   128   106   107    1
   129   106   104   ar
   130   102   104   ar
   131    78    79    1
   132   109   108    1
   133   109   110    1
   134   110   111    2
