@<TRIPOS>MOLECULE
tmp/5nrnA00.pdb
 164 157 0 0 0
SMALL
GASTEIGER

@<TRIPOS>ATOM
      1  N        -39.6710  -21.7610  -19.1830 N.3    36  PHE36      -0.1228
      2  CA       -38.7310  -22.8480  -18.9470 C.3    36  PHE36       0.1721
      3  C        -38.5430  -23.6330  -20.2350 C.2    36  PHE36       0.2437
      4  O        -39.4750  -23.7380  -21.0340 O.2    36  PHE36      -0.2733
      5  CB       -39.2210  -23.7580  -17.8210 C.3    36  PHE36       0.0547
      6  CG       -39.1650  -23.1130  -16.4840 C.ar   36  PHE36      -0.0202
      7  CD1      -37.9660  -23.0250  -15.8000 C.ar   36  PHE36      -0.0042
      8  CD2      -40.3040  -22.5370  -15.9270 C.ar   36  PHE36      -0.0042
      9  CE1      -37.9060  -22.4030  -14.5580 C.ar   36  PHE36      -0.0003
     10  CE2      -40.2540  -21.9120  -14.7020 C.ar   36  PHE36      -0.0003
     11  CZ       -39.0630  -21.8290  -14.0150 C.ar   36  PHE36      -0.0000
     12  N        -37.3240  -24.1580  -20.4610 N.am   37  PRO37      -0.2729
     13  CA       -36.1670  -24.0000  -19.5680 C.3    37  PRO37       0.1401
     14  C        -35.6330  -22.5840  -19.6350 C.2    37  PRO37       0.2269
     15  O        -35.8640  -21.8970  -20.6310 O.2    37  PRO37      -0.2865
     16  CB       -35.1220  -24.9920  -20.1360 C.3    37  PRO37       0.0296
     17  CG       -35.8890  -25.8960  -21.0630 C.3    37  PRO37       0.0237
     18  CD       -37.0210  -25.0440  -21.5970 C.3    37  PRO37       0.0939
     19  N        -33.1540  -20.9590  -20.6570 N.3    39  TYR39      -0.1241
     20  CA       -31.9660  -20.8640  -21.4930 C.3    39  TYR39       0.1605
     21  C        -31.3720  -19.4700  -21.3990 C.2    39  TYR39       0.2264
     22  O        -32.0940  -18.4720  -21.3530 O.2    39  TYR39      -0.2867
     23  CB       -32.2750  -21.2230  -22.9510 C.3    39  TYR39       0.0534
     24  CG       -32.8010  -22.6350  -23.1700 C.ar   39  TYR39      -0.0201
     25  CD1      -33.9880  -22.8640  -23.8590 C.ar   39  TYR39      -0.0009
     26  CD2      -32.0750  -23.7400  -22.7360 C.ar   39  TYR39      -0.0009
     27  CE1      -34.4580  -24.1560  -24.0750 C.ar   39  TYR39       0.0417
     28  CE2      -32.5360  -25.0400  -22.9460 C.ar   39  TYR39       0.0417
     29  CZ       -33.7230  -25.2350  -23.6180 C.ar   39  TYR39       0.1957
     30  OH       -34.1760  -26.5160  -23.8290 O.3    39  TYR39      -0.2866
     31  N        -28.4160  -31.2230  -26.1350 N.3    52  LEU52      -0.1245
     32  CA       -29.2970  -31.4480  -27.2760 C.3    52  LEU52       0.1561
     33  C        -28.6070  -31.1840  -28.6050 C.2    52  LEU52       0.2260
     34  O        -29.0530  -31.7050  -29.6310 O.2    52  LEU52      -0.2867
     35  CB       -30.5350  -30.5620  -27.1710 C.3    52  LEU52       0.0270
     36  CG       -31.4550  -30.8680  -25.9930 C.3    52  LEU52       0.0019
     37  CD1      -32.4940  -29.7700  -25.8220 C.3    52  LEU52       0.0001
     38  CD2      -32.1070  -32.2420  -26.1600 C.3    52  LEU52       0.0001
     39  N        -27.1300  -36.6410  -23.3010 N.3    60  ALA60      -0.1245
     40  CA       -28.4720  -36.4970  -23.8780 C.3    60  ALA60       0.1562
     41  C        -29.1680  -37.8330  -24.1060 C.2    60  ALA60       0.2260
     42  O        -30.4020  -37.8650  -24.2080 O.2    60  ALA60      -0.2867
     43  CB       -28.4160  -35.7230  -25.1950 C.3    60  ALA60       0.0290
     44  N        -31.2290  -35.7360  -18.7340 N.3    66  MET66      -0.1245
     45  CA       -31.8310  -34.5250  -19.2800 C.3    66  MET66       0.1570
     46  C        -32.9620  -34.0300  -18.3880 C.2    66  MET66       0.2261
     47  O        -33.0050  -32.8480  -18.0200 O.2    66  MET66      -0.2867
     48  CB       -32.3450  -34.7810  -20.6980 C.3    66  MET66       0.0387
     49  CG       -31.2460  -35.0640  -21.7120 C.3    66  MET66       0.0595
     50  SD       -30.0800  -33.6690  -21.8650 S.3    66  MET66      -0.1393
     51  CE       -31.1660  -32.4090  -22.5520 C.3    66  MET66       0.0692
     52  N        -33.3920  -30.2150  -16.3570 N.3    70  PHE70      -0.1241
     53  CA       -34.5400  -29.3190  -16.3680 C.3    70  PHE70       0.1605
     54  C        -35.1010  -29.1430  -14.9630 C.2    70  PHE70       0.2264
     55  O        -35.4800  -28.0290  -14.5740 O.2    70  PHE70      -0.2867
     56  CB       -35.5940  -29.8370  -17.3430 C.3    70  PHE70       0.0534
     57  CG       -35.0910  -29.9220  -18.7620 C.ar   70  PHE70      -0.0203
     58  CD1      -35.2440  -31.0910  -19.5030 C.ar   70  PHE70      -0.0042
     59  CD2      -34.4460  -28.8370  -19.3460 C.ar   70  PHE70      -0.0042
     60  CE1      -34.7720  -31.1740  -20.8080 C.ar   70  PHE70      -0.0003
     61  CE2      -33.9730  -28.9090  -20.6520 C.ar   70  PHE70      -0.0003
     62  CZ       -34.1310  -30.0870  -21.3840 C.ar   70  PHE70      -0.0000
     63  N        -35.3540  -25.5690  -12.7240 N.3    74  ARG74      -0.1245
     64  CA       -36.5200  -25.1170  -11.9650 C.3    74  ARG74       0.1563
     65  C        -36.2170  -24.9970  -10.4760 C.2    74  ARG74       0.2260
     66  O        -36.7040  -24.0690   -9.8210 O.2    74  ARG74      -0.2867
     67  CB       -37.7130  -26.0660  -12.1850 C.3    74  ARG74       0.0307
     68  CG       -38.5930  -25.7000  -13.3850 C.3    74  ARG74       0.0489
     69  CD       -39.8150  -26.6280  -13.4840 C.3    74  ARG74       0.2205
     70  NE       -39.4410  -28.0080  -13.7980 N.pl3  74  ARG74      -0.0865
     71  CZ       -39.1900  -28.4360  -15.0260 C.cat  74  ARG74       0.5346
     72  NH1      -39.2680  -27.5840  -16.0370 N.pl3  74  ARG74       0.1354
     73  NH2      -38.8710  -29.7100  -15.2440 N.pl3  74  ARG74       0.1354
     74  N        -44.3400  -23.3880  -20.1380 N.3    95  ARG95      -0.1231
     75  CA       -43.7780  -24.6940  -19.7940 C.3    95  ARG95       0.1694
     76  C        -43.4760  -24.7450  -18.3050 C.2    95  ARG95       0.2592
     77  O        -42.9590  -23.7810  -17.7340 O.2    95  ARG95      -0.2718
     78  CB       -42.4910  -25.0170  -20.5740 C.3    95  ARG95       0.0321
     79  CG       -42.6870  -25.3510  -22.0430 C.3    95  ARG95       0.0489
     80  CD       -41.5660  -26.2850  -22.5670 C.3    95  ARG95       0.2205
     81  NE       -41.7970  -26.6020  -23.9750 N.pl3  95  ARG95      -0.0865
     82  CZ       -42.7220  -27.4720  -24.3830 C.cat  95  ARG95       0.5346
     83  NH1      -42.9020  -27.7060  -25.6760 N.pl3  95  ARG95       0.1354
     84  NH2      -43.4770  -28.0990  -23.4870 N.pl3  95  ARG95       0.1354
     85  N        -43.7540  -25.8830  -17.6820 N.am   96  TYR96      -0.1976
     86  CA       -43.4380  -26.0860  -16.2760 C.3    96  TYR96       0.1639
     87  C        -43.1830  -27.5770  -16.0410 C.2    96  TYR96       0.2290
     88  O        -42.7430  -28.2890  -16.9500 O.2    96  TYR96      -0.2864
     89  CB       -44.5810  -25.5510  -15.4100 C.3    96  TYR96       0.0560
     90  CG       -44.2800  -25.3430  -13.9340 C.ar   96  TYR96      -0.0198
     91  CD1      -43.0820  -24.7720  -13.5020 C.ar   96  TYR96      -0.0009
     92  CD2      -45.2100  -25.7170  -12.9710 C.ar   96  TYR96      -0.0009
     93  CE1      -42.8230  -24.5790  -12.1370 C.ar   96  TYR96       0.0417
     94  CE2      -44.9740  -25.5090  -11.6160 C.ar   96  TYR96       0.0417
     95  CZ       -43.7870  -24.9410  -11.2040 C.ar   96  TYR96       0.1957
     96  OH       -43.5740  -24.7670   -9.8510 O.3    96  TYR96      -0.2866
     97  N        -44.1750  -30.4450  -18.5160 N.3    99  SER99      -0.1202
     98  CA       -43.3110  -30.6490  -19.6800 C.3    99  SER99       0.2020
     99  C        -42.3230  -31.7890  -19.4420 C.2    99  SER99       0.2618
    100  O        -42.0660  -32.6030  -20.3390 O.2    99  SER99      -0.2717
    101  CB       -42.5380  -29.3650  -20.0090 C.3    99  SER99       0.2103
    102  OG       -43.3270  -28.4360  -20.7180 O.3    99  SER99      -0.2182
    103  N        -41.7340  -31.8410  -18.2450 N.am  100  ASN100     -0.1974
    104  CA       -40.7640  -32.8900  -17.9430 C.3   100  ASN100      0.1688
    105  C        -41.4290  -34.2550  -17.9150 C.2   100  ASN100      0.2292
    106  O        -40.8530  -35.2420  -18.3900 O.2   100  ASN100     -0.2864
    107  CB       -40.0800  -32.6160  -16.6040 C.3   100  ASN100      0.1181
    108  CG       -38.5590  -32.7590  -16.6870 C.2   100  ASN100      0.2629
    109  OD1      -38.0020  -32.8290  -17.7790 O.2   100  ASN100     -0.2716
    110  ND2      -37.8900  -32.8130  -15.5270 N.am  100  ASN100     -0.0877
    111  N        -42.5140  -35.1800  -21.8990 N.3   103  TYR103     -0.1227
    112  CA       -41.4110  -35.5010  -22.8040 C.3   103  TYR103      0.1736
    113  C        -40.6260  -36.7120  -22.3180 C.2   103  TYR103      0.2596
    114  O        -40.1990  -37.5420  -23.1310 O.2   103  TYR103     -0.2718
    115  CB       -40.4890  -34.2850  -22.9800 C.3   103  TYR103      0.0548
    116  CG       -41.0100  -33.3510  -24.0530 C.ar  103  TYR103     -0.0200
    117  CD1      -41.7450  -32.2210  -23.7200 C.ar  103  TYR103     -0.0009
    118  CD2      -40.8230  -33.6320  -25.3990 C.ar  103  TYR103     -0.0009
    119  CE1      -42.2520  -31.3780  -24.6990 C.ar  103  TYR103      0.0417
    120  CE2      -41.3260  -32.7970  -26.3830 C.ar  103  TYR103      0.0417
    121  CZ       -42.0370  -31.6700  -26.0270 C.ar  103  TYR103      0.1957
    122  OH       -42.5380  -30.8370  -27.0030 O.3   103  TYR103     -0.2866
    123  N        -40.4220  -36.8340  -21.0010 N.am  104  SER104     -0.1952
    124  CA       -39.6240  -37.9450  -20.4800 C.3   104  SER104      0.1924
    125  C        -40.3480  -39.2630  -20.7010 C.2   104  SER104      0.2314
    126  O        -39.7540  -40.2380  -21.1690 O.2   104  SER104     -0.2863
    127  CB       -39.3190  -37.7450  -18.9900 C.3   104  SER104      0.2116
    128  OG       -38.6090  -36.5390  -18.7740 O.3   104  SER104     -0.2180
    129  N        -40.1560  -40.0920  -24.4820 N.3   107  ARG107     -0.1245
    130  CA       -38.8540  -40.5950  -24.9110 C.3   107  ARG107      0.1563
    131  C        -38.6580  -42.0450  -24.5090 C.2   107  ARG107      0.2260
    132  O        -37.9710  -42.7860  -25.2100 O.2   107  ARG107     -0.2867
    133  CB       -37.7220  -39.7480  -24.3310 C.3   107  ARG107      0.0307
    134  CG       -37.6460  -38.3300  -24.8650 C.3   107  ARG107      0.0489
    135  CD       -36.3490  -37.6550  -24.3940 C.3   107  ARG107      0.2205
    136  NE       -35.2030  -38.2460  -25.0750 N.pl3 107  ARG107     -0.0865
    137  CZ       -33.9420  -38.1660  -24.6580 C.cat 107  ARG107      0.5346
    138  NH1      -33.6350  -37.5190  -23.5350 N.pl3 107  ARG107      0.1354
    139  NH2      -32.9850  -38.7440  -25.3740 N.pl3 107  ARG107      0.1354
    140  N        -38.2080  -35.2170  -34.4090 N.3   144  ASP144     -0.1239
    141  CA       -38.8280  -36.5360  -34.4610 C.3   144  ASP144      0.1674
    142  C        -40.3510  -36.4300  -34.3430 C.2   144  ASP144      0.2266
    143  O        -40.8890  -36.0730  -33.2900 O.2   144  ASP144     -0.2867
    144  CB       -38.2650  -37.4350  -33.3560 C.3   144  ASP144      0.1410
    145  CG       -38.7940  -38.8560  -33.4320 C.2   144  ASP144      0.3668
    146  OD1      -39.3170  -39.2420  -34.5010 O.co2 144  ASP144     -0.2456
    147  OD2      -38.6770  -39.5910  -32.4260 O.co2 144  ASP144     -0.2456
    148  N        -41.9920  -38.8810  -31.7400 N.3   147  LEU147     -0.1231
    149  CA       -41.8130  -38.4160  -30.3710 C.3   147  LEU147      0.1693
    150  C        -42.8020  -37.3070  -30.0230 C.2   147  LEU147      0.2591
    151  O        -43.3380  -37.2710  -28.9080 O.2   147  LEU147     -0.2718
    152  CB       -40.3790  -37.9410  -30.1670 C.3   147  LEU147      0.0284
    153  CG       -40.0680  -37.2690  -28.8270 C.3   147  LEU147      0.0019
    154  CD1      -40.3990  -38.1760  -27.6440 C.3   147  LEU147      0.0001
    155  CD2      -38.5990  -36.8960  -28.8130 C.3   147  LEU147      0.0001
    156  N        -43.0340  -36.3760  -30.9520 N.am  148  GLN148     -0.1979
    157  CA       -44.0090  -35.3200  -30.7000 C.3   148  GLN148      0.1601
    158  C        -45.4040  -35.9040  -30.5110 C.2   148  GLN148      0.2287
    159  O        -46.1200  -35.5240  -29.5790 O.2   148  GLN148     -0.2864
    160  CB       -43.9990  -34.3030  -31.8420 C.3   148  GLN148      0.0394
    161  CG       -42.7120  -33.4900  -31.9370 C.3   148  GLN148      0.0908
    162  CD       -42.8270  -32.1290  -31.2620 C.2   148  GLN148      0.2608
    163  OE1      -42.4580  -31.9580  -30.0900 O.2   148  GLN148     -0.2717
    164  NE2      -43.3560  -31.1510  -32.0010 N.am  148  GLN148     -0.0878
@<TRIPOS>BOND
     1   146   145   ar
     2   141   140    1
     3   141   142    1
     4   141   144    1
     5   142   143    2
     6   145   144    1
     7   145   147   ar
     8   164   162   am
     9   161   160    1
    10   161   162    1
    11   160   157    1
    12   148   149    1
    13   162   163    2
    14   156   157    1
    15   156   150   am
    16   157   158    1
    17   158   159    2
    18   149   152    1
    19   149   150    1
    20   152   153    1
    21   150   151    2
    22    34    33    2
    23   153   155    1
    24   153   154    1
    25    33    32    1
    26    32    35    1
    27    32    31    1
    28    35    36    1
    29   122   121    1
    30   120   121   ar
    31   120   118   ar
    32    38    36    1
    33   121   119   ar
    34    36    37    1
    35    83    82    1
    36   118   116   ar
    37   139   137    1
    38   132   131    2
    39    43    40    1
    40   136   137    2
    41   136   135    1
    42   130   131    1
    43   130   129    1
    44   130   133    1
    45   134   135    1
    46   134   133    1
    47   119   117   ar
    48   137   138    1
    49    82    81    2
    50    82    84    1
    51    42    41    2
    52    41    40    1
    53    27    25   ar
    54    27    29   ar
    55   116   117   ar
    56   116   115    1
    57    81    80    1
    58    40    39    1
    59    25    24   ar
    60    30    29    1
    61    29    28   ar
    62    24    23    1
    63    24    26   ar
    64   114   113    2
    65   115   112    1
    66    23    20    1
    67    28    26   ar
    68   112   113    1
    69   112   111    1
    70    80    79    1
    71    51    50    1
    72   113   123   am
    73    79    78    1
    74    50    49    1
    75    49    48    1
    76    18    17    1
    77    18    12    1
    78    20    21    1
    79    20    19    1
    80    21    22    2
    81    62    60   ar
    82    62    61   ar
    83   126   125    2
    84    17    16    1
    85     4     3    2
    86   123   124    1
    87    60    58   ar
    88   102   101    1
    89   125   124    1
    90    48    45    1
    91    61    59   ar
    92    15    14    2
    93    78    75    1
    94   124   127    1
    95    12     3   am
    96    12    13    1
    97   100    99    2
    98     3     2    1
    99    74    75    1
   100    16    13    1
   101   101    98    1
   102    75    76    1
   103    98    99    1
   104    98    97    1
   105    14    13    1
   106    58    57   ar
   107    99   103   am
   108    59    57   ar
   109    45    44    1
   110    45    46    1
   111     1     2    1
   112   127   128    1
   113     2     5    1
   114    57    56    1
   115   106   105    2
   116    46    47    2
   117    76    77    2
   118    76    85   am
   119   103   104    1
   120   104   105    1
   121   104   107    1
   122     5     6    1
   123   109   108    2
   124    85    86    1
   125    56    53    1
   126    88    87    2
   127   108   107    1
   128   108   110   am
   129     6     8   ar
   130     6     7   ar
   131    53    52    1
   132    53    54    1
   133    86    87    1
   134    86    89    1
   135    72    71    1
   136     8    10   ar
   137     7     9   ar
   138    89    90    1
   139    73    71    1
   140    71    70    2
   141    54    55    2
   142    10    11   ar
   143     9    11   ar
   144    90    91   ar
   145    90    92   ar
   146    70    69    1
   147    91    93   ar
   148    69    68    1
   149    68    67    1
   150    92    94   ar
   151    63    64    1
   152    67    64    1
   153    93    95   ar
   154    64    65    1
   155    94    95   ar
   156    95    96    1
   157    65    66    2
