@<TRIPOS>MOLECULE
tmp/5nrnB00.pdb
 178 166 0 0 0
SMALL
GASTEIGER

@<TRIPOS>ATOM
      1  N        -11.3010  -44.7070   -3.8640 N.3     9  ASP9       -0.1239
      2  CA       -12.0080  -45.0440   -2.6420 C.3     9  ASP9        0.1674
      3  C        -11.2690  -46.1380   -1.8930 C.2     9  ASP9        0.2266
      4  O        -10.9170  -47.1710   -2.4680 O.2     9  ASP9       -0.2867
      5  CB       -13.4250  -45.5130   -2.9750 C.3     9  ASP9        0.1410
      6  CG       -14.4640  -44.7850   -2.1930 C.2     9  ASP9        0.3668
      7  OD1      -14.3800  -43.5390   -2.1220 O.co2   9  ASP9       -0.2456
      8  OD2      -15.3630  -45.4600   -1.6490 O.co2   9  ASP9       -0.2456
      9  N        -15.3940  -33.2230   -0.9350 N.3    36  PHE36      -0.1228
     10  CA       -16.4130  -33.3170   -1.9840 C.3    36  PHE36       0.1721
     11  C        -16.8090  -34.7720   -2.2190 C.2    36  PHE36       0.2437
     12  O        -15.9770  -35.6720   -2.0740 O.2    36  PHE36      -0.2733
     13  CB       -15.9220  -32.6760   -3.2910 C.3    36  PHE36       0.0547
     14  CG       -15.7820  -31.1750   -3.1990 C.ar   36  PHE36      -0.0202
     15  CD1      -16.9090  -30.3520   -3.2470 C.ar   36  PHE36      -0.0042
     16  CD2      -14.5470  -30.5950   -3.0260 C.ar   36  PHE36      -0.0042
     17  CE1      -16.7940  -28.9740   -3.1350 C.ar   36  PHE36      -0.0003
     18  CE2      -14.4190  -29.2040   -2.9200 C.ar   36  PHE36      -0.0003
     19  CZ       -15.5450  -28.3950   -2.9750 C.ar   36  PHE36      -0.0000
     20  N        -18.0800  -35.0160   -2.5840 N.am   37  PRO37      -0.2729
     21  CA       -19.1740  -34.0530   -2.7760 C.3    37  PRO37       0.1401
     22  C        -19.7530  -33.5080   -1.4710 C.2    37  PRO37       0.2269
     23  O        -19.6440  -34.1440   -0.4300 O.2    37  PRO37      -0.2865
     24  CB       -20.2420  -34.8780   -3.5230 C.3    37  PRO37       0.0296
     25  CG       -19.5520  -36.1110   -4.0030 C.3    37  PRO37       0.0237
     26  CD       -18.4710  -36.3740   -3.0050 C.3    37  PRO37       0.0939
     27  N        -26.3410  -43.2000   -7.3690 N.3    52  LEU52      -0.1245
     28  CA       -25.4300  -44.3090   -7.0880 C.3    52  LEU52       0.1561
     29  C        -26.1130  -45.4270   -6.3150 C.2    52  LEU52       0.2260
     30  O        -25.6350  -46.5620   -6.3360 O.2    52  LEU52      -0.2867
     31  CB       -24.2130  -43.8020   -6.3080 C.3    52  LEU52       0.0270
     32  CG       -23.2790  -42.8210   -7.0390 C.3    52  LEU52       0.0019
     33  CD1      -22.2810  -42.1200   -6.1060 C.3    52  LEU52       0.0001
     34  CD2      -22.5250  -43.5470   -8.1290 C.3    52  LEU52       0.0001
     35  N        -27.3830  -42.8440  -13.4160 N.3    60  ALA60      -0.1245
     36  CA       -26.0080  -43.1950  -13.0550 C.3    60  ALA60       0.1562
     37  C        -25.2500  -43.8160  -14.2200 C.2    60  ALA60       0.2260
     38  O        -24.0210  -43.7190  -14.2640 O.2    60  ALA60      -0.2867
     39  CB       -25.9800  -44.1650  -11.8720 C.3    60  ALA60       0.0290
     40  N        -23.3670  -37.9420  -14.4680 N.3    66  MET66      -0.1245
     41  CA       -22.8120  -37.9950  -13.1170 C.3    66  MET66       0.1570
     42  C        -21.6750  -36.9800  -12.9560 C.2    66  MET66       0.2261
     43  O        -21.6160  -36.2480  -11.9630 O.2    66  MET66      -0.2867
     44  CB       -22.3400  -39.4160  -12.7940 C.3    66  MET66       0.0387
     45  CG       -23.4770  -40.4340  -12.7010 C.3    66  MET66       0.0595
     46  SD       -24.6690  -40.0160  -11.3830 S.3    66  MET66      -0.1393
     47  CE       -23.6490  -40.2350   -9.9140 C.3    66  MET66       0.0692
     48  N        -21.3460  -33.7300  -10.1880 N.3    70  PHE70      -0.1241
     49  CA       -20.2120  -33.4610   -9.3010 C.3    70  PHE70       0.1605
     50  C        -19.5690  -32.1070   -9.5940 C.2    70  PHE70       0.2264
     51  O        -19.0720  -31.4470   -8.6770 O.2    70  PHE70      -0.2867
     52  CB       -19.1700  -34.5860   -9.3980 C.3    70  PHE70       0.0534
     53  CG       -19.6750  -35.9190   -8.8950 C.ar   70  PHE70      -0.0203
     54  CD1      -19.5790  -37.0570   -9.6830 C.ar   70  PHE70      -0.0042
     55  CD2      -20.2580  -36.0240   -7.6360 C.ar   70  PHE70      -0.0042
     56  CE1      -20.0560  -38.2860   -9.2250 C.ar   70  PHE70      -0.0003
     57  CE2      -20.7480  -37.2520   -7.1650 C.ar   70  PHE70      -0.0003
     58  CZ       -20.6500  -38.3850   -7.9660 C.ar   70  PHE70      -0.0000
     59  N        -19.3560  -28.7170   -7.1120 N.3    74  ARG74      -0.1245
     60  CA       -18.1740  -27.8990   -6.8440 C.3    74  ARG74       0.1563
     61  C        -18.4160  -26.4380   -7.2000 C.2    74  ARG74       0.2260
     62  O        -17.9930  -25.5410   -6.4630 O.2    74  ARG74      -0.2867
     63  CB       -16.9490  -28.4340   -7.5930 C.3    74  ARG74       0.0307
     64  CG       -16.1790  -29.4560   -6.7770 C.3    74  ARG74       0.0489
     65  CD       -14.9140  -29.9340   -7.4840 C.3    74  ARG74       0.2205
     66  NE       -15.2270  -30.7350   -8.6650 N.pl3  74  ARG74      -0.0865
     67  CZ       -15.5250  -32.0320   -8.6390 C.cat  74  ARG74       0.5346
     68  NH1      -15.5590  -32.6950   -7.4880 N.pl3  74  ARG74       0.1354
     69  NH2      -15.7880  -32.6650   -9.7750 N.pl3  74  ARG74       0.1354
     70  N        -10.7340  -34.9740   -2.1560 N.3    95  ARG95      -0.1245
     71  CA       -11.2790  -35.0810   -3.5080 C.3    95  ARG95       0.1563
     72  C        -11.5270  -33.7060   -4.1030 C.2    95  ARG95       0.2260
     73  O        -12.0020  -32.8000   -3.4120 O.2    95  ARG95      -0.2867
     74  CB       -12.5780  -35.8910   -3.5470 C.3    95  ARG95       0.0307
     75  CG       -12.3890  -37.3780   -3.3870 C.3    95  ARG95       0.0489
     76  CD       -13.5150  -38.1720   -4.0820 C.3    95  ARG95       0.2205
     77  NE       -13.2990  -39.6050   -3.9050 N.pl3  95  ARG95      -0.0865
     78  CZ       -12.3950  -40.3250   -4.5780 C.cat  95  ARG95       0.5346
     79  NH1      -12.2610  -41.6240   -4.3260 N.pl3  95  ARG95       0.1354
     80  NH2      -11.6420  -39.7590   -5.5160 N.pl3  95  ARG95       0.1354
     81  N        -10.5830  -36.0030   -9.2530 N.3    99  SER99      -0.1202
     82  CA       -11.4700  -37.1420   -9.0250 C.3    99  SER99       0.2020
     83  C        -12.4130  -37.3260  -10.2020 C.2    99  SER99       0.2618
     84  O        -12.6250  -38.4500  -10.6740 O.2    99  SER99      -0.2717
     85  CB       -12.2950  -36.9320   -7.7460 C.3    99  SER99       0.2103
     86  OG       -11.5450  -37.1790   -6.5670 O.3    99  SER99      -0.2182
     87  N        -12.9850  -36.2220  -10.6920 N.am  100  ASN100     -0.1974
     88  CA       -13.9290  -36.2900  -11.8020 C.3   100  ASN100      0.1688
     89  C        -13.2430  -36.7460  -13.0800 C.2   100  ASN100      0.2292
     90  O        -13.8070  -37.5360  -13.8450 O.2   100  ASN100     -0.2864
     91  CB       -14.6040  -34.9270  -11.9990 C.3   100  ASN100      0.1181
     92  CG       -16.1240  -35.0460  -12.1770 C.2   100  ASN100      0.2629
     93  OD1      -16.7140  -36.1150  -11.9440 O.2   100  ASN100     -0.2716
     94  ND2      -16.7560  -33.9550  -12.5980 N.am  100  ASN100     -0.0877
     95  N        -12.1970  -40.8300  -12.5250 N.3   103  TYR103     -0.1227
     96  CA       -13.3120  -41.7840  -12.5630 C.3   103  TYR103      0.1736
     97  C        -14.0490  -41.7340  -13.8960 C.2   103  TYR103      0.2596
     98  O        -14.4710  -42.7730  -14.4180 O.2   103  TYR103     -0.2718
     99  CB       -14.2660  -41.5310  -11.3930 C.3   103  TYR103      0.0548
    100  CG       -13.8320  -42.2720  -10.1470 C.ar  103  TYR103     -0.0200
    101  CD1      -13.1160  -41.6250   -9.1450 C.ar  103  TYR103     -0.0009
    102  CD2      -14.0980  -43.6370   -9.9930 C.ar  103  TYR103     -0.0009
    103  CE1      -12.7050  -42.2930   -8.0080 C.ar  103  TYR103      0.0417
    104  CE2      -13.6710  -44.3300   -8.8570 C.ar  103  TYR103      0.0417
    105  CZ       -12.9770  -43.6470   -7.8700 C.ar  103  TYR103      0.1957
    106  OH       -12.5510  -44.3060   -6.7400 O.3   103  TYR103     -0.2866
    107  N        -14.2160  -40.5450  -14.4760 N.am  104  SER104     -0.1952
    108  CA       -14.9710  -40.4730  -15.7230 C.3   104  SER104      0.1924
    109  C        -14.2180  -41.1590  -16.8510 C.2   104  SER104      0.2314
    110  O        -14.7900  -41.9720  -17.5840 O.2   104  SER104     -0.2863
    111  CB       -15.2840  -39.0200  -16.0810 C.3   104  SER104      0.2116
    112  OG       -16.0650  -38.4400  -15.0450 O.3   104  SER104     -0.2180
    113  N        -14.4210  -44.9650  -16.2590 N.3   107  ARG107     -0.1245
    114  CA       -15.7140  -45.5680  -16.5680 C.3   107  ARG107      0.1563
    115  C        -15.8870  -45.7530  -18.0630 C.2   107  ARG107      0.2260
    116  O        -16.6020  -46.6630  -18.4990 O.2   107  ARG107     -0.2867
    117  CB       -16.8630  -44.7150  -16.0190 C.3   107  ARG107      0.0307
    118  CG       -16.9400  -44.6200  -14.5000 C.3   107  ARG107      0.0489
    119  CD       -18.2600  -43.9510  -14.0720 C.3   107  ARG107      0.2205
    120  NE       -19.4010  -44.8480  -14.2970 N.pl3 107  ARG107     -0.0865
    121  CZ       -20.6710  -44.4510  -14.3730 C.cat 107  ARG107      0.5346
    122  NH1      -20.9910  -43.1560  -14.2670 N.pl3 107  ARG107      0.1354
    123  NH2      -21.6250  -45.3500  -14.5630 N.pl3 107  ARG107      0.1354
    124  N        -12.8220  -49.8600    0.6430 N.3   150  SER150     -0.1217
    125  CA       -13.8960  -49.2480   -0.1240 C.3   150  SER150      0.1889
    126  C        -15.2320  -49.8760    0.2510 C.2   150  SER150      0.2288
    127  O        -15.3160  -51.0790    0.5260 O.2   150  SER150     -0.2866
    128  CB       -13.6320  -49.4130   -1.6230 C.3   150  SER150      0.2089
    129  OG       -14.7830  -49.0910   -2.3910 O.3   150  SER150     -0.2183
    130  N        -17.7150  -49.5250   -1.9630 N.3   152  GLY152     -0.1210
    131  CA       -18.3600  -49.6720   -3.2550 C.3   152  GLY152      0.1956
    132  C        -19.0460  -48.3890   -3.6950 C.2   152  GLY152      0.2611
    133  O        -18.9950  -47.3500   -3.0320 O.2   152  GLY152     -0.2717
    134  N        -19.7290  -48.4670   -4.8380 N.am  153  ARG153     -0.1979
    135  CA       -20.3560  -47.2520   -5.3490 C.3   153  ARG153      0.1597
    136  C        -21.6010  -46.8660   -4.5550 C.2   153  ARG153      0.2287
    137  O        -22.0160  -45.7070   -4.6210 O.2   153  ARG153     -0.2864
    138  CB       -20.6900  -47.4070   -6.8360 C.3   153  ARG153      0.0334
    139  CG       -21.9130  -48.2380   -7.1510 C.3   153  ARG153      0.0492
    140  CD       -22.0760  -48.3480   -8.6600 C.3   153  ARG153      0.2205
    141  NE       -20.8640  -48.9000   -9.2630 N.pl3 153  ARG153     -0.0865
    142  CZ       -20.5580  -48.8300  -10.5570 C.cat 153  ARG153      0.5346
    143  NH1      -21.3820  -48.2220  -11.4060 N.pl3 153  ARG153      0.1354
    144  NH2      -19.4200  -49.3650  -10.9980 N.pl3 153  ARG153      0.1354
    145  N        -22.3370  -46.4370   -1.0970 N.3   155  GLN155     -0.1245
    146  CA       -21.6590  -46.4010    0.1920 C.3   155  GLN155      0.1566
    147  C        -22.6000  -46.3300    1.3880 C.2   155  GLN155      0.2260
    148  O        -22.1290  -46.4910    2.5180 O.2   155  GLN155     -0.2867
    149  CB       -20.6750  -45.2280    0.2410 C.3   155  GLN155      0.0367
    150  CG       -21.3210  -43.8330    0.3390 C.3   155  GLN155      0.0905
    151  CD       -20.2660  -42.7270    0.5440 C.2   155  GLN155      0.2608
    152  OE1      -19.0690  -43.0030    0.5610 O.2   155  GLN155     -0.2717
    153  NE2      -20.7190  -41.4850    0.7180 N.am  155  GLN155     -0.0878
    154  N        -16.7400  -53.1200   -9.7160 N.3   168  ASP168     -0.1239
    155  CA       -16.1490  -52.0370   -8.9430 C.3   168  ASP168      0.1674
    156  C        -14.6390  -52.2110   -8.8190 C.2   168  ASP168      0.2266
    157  O        -13.8850  -51.2360   -8.9220 O.2   168  ASP168     -0.2867
    158  CB       -16.8250  -51.9530   -7.5690 C.3   168  ASP168      0.1410
    159  CG       -18.2020  -51.2740   -7.6290 C.2   168  ASP168      0.3668
    160  OD1      -18.5420  -50.7120   -8.6940 O.co2 168  ASP168     -0.2456
    161  OD2      -18.9380  -51.2820   -6.6100 O.co2 168  ASP168     -0.2456
    162  N        -13.0870  -51.2050  -12.1260 N.3   171  LEU171     -0.1231
    163  CA       -13.1350  -49.7550  -12.2860 C.3   171  LEU171      0.1693
    164  C        -12.0760  -49.0700  -11.4280 C.2   171  LEU171      0.2591
    165  O        -11.4270  -48.1190  -11.8750 O.2   171  LEU171     -0.2718
    166  CB       -14.5320  -49.2300  -11.9400 C.3   171  LEU171      0.0284
    167  CG       -14.6960  -47.7060  -11.9230 C.3   171  LEU171      0.0019
    168  CD1      -14.3320  -47.0910  -13.2720 C.3   171  LEU171      0.0001
    169  CD2      -16.1240  -47.3260  -11.5190 C.3   171  LEU171      0.0001
    170  N        -11.8900  -49.5400  -10.1920 N.am  172  GLN172     -0.1979
    171  CA       -10.8930  -48.9350   -9.3140 C.3   172  GLN172      0.1601
    172  C         -9.4910  -49.0880   -9.8900 C.2   172  GLN172      0.2287
    173  O         -8.6740  -48.1620   -9.8080 O.2   172  GLN172     -0.2864
    174  CB       -10.9810  -49.5540   -7.9190 C.3   172  GLN172      0.0394
    175  CG       -12.3170  -49.2420   -7.1960 C.3   172  GLN172      0.0908
    176  CD       -12.2310  -48.0810   -6.2120 C.2   172  GLN172      0.2608
    177  OE1      -12.5300  -46.9320   -6.5590 O.2   172  GLN172     -0.2717
    178  NE2      -11.8430  -48.3830   -4.9660 N.am  172  GLN172     -0.0878
@<TRIPOS>BOND
     1   116   115    2
     2   115   114    1
     3   110   109    2
     4   109   108    1
     5   114   113    1
     6   114   117    1
     7   111   108    1
     8   111   112    1
     9   117   118    1
    10   108   107    1
    11   123   121    1
    12   118   119    1
    13   107    97   am
    14    40    41    1
    15    98    97    2
    16   121   120    2
    17   121   122    1
    18   120   119    1
    19    38    37    2
    20    37    36    1
    21    97    96    1
    22    90    89    2
    23    35    36    1
    24   168   167    1
    25    41    42    1
    26    41    44    1
    27    89    88    1
    28    36    39    1
    29    42    43    2
    30    44    45    1
    31    45    46    1
    32    94    92   am
    33    96    95    1
    34    96    99    1
    35   163   162    1
    36   163   166    1
    37   163   164    1
    38    92    91    1
    39    92    93    2
    40    91    88    1
    41   166   167    1
    42   167   169    1
    43   165   164    2
    44    88    87    1
    45   164   170   am
    46   143   142    1
    47    99   100    1
    48    46    47    1
    49   144   142    1
    50    87    83   am
    51    84    83    2
    52   142   141    2
    53    83    82    1
    54   170   171    1
    55    48    49    1
    56   100   102   ar
    57   100   101   ar
    58   102   104   ar
    59   172   173    2
    60   172   171    1
    61    69    67    1
    62   154   155    1
    63    54    56   ar
    64    54    53   ar
    65    50    49    1
    66    50    51    2
    67    52    49    1
    68    52    53    1
    69   171   174    1
    70   141   140    1
    71    81    82    1
    72    56    58   ar
    73   101   103   ar
    74    82    85    1
    75   155   156    1
    76   155   158    1
    77   157   156    2
    78    53    55   ar
    79   104   105   ar
    80   160   159   ar
    81    66    67    2
    82    66    65    1
    83   140   139    1
    84    67    68    1
    85    34    32    1
    86   103   105   ar
    87    58    57   ar
    88   174   175    1
    89   105   106    1
    90    85    86    1
    91    55    57   ar
    92   159   158    1
    93   159   161   ar
    94    63    60    1
    95    63    64    1
    96    65    64    1
    97    27    28    1
    98    61    60    1
    99    61    62    2
   100   175   176    1
   101   139   138    1
   102    59    60    1
   103    28    29    1
   104    28    31    1
   105    32    31    1
   106    32    33    1
   107   138   135    1
   108   177   176    2
   109    30    29    2
   110   176   178   am
   111    80    78    1
   112   135   134    1
   113   135   136    1
   114   134   132   am
   115   137   136    2
   116    78    79    1
   117    78    77    2
   118    72    71    1
   119    72    73    2
   120    76    77    1
   121    76    75    1
   122    25    24    1
   123    25    26    1
   124     1     2    1
   125   132   131    1
   126   132   133    2
   127    74    71    1
   128    74    75    1
   129    24    21    1
   130    71    70    1
   131    13    14    1
   132    13    10    1
   133   131   130    1
   134    15    14   ar
   135    15    17   ar
   136    14    16   ar
   137    17    19   ar
   138    16    18   ar
   139    26    20    1
   140    19    18   ar
   141     5     2    1
   142     5     6    1
   143    21    20    1
   144    21    22    1
   145     2     3    1
   146    20    11   am
   147     4     3    2
   148   129   128    1
   149    11    12    2
   150    11    10    1
   151     6     7   ar
   152     6     8   ar
   153    10     9    1
   154   128   125    1
   155    22    23    2
   156   145   146    1
   157   125   126    1
   158   125   124    1
   159   146   149    1
   160   146   147    1
   161   149   150    1
   162   126   127    2
   163   150   151    1
   164   151   152    2
   165   151   153   am
   166   147   148    2
