@<TRIPOS>MOLECULE
tmp/5nroA00.pdb
 181 168 0 0 0
SMALL
GASTEIGER

@<TRIPOS>ATOM
      1  N         33.4420   28.4280  -29.0210 N.3     7  ASP7       -0.1239
      2  CA        32.2210   28.3340  -28.2330 C.3     7  ASP7        0.1674
      3  C         31.6500   26.9380  -28.4350 C.2     7  ASP7        0.2266
      4  O         31.0910   26.6350  -29.4950 O.2     7  ASP7       -0.2867
      5  CB        31.2210   29.4130  -28.6480 C.3     7  ASP7        0.1410
      6  CG        29.8840   29.2930  -27.9320 C.2     7  ASP7        0.3668
      7  OD1       29.8080   28.5850  -26.9080 O.co2   7  ASP7       -0.2456
      8  OD2       28.9070   29.9230  -28.3930 O.co2   7  ASP7       -0.2456
      9  N         28.9050   24.7940  -27.5550 N.3     9  GLY9       -0.1210
     10  CA        27.5760   24.9150  -27.0030 C.3     9  GLY9        0.1956
     11  C         26.8870   23.5830  -26.7730 C.2     9  GLY9        0.2613
     12  O         27.2830   22.5470  -27.3010 O.2     9  GLY9       -0.2717
     13  N         25.8400   23.6310  -25.9460 N.am   10  THR10      -0.1938
     14  CA        24.9820   22.4660  -25.7740 C.3    10  THR10       0.2028
     15  C         24.2800   22.1160  -27.0770 C.2    10  THR10       0.2643
     16  O         24.1190   20.9370  -27.4100 O.2    10  THR10      -0.2714
     17  CB        23.9620   22.7340  -24.6670 C.3    10  THR10       0.1808
     18  OG1       24.6500   23.0480  -23.4540 O.3    10  THR10      -0.2208
     19  CG2       23.0840   21.5250  -24.4360 C.3    10  THR10       0.0379
     20  N         23.8830   23.1340  -27.8380 N.am   11  THR11      -0.1936
     21  CA        23.1190   22.9790  -29.0670 C.3    11  THR11       0.2028
     22  C         23.9190   23.3200  -30.3150 C.2    11  THR11       0.2642
     23  O         23.9040   22.5580  -31.2830 O.2    11  THR11      -0.2714
     24  CB        21.8620   23.8560  -29.0080 C.3    11  THR11       0.1808
     25  OG1       21.0060   23.3940  -27.9590 O.3    11  THR11      -0.2208
     26  CG2       21.1100   23.7960  -30.3180 C.3    11  THR11       0.0379
     27  N         24.6130   24.4530  -30.3270 N.am   12  ASN12      -0.1971
     28  CA        25.3970   24.8750  -31.4780 C.3    12  ASN12       0.1688
     29  C         26.7920   25.2890  -31.0370 C.2    12  ASN12       0.2292
     30  O         26.9710   25.8710  -29.9640 O.2    12  ASN12      -0.2864
     31  CB        24.7280   26.0380  -32.2120 C.3    12  ASN12       0.1181
     32  CG        23.2840   25.7570  -32.5550 C.2    12  ASN12       0.2629
     33  OD1       22.9890   24.9810  -33.4620 O.2    12  ASN12      -0.2716
     34  ND2       22.3700   26.3990  -31.8370 N.am   12  ASN12      -0.0877
     35  N         26.9170   18.1110  -23.7580 N.3    69  LYS69      -0.1245
     36  CA        27.3180   19.0870  -22.7550 C.3    69  LYS69       0.1561
     37  C         26.5190   18.9280  -21.4690 C.2    69  LYS69       0.2260
     38  O         27.0130   19.2690  -20.3900 O.2    69  LYS69      -0.2867
     39  CB        27.1600   20.4980  -23.3180 C.3    69  LYS69       0.0271
     40  CG        27.9040   21.5760  -22.5600 C.3    69  LYS69       0.0035
     41  CD        27.8020   22.8990  -23.2910 C.3    69  LYS69       0.0206
     42  CE        28.5340   24.0020  -22.5640 C.3    69  LYS69       0.1093
     43  NZ        28.3110   25.3160  -23.2230 N.3    69  LYS69      -0.1314
     44  N         31.5320   31.7190  -20.3130 N.3   170  GLU170     -0.1245
     45  CA        30.8060   32.3190  -21.4330 C.3   170  GLU170      0.1567
     46  C         30.3640   33.7570  -21.1890 C.2   170  GLU170      0.2260
     47  O         30.6180   34.6090  -22.0580 O.2   170  GLU170     -0.2867
     48  CB        29.6130   31.4190  -21.7920 C.3   170  GLU170      0.0388
     49  CG        30.0170   30.0370  -22.2790 C.3   170  GLU170      0.1160
     50  CD        28.8420   29.0890  -22.4360 C.2   170  GLU170      0.3649
     51  OE1       27.7450   29.3990  -21.9240 O.co2 170  GLU170     -0.2457
     52  OE2       29.0160   28.0320  -23.0810 O.co2 170  GLU170     -0.2457
     53  N         22.6790   34.9380  -19.8180 N.3   193  ASP193     -0.1239
     54  CA        22.9730   33.9270  -20.8280 C.3   193  ASP193      0.1674
     55  C         22.0050   32.7680  -20.6370 C.2   193  ASP193      0.2266
     56  O         22.0650   32.0650  -19.6260 O.2   193  ASP193     -0.2867
     57  CB        24.4260   33.4600  -20.7150 C.3   193  ASP193      0.1410
     58  CG        24.8870   32.6360  -21.9130 C.2   193  ASP193      0.3668
     59  OD1       24.0360   32.0790  -22.6390 O.co2 193  ASP193     -0.2456
     60  OD2       26.1140   32.5410  -22.1260 O.co2 193  ASP193     -0.2456
     61  N         21.0740   29.6410  -22.9390 N.3   195  GLY195     -0.1210
     62  CA        21.3610   28.9120  -24.1470 C.3   195  GLY195      0.1956
     63  C         20.4810   27.6990  -24.3330 C.2   195  GLY195      0.2612
     64  O         19.3300   27.6570  -23.8830 O.2   195  GLY195     -0.2717
     65  N         21.0260   26.7010  -25.0280 N.am  196  GLY196     -0.1942
     66  CA        20.2790   25.4810  -25.2540 C.3   196  GLY196      0.2014
     67  C         20.2740   24.5340  -24.0810 C.2   196  GLY196      0.2639
     68  O         19.3900   23.6780  -23.9940 O.2   196  GLY196     -0.2714
     69  N         21.2290   24.6760  -23.1710 N.am  197  GLY197     -0.1939
     70  CA        21.2940   23.7740  -22.0430 C.3   197  GLY197      0.2014
     71  C         21.5640   24.4290  -20.7040 C.2   197  GLY197      0.2638
     72  O         21.1400   23.9110  -19.6650 O.2   197  GLY197     -0.2714
     73  N         22.2680   25.5580  -20.7030 N.am  198  ALA198     -0.1977
     74  CA        22.7360   26.1780  -19.4760 C.3   198  ALA198      0.1597
     75  C         22.2250   27.6060  -19.3630 C.2   198  ALA198      0.2287
     76  O         21.9100   28.2570  -20.3610 O.2   198  ALA198     -0.2864
     77  CB        24.2650   26.1730  -19.4050 C.3   198  ALA198      0.0319
     78  N         17.1760   25.7230  -23.3740 N.3   228  GLY228     -0.1210
     79  CA        16.1370   25.5460  -24.3770 C.3   228  GLY228      0.1956
     80  C         15.6000   24.1300  -24.4340 C.2   228  GLY228      0.2611
     81  O         14.4050   23.9180  -24.6590 O.2   228  GLY228     -0.2717
     82  N         16.4740   23.1420  -24.2180 N.am  229  GLU229     -0.1979
     83  CA        16.0570   21.7450  -24.2500 C.3   229  GLU229      0.1602
     84  C         14.8700   21.4840  -23.3370 C.2   229  GLU229      0.2287
     85  O         14.0210   20.6390  -23.6450 O.2   229  GLU229     -0.2864
     86  CB        17.2240   20.8430  -23.8510 C.3   229  GLU229      0.0415
     87  CG        18.3700   20.8110  -24.8400 C.3   229  GLU229      0.1163
     88  CD        18.0670   19.9640  -26.0620 C.2   229  GLU229      0.3649
     89  OE1       17.3930   18.9200  -25.9190 O.co2 229  GLU229     -0.2457
     90  OE2       18.4980   20.3520  -27.1700 O.co2 229  GLU229     -0.2457
     91  N         11.6570   22.9300  -24.8710 N.3   232  ASP232     -0.1239
     92  CA        11.2690   21.8710  -25.7940 C.3   232  ASP232      0.1674
     93  C         10.5670   20.7380  -25.0620 C.2   232  ASP232      0.2266
     94  O          9.5110   20.2700  -25.4950 O.2   232  ASP232     -0.2867
     95  CB        12.5040   21.3460  -26.5280 C.3   232  ASP232      0.1410
     96  CG        13.1730   22.4030  -27.3760 C.2   232  ASP232      0.3668
     97  OD1       12.6990   23.5570  -27.3730 O.co2 232  ASP232     -0.2456
     98  OD2       14.1810   22.0810  -28.0400 O.co2 232  ASP232     -0.2456
     99  N         10.5080   22.0260  -31.2050 N.3   266  GLU266     -0.1245
    100  CA        11.4280   23.1580  -31.2210 C.3   266  GLU266      0.1567
    101  C         11.1090   24.1050  -32.3680 C.2   266  GLU266      0.2260
    102  O         11.1520   25.3330  -32.2040 O.2   266  GLU266     -0.2867
    103  CB        12.8730   22.6760  -31.3180 C.3   266  GLU266      0.0388
    104  CG        13.8830   23.8070  -31.3440 C.3   266  GLU266      0.1160
    105  CD        15.3230   23.3290  -31.3770 C.2   266  GLU266      0.3649
    106  OE1       15.5580   22.1060  -31.4670 O.co2 266  GLU266     -0.2457
    107  OE2       16.2250   24.1880  -31.3100 O.co2 266  GLU266     -0.2457
    108  N          8.2650   26.2610  -31.1760 N.3   269  LYS269     -0.1231
    109  CA         8.7150   27.2600  -30.2120 C.3   269  LYS269      0.1693
    110  C          9.3540   28.4460  -30.9240 C.2   269  LYS269      0.2591
    111  O          8.9230   29.6010  -30.7730 O.2   269  LYS269     -0.2718
    112  CB         9.7000   26.6170  -29.2320 C.3   269  LYS269      0.0285
    113  CG        10.2750   27.5510  -28.1760 C.3   269  LYS269      0.0035
    114  CD        11.3980   26.8770  -27.3970 C.3   269  LYS269      0.0206
    115  CE        12.5790   26.5680  -28.3020 C.3   269  LYS269      0.1093
    116  NZ        13.7020   25.9320  -27.5600 N.3   269  LYS269     -0.1314
    117  N         10.3800   28.1640  -31.7320 N.am  270  ILE270     -0.1980
    118  CA        11.0710   29.2200  -32.4650 C.3   270  ILE270      0.1595
    119  C         10.0920   29.9970  -33.3330 C.2   270  ILE270      0.2287
    120  O         10.1620   31.2280  -33.4220 O.2   270  ILE270     -0.2864
    121  CB        12.2230   28.6260  -33.2950 C.3   270  ILE270      0.0276
    122  CG1       13.2630   27.9970  -32.3700 C.3   270  ILE270      0.0022
    123  CG2       12.8640   29.6930  -34.1570 C.3   270  ILE270      0.0022
    124  CD1       14.4790   27.4640  -33.0830 C.3   270  ILE270      0.0001
    125  N          8.3280   32.5150  -31.2940 N.3   273  SER273     -0.1217
    126  CA         9.0350   33.7180  -30.8760 C.3   273  SER273      0.1889
    127  C          8.6630   34.9410  -31.7050 C.2   273  SER273      0.2288
    128  O          8.9360   36.0620  -31.2710 O.2   273  SER273     -0.2866
    129  CB        10.5420   33.5020  -30.9400 C.3   273  SER273      0.2089
    130  OG        10.9670   32.6820  -29.8700 O.3   273  SER273     -0.2183
    131  N         22.5430   34.0660  -25.9080 N.3   340  GLY340     -0.1210
    132  CA        21.9340   32.7600  -26.0620 C.3   340  GLY340      0.1956
    133  C         20.6790   32.8010  -26.9030 C.2   340  GLY340      0.2612
    134  O         19.9210   33.7740  -26.8430 O.2   340  GLY340     -0.2717
    135  N         20.4480   31.7570  -27.6990 N.am  341  GLY341     -0.1942
    136  CA        19.3000   31.7700  -28.5870 C.3   341  GLY341      0.2014
    137  C         17.9830   31.8370  -27.8400 C.2   341  GLY341      0.2638
    138  O         17.0360   32.4830  -28.2930 O.2   341  GLY341     -0.2714
    139  N         17.9080   31.1890  -26.6760 N.am  342  GLN342     -0.1977
    140  CA        16.6430   31.1320  -25.9560 C.3   342  GLN342      0.1601
    141  C         16.1960   32.5010  -25.4590 C.2   342  GLN342      0.2287
    142  O         15.0040   32.6920  -25.2020 O.2   342  GLN342     -0.2864
    143  CB        16.7460   30.1500  -24.7930 C.3   342  GLN342      0.0394
    144  CG        15.4140   29.7840  -24.1570 C.3   342  GLN342      0.0908
    145  CD        14.4240   29.1990  -25.1440 C.2   342  GLN342      0.2608
    146  OE1       14.5110   28.0280  -25.5070 O.2   342  GLN342     -0.2717
    147  NE2       13.4660   30.0100  -25.5730 N.am  342  GLN342     -0.0878
    148  N         15.9200   34.9550  -27.2620 N.3   344  ARG344     -0.1231
    149  CA        15.1340   35.5610  -28.3250 C.3   344  ARG344      0.1694
    150  C         13.6410   35.4820  -28.0520 C.2   344  ARG344      0.2591
    151  O         12.8700   36.1680  -28.7280 O.2   344  ARG344     -0.2718
    152  CB        15.4380   34.8960  -29.6700 C.3   344  ARG344      0.0321
    153  CG        16.8660   35.0850  -30.1670 C.3   344  ARG344      0.0489
    154  CD        17.1160   34.3300  -31.4670 C.3   344  ARG344      0.2205
    155  NE        18.4990   34.4540  -31.9240 N.pl3 344  ARG344     -0.0865
    156  CZ        18.9440   35.4460  -32.6890 C.cat 344  ARG344      0.5346
    157  NH1       18.1150   36.4020  -33.0850 N.pl3 344  ARG344      0.1354
    158  NH2       20.2170   35.4840  -33.0580 N.pl3 344  ARG344      0.1354
    159  N         13.2180   34.6670  -27.0980 N.am  345  MET345     -0.1979
    160  CA        11.7970   34.5300  -26.8240 C.3   345  MET345      0.1605
    161  C         11.2740   35.8230  -26.2160 C.2   345  MET345      0.2287
    162  O         11.8730   36.3410  -25.2710 O.2   345  MET345     -0.2864
    163  CB        11.5320   33.3640  -25.8820 C.3   345  MET345      0.0413
    164  CG        10.0580   33.0940  -25.6470 C.3   345  MET345      0.0598
    165  SD         9.7520   32.0280  -24.2320 S.3   345  MET345     -0.1393
    166  CE         7.9700   32.0340  -24.2200 C.3   345  MET345      0.0692
    167  N         23.4930   37.4800  -29.9390 N.3   366  PRO366     -0.2102
    168  CA        23.6170   36.4160  -28.9300 C.3   366  PRO366      0.1504
    169  C         24.2130   35.1320  -29.4710 C.2   366  PRO366      0.2575
    170  O         24.7320   34.3300  -28.6840 O.2   366  PRO366     -0.2718
    171  CB        22.1710   36.2060  -28.4650 C.3   366  PRO366      0.0282
    172  CG        21.3500   36.6470  -29.6180 C.3   366  PRO366      0.0208
    173  CD        22.0870   37.7930  -30.2360 C.3   366  PRO366      0.0893
    174  N         24.1740   34.9160  -30.7850 N.am  367  ASP367     -0.1974
    175  CA        24.6920   33.6720  -31.3410 C.3   367  ASP367      0.1708
    176  C         26.1950   33.7280  -31.5920 C.2   367  ASP367      0.2293
    177  O         26.8430   32.6770  -31.6520 O.2   367  ASP367     -0.2864
    178  CB        23.9630   33.3300  -32.6410 C.3   367  ASP367      0.1436
    179  CG        22.5270   32.8980  -32.4080 C.2   367  ASP367      0.3671
    180  OD1       22.3070   31.7300  -32.0280 O.co2 367  ASP367     -0.2456
    181  OD2       21.6160   33.7240  -32.6200 O.co2 367  ASP367     -0.2456
@<TRIPOS>BOND
     1   123   121    1
     2    33    32    2
     3   120   119    2
     4   119   118    1
     5   121   118    1
     6   121   122    1
     7   157   156    1
     8   124   122    1
     9   158   156    1
    10   156   155    2
    11   178   179    1
    12   178   175    1
    13   181   179   ar
    14    32    31    1
    15    32    34   am
    16   118   117    1
    17   179   180   ar
    18   101   102    2
    19   101   100    1
    20    31    28    1
    21   155   154    1
    22   117   110   am
    23   127   128    2
    24   127   126    1
    25   177   176    2
    26   176   175    1
    27    28    29    1
    28    28    27    1
    29   106   105   ar
    30   154   153    1
    31   105   104    1
    32   105   107   ar
    33   104   103    1
    34   175   174    1
    35   103   100    1
    36   125   126    1
    37    23    22    2
    38   100    99    1
    39   108   109    1
    40    29    30    2
    41   129   126    1
    42   129   130    1
    43   110   111    2
    44   110   109    1
    45   174   169   am
    46    27    22   am
    47    26    24    1
    48    22    21    1
    49   173   167    1
    50   173   172    1
    51   109   112    1
    52   153   152    1
    53   167   168    1
    54   152   149    1
    55   172   171    1
    56     4     3    2
    57   169   168    1
    58   169   170    2
    59   112   113    1
    60    21    24    1
    61    21    20    1
    62     1     2    1
    63    24    25    1
    64   168   171    1
    65   151   150    2
    66     5     2    1
    67     5     6    1
    68   136   137    1
    69   136   135    1
    70     3     2    1
    71     8     6   ar
    72   149   150    1
    73   149   148    1
    74   115   116    1
    75   115   114    1
    76   138   137    2
    77   113   114    1
    78   150   159   am
    79    98    96   ar
    80     6     7   ar
    81   137   139   am
    82    20    15   am
    83   135   133   am
    84     9    10    1
    85    16    15    2
    86    96    97   ar
    87    96    95    1
    88    12    11    2
    89    90    88   ar
    90   159   160    1
    91    15    14    1
    92    10    11    1
    93   133   134    2
    94   133   132    1
    95   160   161    1
    96   160   163    1
    97    11    13   am
    98   139   140    1
    99    95    92    1
   100   161   162    2
   101    88    89   ar
   102    88    87    1
   103   132   131    1
   104   140   141    1
   105   140   143    1
   106    13    14    1
   107   163   164    1
   108    92    93    1
   109    92    91    1
   110    14    17    1
   111   164   165    1
   112   147   145   am
   113   146   145    2
   114    94    93    2
   115   141   142    2
   116    66    65    1
   117    66    67    1
   118   145   144    1
   119    65    63   am
   120    87    86    1
   121   143   144    1
   122    17    19    1
   123    17    18    1
   124    81    80    2
   125    80    79    1
   126    80    82   am
   127    79    78    1
   128    63    62    1
   129    63    64    2
   130    83    82    1
   131    83    86    1
   132    83    84    1
   133   165   166    1
   134    62    61    1
   135    67    68    2
   136    67    69   am
   137    35    36    1
   138    85    84    2
   139    39    36    1
   140    39    40    1
   141    41    42    1
   142    41    40    1
   143    43    42    1
   144    69    70    1
   145    52    50   ar
   146    36    37    1
   147    59    58   ar
   148    50    49    1
   149    50    51   ar
   150    49    48    1
   151    60    58   ar
   152    47    46    2
   153    70    71    1
   154    58    57    1
   155    48    45    1
   156    37    38    2
   157    45    46    1
   158    45    44    1
   159    54    57    1
   160    54    55    1
   161    54    53    1
   162    71    73   am
   163    71    72    2
   164    73    74    1
   165    55    56    2
   166    76    75    2
   167    74    77    1
   168    74    75    1
