@<TRIPOS>MOLECULE
tmp/5nrqA00.pdb
 160 151 0 0 0
SMALL
GASTEIGER

@<TRIPOS>ATOM
      1  N         -9.8480   18.9050  -10.6150 N.3     9  ASP9       -0.1239
      2  CA       -10.1310   19.9590   -9.6490 C.3     9  ASP9        0.1674
      3  C         -9.3820   21.2270  -10.0190 C.2     9  ASP9        0.2266
      4  O         -8.2060   21.1840  -10.3750 O.2     9  ASP9       -0.2867
      5  CB        -9.7240   19.5260   -8.2450 C.3     9  ASP9        0.1410
      6  CG       -10.8860   19.0040   -7.4370 C.2     9  ASP9        0.3668
      7  OD1      -11.9210   18.5800   -8.0290 O.co2   9  ASP9       -0.2456
      8  OD2      -10.7540   19.0200   -6.1930 O.co2   9  ASP9       -0.2456
      9  N        -21.5770   15.8300   -8.0590 N.3    36  PHE36      -0.1228
     10  CA       -20.9750   14.6850   -7.3690 C.3    36  PHE36       0.1721
     11  C        -19.5170   14.9690   -7.0400 C.2    36  PHE36       0.2437
     12  O        -18.8430   15.7280   -7.7500 O.2    36  PHE36      -0.2733
     13  CB       -21.0780   13.4090   -8.2000 C.3    36  PHE36       0.0547
     14  CG       -22.4980   12.9480   -8.4050 C.ar   36  PHE36      -0.0202
     15  CD1      -23.1360   12.1910   -7.4450 C.ar   36  PHE36      -0.0042
     16  CD2      -23.1980   13.3060   -9.5480 C.ar   36  PHE36      -0.0042
     17  CE1      -24.4510   11.7750   -7.6280 C.ar   36  PHE36      -0.0003
     18  CE2      -24.4910   12.9090   -9.7310 C.ar   36  PHE36      -0.0003
     19  CZ       -25.1220   12.1360   -8.7710 C.ar   36  PHE36      -0.0000
     20  N        -19.0150   14.3670   -5.9560 N.am   37  PRO37      -0.2729
     21  CA       -19.7390   13.5100   -5.0120 C.3    37  PRO37       0.1401
     22  C        -20.7090   14.3250   -4.1810 C.2    37  PRO37       0.2269
     23  O        -20.5140   15.5230   -4.0380 O.2    37  PRO37      -0.2865
     24  CB       -18.6200   12.9180   -4.1270 C.3    37  PRO37       0.0296
     25  CG       -17.3570   13.1100   -4.9140 C.3    37  PRO37       0.0237
     26  CD       -17.5780   14.4190   -5.6450 C.3    37  PRO37       0.0939
     27  N        -21.1500   15.2130   -1.2700 N.3    39  TYR39      -0.1241
     28  CA       -20.6640   15.4850    0.0780 C.3    39  TYR39       0.1605
     29  C        -21.7640   16.1530    0.8820 C.2    39  TYR39       0.2264
     30  O        -22.4190   17.0770    0.3960 O.2    39  TYR39      -0.2867
     31  CB       -19.4250   16.3770    0.0340 C.3    39  TYR39       0.0534
     32  CG       -18.2420   15.7210   -0.6500 C.ar   39  TYR39      -0.0201
     33  CD1      -17.8750   14.4050   -0.3410 C.ar   39  TYR39      -0.0009
     34  CD2      -17.5030   16.4080   -1.6150 C.ar   39  TYR39      -0.0009
     35  CE1      -16.8090   13.8020   -0.9740 C.ar   39  TYR39       0.0417
     36  CE2      -16.4280   15.8180   -2.2400 C.ar   39  TYR39       0.0417
     37  CZ       -16.0840   14.5210   -1.9220 C.ar   39  TYR39       0.1957
     38  OH       -15.0090   13.9310   -2.5590 O.3    39  TYR39      -0.2866
     39  N         -9.9550   10.6520    2.4840 N.3    52  LEU52      -0.1245
     40  CA        -9.0020   11.5480    1.8380 C.3    52  LEU52       0.1561
     41  C         -8.2500   12.4170    2.8350 C.2    52  LEU52       0.2260
     42  O         -7.1590   12.9010    2.5170 O.2    52  LEU52      -0.2867
     43  CB        -9.7260   12.4410    0.8380 C.3    52  LEU52       0.0270
     44  CG       -10.2690   11.7580   -0.4080 C.3    52  LEU52       0.0019
     45  CD1      -11.2290   12.7090   -1.0880 C.3    52  LEU52       0.0001
     46  CD2       -9.1240   11.3890   -1.3320 C.3    52  LEU52       0.0001
     47  N         -8.2930    4.8030    2.2300 N.3    60  ALA60      -0.1245
     48  CA        -8.0200    5.6270    1.0510 C.3    60  ALA60       0.1562
     49  C         -6.9260    5.0470    0.1590 C.2    60  ALA60       0.2260
     50  O         -6.7790    5.4870   -0.9870 O.2    60  ALA60      -0.2867
     51  CB        -7.6360    7.0520    1.4590 C.3    60  ALA60       0.0290
     52  N        -12.0750    3.2670   -2.9150 N.3    66  MET66      -0.1245
     53  CA       -12.5490    4.6430   -3.0740 C.3    66  MET66       0.1570
     54  C        -13.4830    4.7770   -4.2690 C.2    66  MET66       0.2261
     55  O        -14.5220    5.4390   -4.1830 O.2    66  MET66      -0.2867
     56  CB       -11.3550    5.5870   -3.2040 C.3    66  MET66       0.0387
     57  CG       -10.5350    5.6360   -1.9470 C.3    66  MET66       0.0595
     58  SD       -11.4630    6.4020   -0.6070 S.3    66  MET66      -0.1393
     59  CE       -11.3860    8.1090   -1.1440 C.3    66  MET66       0.0692
     60  N        -17.5920    6.1030   -4.3620 N.3    70  PHE70      -0.1241
     61  CA       -18.1860    7.1260   -5.2240 C.3    70  PHE70       0.1605
     62  C        -19.2940    6.5560   -6.0960 C.2    70  PHE70       0.2264
     63  O        -20.2580    7.2680   -6.4160 O.2    70  PHE70      -0.2867
     64  CB       -17.1120    7.7840   -6.0880 C.3    70  PHE70       0.0534
     65  CG       -16.1130    8.5650   -5.2930 C.ar   70  PHE70      -0.0203
     66  CD1      -16.5250    9.6140   -4.4930 C.ar   70  PHE70      -0.0042
     67  CD2      -14.7720    8.2560   -5.3380 C.ar   70  PHE70      -0.0042
     68  CE1      -15.6270   10.3200   -3.7370 C.ar   70  PHE70      -0.0003
     69  CE2      -13.8570    8.9660   -4.5790 C.ar   70  PHE70      -0.0003
     70  CZ       -14.2870   10.0050   -3.7900 C.ar   70  PHE70      -0.0000
     71  N        -23.4080    7.7150   -6.3250 N.3    74  ARG74      -0.1245
     72  CA       -24.2850    7.9080   -7.4750 C.3    74  ARG74       0.1563
     73  C        -25.4800    6.9410   -7.4670 C.2    74  ARG74       0.2260
     74  O        -26.6030    7.3440   -7.7750 O.2    74  ARG74      -0.2867
     75  CB       -23.4720    7.7650   -8.7560 C.3    74  ARG74       0.0307
     76  CG       -22.6820    9.0220   -9.1040 C.3    74  ARG74       0.0489
     77  CD       -21.9310    8.8630  -10.4090 C.3    74  ARG74       0.2205
     78  NE       -20.8020    7.9440  -10.2860 N.pl3  74  ARG74      -0.0865
     79  CZ       -19.6130    8.3150   -9.8310 C.cat  74  ARG74       0.5346
     80  NH1      -19.4190    9.5880   -9.4540 N.pl3  74  ARG74       0.1354
     81  NH2      -18.6170    7.4300   -9.7460 N.pl3  74  ARG74       0.1354
     82  N        -19.3960   16.7020  -12.4140 N.3    95  ARG95      -0.1245
     83  CA       -18.8270   15.3650  -12.2020 C.3    95  ARG95       0.1563
     84  C        -19.8720   14.2630  -12.3060 C.2    95  ARG95       0.2260
     85  O        -20.9520   14.3620  -11.7170 O.2    95  ARG95      -0.2867
     86  CB       -18.1260   15.2320  -10.8490 C.3    95  ARG95       0.0307
     87  CG       -16.8440   16.0350  -10.7210 C.3    95  ARG95       0.0489
     88  CD       -15.9430   15.4200   -9.6840 C.3    95  ARG95       0.2205
     89  NE       -14.7390   16.2240   -9.4930 N.pl3  95  ARG95      -0.0865
     90  CZ       -13.7240   16.2250  -10.3480 C.cat  95  ARG95       0.5346
     91  NH1      -13.7700   15.4790  -11.4440 N.pl3  95  ARG95       0.1354
     92  NH2      -12.6600   16.9670  -10.1080 N.pl3  95  ARG95       0.1354
     93  N        -15.5500   10.8760  -13.9310 N.3    99  SER99      -0.1202
     94  CA       -14.6160   11.2660  -12.8800 C.3    99  SER99       0.2020
     95  C        -14.0000   10.0320  -12.2160 C.2    99  SER99       0.2618
     96  O        -12.7910    9.9980  -11.9330 O.2    99  SER99      -0.2717
     97  CB       -15.3290   12.1310  -11.8500 C.3    99  SER99       0.2103
     98  OG       -15.6600   13.4320  -12.3820 O.3    99  SER99      -0.2182
     99  N        -14.8220    9.0040  -11.9510 N.am  100  ASN100     -0.1974
    100  CA       -14.3060    7.7890  -11.3300 C.3   100  ASN100      0.1688
    101  C        -13.3150    7.0770  -12.2400 C.2   100  ASN100      0.2292
    102  O        -12.3070    6.5320  -11.7690 O.2   100  ASN100     -0.2864
    103  CB       -15.4540    6.8470  -10.9620 C.3   100  ASN100      0.1181
    104  CG       -15.3820    6.3740   -9.5220 C.2   100  ASN100      0.2629
    105  OD1      -14.5560    6.8510   -8.7310 O.2   100  ASN100     -0.2716
    106  ND2      -16.2370    5.4120   -9.1750 N.am  100  ASN100     -0.0877
    107  N         -9.8070    9.3840  -12.3210 N.3   103  TYR103     -0.1227
    108  CA        -8.9800    9.3590  -11.1190 C.3   103  TYR103      0.1736
    109  C         -8.5120    7.9480  -10.7790 C.2   103  TYR103      0.2596
    110  O         -7.3720    7.7660  -10.3240 O.2   103  TYR103     -0.2718
    111  CB        -9.7320    9.9830   -9.9490 C.3   103  TYR103      0.0548
    112  CG        -9.6880   11.5120   -9.9640 C.ar  103  TYR103     -0.0200
    113  CD1      -10.6760   12.2570  -10.6120 C.ar  103  TYR103     -0.0009
    114  CD2       -8.6310   12.2050   -9.3640 C.ar  103  TYR103     -0.0009
    115  CE1      -10.6380   13.6330  -10.6270 C.ar  103  TYR103      0.0417
    116  CE2       -8.6000   13.5890   -9.3700 C.ar  103  TYR103      0.0417
    117  CZ        -9.5990   14.2940  -10.0180 C.ar  103  TYR103      0.1957
    118  OH        -9.5590   15.6700  -10.0380 O.3   103  TYR103     -0.2866
    119  N         -9.3590    6.9290  -11.0010 N.am  104  SER104     -0.1952
    120  CA        -8.9590    5.5640  -10.6590 C.3   104  SER104      0.1924
    121  C         -7.8150    5.0950  -11.5420 C.2   104  SER104      0.2314
    122  O         -6.8240    4.5370  -11.0540 O.2   104  SER104     -0.2863
    123  CB       -10.1340    4.5990  -10.7900 C.3   104  SER104      0.2116
    124  OG       -11.1800    4.9310   -9.8990 O.3   104  SER104     -0.2180
    125  N         -4.6110    6.9460  -10.6160 N.3   107  ARG107     -0.1245
    126  CA        -3.9760    6.4350   -9.4100 C.3   107  ARG107      0.1563
    127  C         -3.2510    5.1290   -9.6840 C.2   107  ARG107      0.2260
    128  O         -2.2180    4.8460   -9.0690 O.2   107  ARG107     -0.2867
    129  CB        -5.0140    6.2260   -8.3120 C.3   107  ARG107      0.0307
    130  CG        -5.6490    7.5020   -7.7990 C.3   107  ARG107      0.0489
    131  CD        -6.5150    7.2140   -6.5860 C.3   107  ARG107      0.2205
    132  NE        -5.6860    6.8330   -5.4340 N.pl3 107  ARG107     -0.0865
    133  CZ        -6.1380    6.2370   -4.3350 C.cat 107  ARG107      0.5346
    134  NH1       -7.4240    5.9300   -4.2170 N.pl3 107  ARG107      0.1354
    135  NH2       -5.3050    5.9600   -3.3440 N.pl3 107  ARG107      0.1354
    136  N         -2.1740   15.4940   -4.6260 N.3   149  ASP149     -0.1239
    137  CA        -0.8920   15.1700   -5.2420 C.3   149  ASP149      0.1674
    138  C         -0.8370   15.7830   -6.6400 C.2   149  ASP149      0.2266
    139  O         -1.7450   15.5740   -7.4530 O.2   149  ASP149     -0.2867
    140  CB        -0.7300   13.6460   -5.2980 C.3   149  ASP149      0.1410
    141  CG         0.6200   13.2080   -5.8210 C.2   149  ASP149      0.3668
    142  OD1        1.6520   13.7540   -5.3630 O.co2 149  ASP149     -0.2456
    143  OD2        0.6420   12.2990   -6.6810 O.co2 149  ASP149     -0.2456
    144  N         -0.6300   13.0710   -9.5210 N.3   152  LEU152     -0.1231
    145  CA        -1.9130   12.3960   -9.6990 C.3   152  LEU152      0.1693
    146  C         -2.8550   13.2450  -10.5370 C.2   152  LEU152      0.2591
    147  O         -3.4850   12.7500  -11.4750 O.2   152  LEU152     -0.2718
    148  CB        -2.5440   12.0720   -8.3450 C.3   152  LEU152      0.0284
    149  CG        -3.9640   11.4940   -8.4460 C.3   152  LEU152      0.0019
    150  CD1       -4.0110   10.2380   -9.3200 C.3   152  LEU152      0.0001
    151  CD2       -4.5550   11.2010   -7.0670 C.3   152  LEU152      0.0001
    152  N         -2.9720   14.5340  -10.2080 N.am  153  GLN153     -0.1979
    153  CA        -3.8520   15.3910  -10.9930 C.3   153  GLN153      0.1601
    154  C         -3.3990   15.4690  -12.4420 C.2   153  GLN153      0.2287
    155  O         -4.2220   15.4100  -13.3650 O.2   153  GLN153     -0.2864
    156  CB        -3.9250   16.7890  -10.3770 C.3   153  GLN153      0.0394
    157  CG        -4.8650   16.8850   -9.1840 C.3   153  GLN153      0.0908
    158  CD        -6.1660   17.6260   -9.5110 C.2   153  GLN153      0.2608
    159  OE1       -7.2630   17.0740   -9.3780 O.2   153  GLN153     -0.2717
    160  NE2       -6.0420   18.9000   -9.9260 N.am  153  GLN153     -0.0878
@<TRIPOS>BOND
     1    93    94    1
     2   155   154    2
     3    94    95    1
     4    94    97    1
     5   154   153    1
     6    82    83    1
     7    98    97    1
     8   107   108    1
     9    84    83    1
    10    84    85    2
    11   101   102    2
    12   101   100    1
    13    95    99   am
    14    95    96    2
    15    83    86    1
    16    99   100    1
    17   121   122    2
    18   121   120    1
    19   147   146    2
    20    91    90    1
    21   100   103    1
    22   108   109    1
    23   108   111    1
    24   119   109   am
    25   119   120    1
    26   153   156    1
    27   153   152    1
    28   103   104    1
    29    86    87    1
    30   123   120    1
    31   123   124    1
    32   109   110    2
    33    87    88    1
    34   115   113   ar
    35   115   117   ar
    36   125   126    1
    37     1     2    1
    38   113   112   ar
    39   146   152   am
    40   146   145    1
    41    77    78    1
    42    77    76    1
    43   156   157    1
    44     4     3    2
    45    90    92    1
    46    90    89    2
    47    78    79    2
    48   118   117    1
    49     3     2    1
    50   117   116   ar
    51   112   111    1
    52   112   114   ar
    53   160   158   am
    54    79    81    1
    55    79    80    1
    56    18    16   ar
    57    18    19   ar
    58   145   144    1
    59   145   148    1
    60    88    89    1
    61   127   126    1
    62   127   128    2
    63     2     5    1
    64    16    14   ar
    65   104   106   am
    66   104   105    2
    67   158   159    2
    68   158   157    1
    69   126   129    1
    70   116   114   ar
    71   150   149    1
    72    76    75    1
    73    19    17   ar
    74    75    72    1
    75   149   148    1
    76   149   151    1
    77    14    13    1
    78    14    15   ar
    79   129   130    1
    80     5     6    1
    81    13    10    1
    82     9    10    1
    83     7     6   ar
    84   130   131    1
    85    74    73    2
    86    12    11    2
    87    17    15   ar
    88    72    73    1
    89    72    71    1
    90   139   138    2
    91     6     8   ar
    92    10    11    1
    93    11    20   am
    94   143   141   ar
    95   138   137    1
    96   131   132    1
    97    63    62    2
    98    62    61    1
    99    64    65    1
   100    64    61    1
   101    20    26    1
   102    20    21    1
   103   141   142   ar
   104   141   140    1
   105    26    25    1
   106   132   133    2
   107    67    65   ar
   108    67    69   ar
   109   140   137    1
   110    65    66   ar
   111   137   136    1
   112    61    60    1
   113    21    22    1
   114    21    24    1
   115    25    24    1
   116    69    70   ar
   117    66    68   ar
   118   133   134    1
   119   133   135    1
   120    54    55    2
   121    54    53    1
   122    22    23    2
   123    70    68   ar
   124    56    53    1
   125    56    57    1
   126    53    52    1
   127    38    37    1
   128    36    37   ar
   129    36    34   ar
   130    57    58    1
   131    37    35   ar
   132    34    32   ar
   133    46    44    1
   134    27    28    1
   135    59    58    1
   136    45    44    1
   137    50    49    2
   138    35    33   ar
   139    32    33   ar
   140    32    31    1
   141    44    43    1
   142    31    28    1
   143    28    29    1
   144    49    48    1
   145    30    29    2
   146    43    40    1
   147    48    51    1
   148    48    47    1
   149    40    39    1
   150    40    41    1
   151    42    41    2
