@<TRIPOS>MOLECULE
tmp/5nrqB00.pdb
 181 172 0 0 0
SMALL
GASTEIGER

@<TRIPOS>ATOM
      1  N        -15.3060  -18.6270   10.7280 N.3     9  ASP9       -0.1239
      2  CA       -15.9410  -19.3730    9.6510 C.3     9  ASP9        0.1674
      3  C        -15.8180  -20.8680    9.9010 C.2     9  ASP9        0.2266
      4  O        -14.7610  -21.3590   10.3020 O.2     9  ASP9       -0.2867
      5  CB       -15.3020  -19.0050    8.3070 C.3     9  ASP9        0.1410
      6  CG       -16.1190  -19.4050    7.1010 C.2     9  ASP9        0.3668
      7  OD1      -17.2270  -19.9070    7.2080 O.co2   9  ASP9       -0.2456
      8  OD2      -15.7040  -19.0950    5.9820 O.co2   9  ASP9       -0.2456
      9  N        -25.4580  -11.8480    8.0470 N.3    36  PHE36      -0.1228
     10  CA       -24.5220  -10.9370    7.4040 C.3    36  PHE36       0.1721
     11  C        -23.2390  -11.6740    7.0660 C.2    36  PHE36       0.2437
     12  O        -22.8460  -12.5960    7.7790 O.2    36  PHE36      -0.2733
     13  CB       -24.2230   -9.7320    8.2960 C.3    36  PHE36       0.0547
     14  CG       -25.4150   -8.8360    8.5300 C.ar   36  PHE36      -0.0202
     15  CD1      -25.7560   -7.8650    7.6080 C.ar   36  PHE36      -0.0042
     16  CD2      -26.2050   -8.9850    9.6580 C.ar   36  PHE36      -0.0042
     17  CE1      -26.8500   -7.0520    7.8150 C.ar   36  PHE36      -0.0003
     18  CE2      -27.2950   -8.1730    9.8700 C.ar   36  PHE36      -0.0003
     19  CZ       -27.6140   -7.2070    8.9560 C.ar   36  PHE36      -0.0000
     20  N        -22.5850  -11.2890    5.9590 N.am   37  PRO37      -0.2729
     21  CA       -23.0070  -10.2710    4.9820 C.3    37  PRO37       0.1401
     22  C        -24.2170  -10.7170    4.1730 C.2    37  PRO37       0.2269
     23  O        -24.4210  -11.9190    3.9950 O.2    37  PRO37      -0.2865
     24  CB       -21.7830  -10.1260    4.0740 C.3    37  PRO37       0.0296
     25  CG       -20.6420  -10.7130    4.8600 C.3    37  PRO37       0.0237
     26  CD       -21.2530  -11.8260    5.6390 C.3    37  PRO37       0.0939
     27  N        -25.0870  -11.4110    1.2800 N.3    39  TYR39      -0.1241
     28  CA       -24.7340  -11.8480   -0.0680 C.3    39  TYR39       0.1605
     29  C        -25.9850  -12.1070   -0.8950 C.2    39  TYR39       0.2264
     30  O        -26.9220  -12.7690   -0.4360 O.2    39  TYR39      -0.2867
     31  CB       -23.8750  -13.1150   -0.0060 C.3    39  TYR39       0.0534
     32  CG       -22.5360  -12.9010    0.6600 C.ar   39  TYR39      -0.0201
     33  CD1      -21.7480  -11.8120    0.3320 C.ar   39  TYR39      -0.0009
     34  CD2      -22.0640  -13.7850    1.6310 C.ar   39  TYR39      -0.0009
     35  CE1      -20.5300  -11.6080    0.9420 C.ar   39  TYR39       0.0417
     36  CE2      -20.8350  -13.5820    2.2500 C.ar   39  TYR39       0.0417
     37  CZ       -20.0780  -12.4870    1.9000 C.ar   39  TYR39       0.1957
     38  OH       -18.8540  -12.2700    2.4920 O.3    39  TYR39      -0.2866
     39  N        -13.2770  -10.9330   -2.3970 N.3    52  LEU52      -0.1245
     40  CA       -12.6670  -12.0890   -1.7430 C.3    52  LEU52       0.1561
     41  C        -12.2330  -13.1670   -2.7260 C.2    52  LEU52       0.2260
     42  O        -11.3540  -13.9690   -2.3960 O.2    52  LEU52      -0.2867
     43  CB       -13.6280  -12.7020   -0.7200 C.3    52  LEU52       0.0270
     44  CG       -13.8900  -11.8750    0.5390 C.3    52  LEU52       0.0019
     45  CD1      -15.0570  -12.4270    1.3420 C.3    52  LEU52       0.0001
     46  CD2      -12.6330  -11.8480    1.3840 C.3    52  LEU52       0.0001
     47  N         -9.7090   -6.0280   -2.0020 N.3    60  ALA60      -0.1245
     48  CA        -9.6820   -6.9850   -0.9040 C.3    60  ALA60       0.1562
     49  C         -8.4530   -6.8240   -0.0220 C.2    60  ALA60       0.2260
     50  O         -8.4560   -7.2970    1.1230 O.2    60  ALA60      -0.2867
     51  CB        -9.7370   -8.4160   -1.4490 C.3    60  ALA60       0.0290
     52  N         -7.7610   -3.6640    4.5320 N.3    63  VAL63      -0.1245
     53  CA        -8.5580   -4.1690    5.6480 C.3    63  VAL63       0.1561
     54  C         -9.7410   -3.2470    5.9160 C.2    63  VAL63       0.2260
     55  O        -10.8730   -3.7010    6.0950 O.2    63  VAL63      -0.2867
     56  CB        -7.6860   -4.3360    6.9040 C.3    63  VAL63       0.0252
     57  CG1       -8.5560   -4.6970    8.1060 C.3    63  VAL63       0.0019
     58  CG2       -6.6010   -5.3910    6.6630 C.3    63  VAL63       0.0019
     59  N        -12.4670   -3.3920    3.1030 N.3    66  MET66      -0.1230
     60  CA       -13.3760   -4.5180    3.2720 C.3    66  MET66       0.1702
     61  C        -14.3160   -4.2910    4.4490 C.2    66  MET66       0.2592
     62  O        -15.5250   -4.5430    4.3470 O.2    66  MET66      -0.2718
     63  CB       -12.5950   -5.8200    3.4580 C.3    66  MET66       0.0401
     64  CG       -11.7940   -6.2460    2.2380 C.3    66  MET66       0.0596
     65  SD       -12.8750   -6.6510    0.8590 S.3    66  MET66      -0.1393
     66  CE       -13.6060   -8.1750    1.4360 C.3    66  MET66       0.0692
     67  N        -13.7830   -3.8090    5.5750 N.am   67  ALA67      -0.1980
     68  CA       -14.6290   -3.5290    6.7350 C.3    67  ALA67       0.1597
     69  C        -15.7120   -2.4960    6.4150 C.2    67  ALA67       0.2287
     70  O        -16.8470   -2.5990    6.9030 O.2    67  ALA67      -0.2864
     71  CB       -13.7690   -3.0670    7.9070 C.3    67  ALA67       0.0319
     72  N        -18.5680   -4.0910    4.5320 N.3    70  PHE70      -0.1241
     73  CA       -19.4400   -4.8430    5.4250 C.3    70  PHE70       0.1605
     74  C        -20.2470   -3.9130    6.3130 C.2    70  PHE70       0.2264
     75  O        -21.3960   -4.2260    6.6440 O.2    70  PHE70      -0.2867
     76  CB       -18.6420   -5.8230    6.2840 C.3    70  PHE70       0.0534
     77  CG       -17.9590   -6.8950    5.4850 C.ar   70  PHE70      -0.0203
     78  CD1      -18.6950   -7.7470    4.6670 C.ar   70  PHE70      -0.0042
     79  CD2      -16.5820   -7.0600    5.5560 C.ar   70  PHE70      -0.0042
     80  CE1      -18.0630   -8.7370    3.9210 C.ar   70  PHE70      -0.0003
     81  CE2      -15.9450   -8.0560    4.8190 C.ar   70  PHE70      -0.0003
     82  CZ       -16.6830   -8.8910    4.0020 C.ar   70  PHE70      -0.0000
     83  N        -24.4710   -3.5340    6.4710 N.3    74  ARG74      -0.1245
     84  CA       -25.3420   -3.4430    7.6410 C.3    74  ARG74       0.1563
     85  C        -26.1290   -2.1400    7.6480 C.2    74  ARG74       0.2260
     86  O        -27.3270   -2.1420    7.9420 O.2    74  ARG74      -0.2867
     87  CB       -24.5280   -3.6060    8.9330 C.3    74  ARG74       0.0307
     88  CG       -24.2620   -5.0850    9.2640 C.3    74  ARG74       0.0489
     89  CD       -23.4990   -5.2830   10.5640 C.3    74  ARG74       0.2205
     90  NE       -22.1140   -4.8550   10.4230 N.pl3  74  ARG74      -0.0865
     91  CZ       -21.1380   -5.6050    9.9480 C.cat  74  ARG74       0.5346
     92  NH1      -21.3750   -6.8560    9.5730 N.pl3  74  ARG74       0.1354
     93  NH2      -19.9210   -5.0930    9.8500 N.pl3  74  ARG74       0.1354
     94  N        -23.7500  -13.5380   12.4290 N.3    95  ARG95      -0.1245
     95  CA       -22.7350  -12.4970   12.2380 C.3    95  ARG95       0.1563
     96  C        -23.3760  -11.1150   12.3310 C.2    95  ARG95       0.2260
     97  O        -24.4800  -10.9030   11.8160 O.2    95  ARG95      -0.2867
     98  CB       -21.9990  -12.6160   10.9010 C.3    95  ARG95       0.0307
     99  CG       -21.1110  -13.8120   10.7730 C.3    95  ARG95       0.0489
    100  CD       -20.0200  -13.5760    9.7570 C.3    95  ARG95       0.2205
    101  NE       -19.2420  -14.7990    9.5670 N.pl3  95  ARG95      -0.0865
    102  CZ       -18.3030  -15.2230   10.4080 C.cat  95  ARG95       0.5346
    103  NH1      -18.0140  -14.5190   11.4910 N.pl3  95  ARG95       0.1354
    104  NH2      -17.6560  -16.3440   10.1650 N.pl3  95  ARG95       0.1354
    105  N        -18.2470   -9.2290   14.2220 N.3    99  SER99      -0.1202
    106  CA       -17.4600   -9.8900   13.1800 C.3    99  SER99       0.2020
    107  C        -16.4780   -8.9210   12.5460 C.2    99  SER99       0.2618
    108  O        -15.3040   -9.2570   12.3420 O.2    99  SER99      -0.2717
    109  CB       -18.3580  -10.4590   12.0880 C.3    99  SER99       0.2103
    110  OG       -19.0540  -11.6100   12.5050 O.3    99  SER99      -0.2182
    111  N        -16.9380   -7.7040   12.2390 N.am  100  ASN100     -0.1974
    112  CA       -16.0510   -6.7330   11.6190 C.3   100  ASN100      0.1688
    113  C        -14.8960   -6.4120   12.5510 C.2   100  ASN100      0.2292
    114  O        -13.7400   -6.3190   12.1170 O.2   100  ASN100     -0.2864
    115  CB       -16.8340   -5.4630   11.2560 C.3   100  ASN100      0.1181
    116  CG       -16.6670   -5.0580    9.7910 C.2   100  ASN100      0.2629
    117  OD1      -16.0950   -5.8040    8.9830 O.2   100  ASN100     -0.2716
    118  ND2      -17.1790   -3.8630    9.4390 N.am  100  ASN100     -0.0877
    119  N        -12.4240   -9.8440   12.6820 N.3   103  TYR103     -0.1227
    120  CA       -11.6030  -10.1140   11.5030 C.3   103  TYR103      0.1736
    121  C        -10.6610   -8.9570   11.2080 C.2   103  TYR103      0.2596
    122  O         -9.4970   -9.1750   10.8470 O.2   103  TYR103     -0.2718
    123  CB       -12.4850  -10.4250   10.2930 C.3   103  TYR103      0.0548
    124  CG       -12.9500  -11.8550   10.3400 C.ar  103  TYR103     -0.0200
    125  CD1      -12.1680  -12.8780    9.8070 C.ar  103  TYR103     -0.0009
    126  CD2      -14.1350  -12.1900   10.9520 C.ar  103  TYR103     -0.0009
    127  CE1      -12.5730  -14.2000    9.8850 C.ar  103  TYR103      0.0417
    128  CE2      -14.5470  -13.5040   11.0310 C.ar  103  TYR103      0.0417
    129  CZ       -13.7680  -14.5020   10.5020 C.ar  103  TYR103      0.1957
    130  OH       -14.1970  -15.8070   10.5870 O.3   103  TYR103     -0.2866
    131  N        -11.1290   -7.7240   11.4180 N.am  104  SER104     -0.1952
    132  CA       -10.3230   -6.5500   11.1080 C.3   104  SER104      0.1924
    133  C         -9.1330   -6.4400   12.0440 C.2   104  SER104      0.2314
    134  O         -7.9880   -6.3160   11.5960 O.2   104  SER104     -0.2863
    135  CB       -11.1900   -5.2970   11.1880 C.3   104  SER104      0.2116
    136  OG       -12.2700   -5.3950   10.2790 O.3   104  SER104     -0.2180
    137  N         -6.7310   -9.2750   11.2320 N.3   107  ARG107     -0.1245
    138  CA        -5.9550   -8.9960   10.0270 C.3   107  ARG107      0.1563
    139  C         -4.8700   -7.9540   10.2810 C.2   107  ARG107      0.2260
    140  O         -3.8530   -7.9410    9.5790 O.2   107  ARG107     -0.2867
    141  CB        -6.8660   -8.5410    8.8840 C.3   107  ARG107      0.0307
    142  CG        -7.7960   -9.6150    8.3130 C.3   107  ARG107      0.0489
    143  CD        -8.5610   -9.0920    7.0790 C.3   107  ARG107      0.2205
    144  NE        -7.7010   -8.8860    5.9150 N.pl3 107  ARG107     -0.0865
    145  CZ        -8.0230   -8.1400    4.8570 C.cat 107  ARG107      0.5346
    146  NH1       -7.1690   -8.0240    3.8440 N.pl3 107  ARG107      0.1354
    147  NH2       -9.1840   -7.4870    4.8110 N.pl3 107  ARG107      0.1354
    148  N         -8.7870  -14.9990    9.6890 N.3   142  SER142     -0.1318
    149  CA        -7.7730  -14.6120    8.7280 C.3   142  SER142      0.1044
    150  C         -8.0540  -15.3400    7.3950 C.2   142  SER142      0.3201
    151  O         -8.9440  -16.1590    7.2910 O.2   142  SER142     -0.2633
    152  CB        -6.3330  -14.8410    9.2270 C.3   142  SER142      0.0564
    153  OG        -6.1620  -16.2550    9.2560 O.3   142  SER142     -0.3332
    154  N         -7.2780  -15.2160    6.3340 N.am  143  ARG143     -0.1968
    155  CA        -7.5180  -15.8860    5.1130 C.3   143  ARG143      0.1288
    156  C         -7.0120  -17.3230    5.1160 C.3   143  ARG143      0.2036
    157  O         -7.8610  -18.1890    4.6980 O.3   143  ARG143     -0.2185
    158  CB        -6.8330  -15.1010    3.9180 C.3   143  ARG143      0.0281
    159  CG        -7.4560  -13.7520    3.6110 C.3   143  ARG143      0.0488
    160  CD        -8.8560  -13.9450    3.0750 C.3   143  ARG143      0.2205
    161  NE        -9.5320  -12.6670    2.9310 N.pl3 143  ARG143     -0.0865
    162  CZ       -10.1160  -11.9230    3.8650 C.cat 143  ARG143      0.5346
    163  NH1      -10.2770  -12.2960    5.1350 N.pl3 143  ARG143      0.1354
    164  NH2      -10.5600  -10.7060    3.4950 N.pl3 143  ARG143      0.1354
    165  N         -4.8210  -16.5690   10.2400 N.3   147  LEU147     -0.0947
    166  CA        -5.8340  -15.5280   10.4140 C.3   147  LEU147      0.2388
    167  C         -6.9910  -16.0400   11.2610 C.2   147  LEU147      0.2834
    168  O         -7.3820  -15.4140   12.2530 O.2   147  LEU147     -0.2692
    169  CB        -6.3500  -15.0520    9.0550 C.3   147  LEU147      0.1616
    170  CG        -7.4690  -14.0150    9.1240 C.3   147  LEU147      0.0230
    171  CD1       -6.9830  -12.8230    9.9400 C.3   147  LEU147      0.0017
    172  CD2       -7.9420  -13.5690    7.7350 C.3   147  LEU147      0.0216
    173  N         -7.5220  -17.2080   10.9020 N.am  148  GLN148     -0.1959
    174  CA        -8.6660  -17.7490   11.6230 C.3   148  GLN148      0.1602
    175  C         -8.3350  -17.9640   13.0970 C.2   148  GLN148      0.2287
    176  O         -9.1690  -17.7050   13.9690 O.2   148  GLN148     -0.2864
    177  CB        -9.1340  -19.0380   10.9480 C.3   148  GLN148      0.0394
    178  CG        -9.8730  -18.7670    9.6210 C.3   148  GLN148      0.0908
    179  CD       -11.3800  -18.9250    9.7370 C.2   148  GLN148      0.2608
    180  OE1      -12.1530  -18.0000    9.4500 O.2   148  GLN148     -0.2717
    181  NE2      -11.8070  -20.1050   10.1760 N.am  148  GLN148     -0.0878
@<TRIPOS>BOND
     1    41    42    2
     2    41    40    1
     3    39    40    1
     4    47    48    1
     5    40    43    1
     6    51    48    1
     7    48    49    1
     8    29    30    2
     9    29    28    1
    10    43    44    1
    11    28    31    1
    12    28    27    1
    13    49    50    2
    14    31    32    1
    15    33    32   ar
    16    33    35   ar
    17    44    45    1
    18    44    46    1
    19    32    34   ar
    20    65    66    1
    21    65    64    1
    22    35    37   ar
    23    34    36   ar
    24    37    36   ar
    25    37    38    1
    26    64    63    1
    27   161   160    1
    28   161   162    2
    29   160   159    1
    30    59    60    1
    31    60    63    1
    32    60    61    1
    33   164   162    1
    34   159   158    1
    35   146   145    1
    36   162   163    1
    37   158   155    1
    38    80    82   ar
    39    80    78   ar
    40    23    22    2
    41    82    81   ar
    42    24    25    1
    43    24    21    1
    44    22    21    1
    45    62    61    2
    46    61    67   am
    47    72    73    1
    48    52    53    1
    49    78    77   ar
    50   157   156    1
    51   147   145    1
    52    81    79   ar
    53   145   144    2
    54    25    26    1
    55    21    20    1
    56   155   156    1
    57   155   154    1
    58    73    76    1
    59    73    74    1
    60    77    79   ar
    61    77    76    1
    62    67    68    1
    63    26    20    1
    64    53    54    1
    65    53    56    1
    66   144   143    1
    67    54    55    2
    68    20    11   am
    69     8     6   ar
    70    74    75    2
    71   154   150   am
    72    69    68    1
    73    69    70    2
    74    83    84    1
    75    58    56    1
    76    68    71    1
    77    56    57    1
    78    11    10    1
    79    11    12    2
    80   143   142    1
    81     6     7   ar
    82     6     5    1
    83   151   150    2
    84    10     9    1
    85    10    13    1
    86    15    17   ar
    87    15    14   ar
    88    84    85    1
    89    84    87    1
    90    85    86    2
    91   172   149    1
    92    17    19   ar
    93    13    14    1
    94     5     2    1
    95   142   141    1
    96    14    16   ar
    97   149   169    1
    98   149   170    1
    99   149   148    1
   100   141   138    1
   101    87    88    1
   102    19    18   ar
   103   117   116    2
   104   169   153    1
   105   170   152    1
   106   170   171    1
   107   152   166    1
   108   153   166    1
   109    88    89    1
   110   118   116   am
   111   180   179    2
   112   101   100    1
   113   101   102    2
   114    92    91    1
   115   140   139    2
   116   178   179    1
   117   178   177    1
   118     2     3    1
   119     2     1    1
   120    16    18   ar
   121   179   181   am
   122   100    99    1
   123   116   115    1
   124   125   127   ar
   125   125   124   ar
   126    93    91    1
   127   127   129   ar
   128     3     4    2
   129    91    90    2
   130   138   139    1
   131   138   137    1
   132   104   102    1
   133   165   166    1
   134   136   135    1
   135   123   124    1
   136   123   120    1
   137   124   126   ar
   138   102   103    1
   139   166   167    1
   140    90    89    1
   141   129   130    1
   142   129   128   ar
   143    99    98    1
   144   122   121    2
   145    98    95    1
   146   173   167   am
   147   173   174    1
   148   177   174    1
   149   126   128   ar
   150   132   135    1
   151   132   131    1
   152   132   133    1
   153   121   131   am
   154   121   120    1
   155   115   112    1
   156   167   168    2
   157   120   119    1
   158   134   133    2
   159   112   111    1
   160   112   113    1
   161   174   175    1
   162    97    96    2
   163   109   110    1
   164   109   106    1
   165   114   113    2
   166    95    96    1
   167    95    94    1
   168   111   107   am
   169   108   107    2
   170   107   106    1
   171   175   176    2
   172   106   105    1
