@<TRIPOS>MOLECULE
tmp/5nrrB00.pdb
 94 89 0 0 0
SMALL
GASTEIGER

@<TRIPOS>ATOM
      1  N        -48.7170   91.8050   45.3440 N.3    17  GLY17      -0.1225
      2  CA       -49.4430   90.7780   44.6080 C.3    17  GLY17       0.1811
      3  C        -48.9780   89.4050   45.0510 C.2    17  GLY17       0.2280
      4  O        -47.8040   89.2140   45.3890 O.2    17  GLY17      -0.2866
      5  N        -48.6760   85.3430   44.2540 N.3    19  ILE19      -0.1245
      6  CA       -48.7460   84.1570   43.3980 C.3    19  ILE19       0.1561
      7  C        -48.5010   82.9040   44.2440 C.2    19  ILE19       0.2260
      8  O        -47.6850   82.9270   45.1720 O.2    19  ILE19      -0.2867
      9  CB       -47.7330   84.2280   42.2290 C.3    19  ILE19       0.0252
     10  CG1      -48.0290   85.4330   41.3370 C.3    19  ILE19       0.0019
     11  CG2      -47.7640   82.9500   41.3940 C.3    19  ILE19       0.0019
     12  CD1      -49.4460   85.4600   40.8050 C.3    19  ILE19       0.0001
     13  N        -45.3510   81.7540   46.2890 N.3    22  PHE22      -0.1227
     14  CA       -44.5400   82.9580   46.4330 C.3    22  PHE22       0.1736
     15  C        -45.0790   83.8770   47.5190 C.2    22  PHE22       0.2596
     16  O        -46.2900   83.9890   47.7000 O.2    22  PHE22      -0.2718
     17  CB       -44.4830   83.7180   45.1040 C.3    22  PHE22       0.0547
     18  CG       -43.9840   82.8930   43.9590 C.ar   22  PHE22      -0.0202
     19  CD1      -42.6350   82.8670   43.6500 C.ar   22  PHE22      -0.0042
     20  CD2      -44.8630   82.1400   43.1930 C.ar   22  PHE22      -0.0042
     21  CE1      -42.1670   82.1060   42.5950 C.ar   22  PHE22      -0.0003
     22  CE2      -44.4040   81.3750   42.1380 C.ar   22  PHE22      -0.0003
     23  CZ       -43.0530   81.3580   41.8390 C.ar   22  PHE22      -0.0000
     24  N        -44.1730   84.5410   48.2330 N.am   23  SER23      -0.1952
     25  CA       -44.5560   85.5990   49.1650 C.3    23  SER23       0.1924
     26  C        -45.3850   86.6860   48.4530 C.2    23  SER23       0.2314
     27  O        -45.5010   86.6940   47.2220 O.2    23  SER23      -0.2863
     28  CB       -43.2930   86.2270   49.7780 C.3    23  SER23       0.2116
     29  OG       -42.4900   85.2620   50.4580 O.3    23  SER23      -0.2180
     30  N        -45.4180   90.0430   46.8100 N.3    25  TRP25      -0.1241
     31  CA       -44.3340   90.6990   46.0890 C.3    25  TRP25       0.1605
     32  C        -44.7880   92.0760   45.6020 C.2    25  TRP25       0.2264
     33  O        -45.9330   92.2400   45.1770 O.2    25  TRP25      -0.2867
     34  CB       -43.9580   89.8440   44.8800 C.3    25  TRP25       0.0550
     35  CG       -42.5150   89.9030   44.5040 C.ar   25  TRP25       0.0003
     36  CD1      -41.9200   90.7890   43.6540 C.ar   25  TRP25       0.0946
     37  CD2      -41.4870   89.0200   44.9570 C.ar   25  TRP25       0.0152
     38  NE1      -40.5770   90.5160   43.5590 N.ar   25  TRP25      -0.2442
     39  CE2      -40.2860   89.4330   44.3480 C.ar   25  TRP25       0.0810
     40  CE3      -41.4620   87.9210   45.8170 C.ar   25  TRP25       0.0012
     41  CZ2      -39.0720   88.7830   44.5820 C.ar   25  TRP25       0.0191
     42  CZ3      -40.2600   87.2740   46.0460 C.ar   25  TRP25       0.0001
     43  CH2      -39.0810   87.7080   45.4300 C.ar   25  TRP25       0.0015
     44  N        -43.8090   93.2450   38.1080 N.3    49  TRP49      -0.1241
     45  CA       -43.1350   93.0090   39.3820 C.3    49  TRP49       0.1605
     46  C        -41.8760   93.8490   39.4810 C.2    49  TRP49       0.2264
     47  O        -41.0600   93.8480   38.5640 O.2    49  TRP49      -0.2867
     48  CB       -42.7730   91.5290   39.5230 C.3    49  TRP49       0.0550
     49  CG       -43.9560   90.6200   39.3660 C.ar   49  TRP49       0.0003
     50  CD1      -44.2560   89.8510   38.2810 C.ar   49  TRP49       0.0946
     51  CD2      -44.9980   90.3780   40.3300 C.ar   49  TRP49       0.0152
     52  NE1      -45.4290   89.1600   38.4990 N.ar   49  TRP49      -0.2442
     53  CE2      -45.8980   89.4630   39.7530 C.ar   49  TRP49       0.0810
     54  CE3      -45.2460   90.8540   41.6220 C.ar   49  TRP49       0.0012
     55  CZ2      -47.0380   89.0110   40.4200 C.ar   49  TRP49       0.0191
     56  CZ3      -46.3760   90.4030   42.2910 C.ar   49  TRP49       0.0001
     57  CH2      -47.2590   89.4880   41.6890 C.ar   49  TRP49       0.0015
     58  N        -37.6550   92.2490   38.8730 N.3    52  ASP52      -0.1239
     59  CA       -37.4060   91.5260   37.6240 C.3    52  ASP52       0.1674
     60  C        -38.1760   92.0550   36.4190 C.2    52  ASP52       0.2266
     61  O        -37.9120   91.6410   35.2830 O.2    52  ASP52      -0.2867
     62  CB       -37.5710   90.0050   37.7810 C.3    52  ASP52       0.1410
     63  CG       -39.0160   89.5690   37.9800 C.2    52  ASP52       0.3668
     64  OD1      -39.9640   90.3470   37.7400 O.co2  52  ASP52      -0.2456
     65  OD2      -39.2030   88.3980   38.3590 O.co2  52  ASP52      -0.2456
     66  N        -41.0950   91.6100   35.2140 N.3    54  LYS54      -0.1245
     67  CA       -41.9820   90.7120   34.4730 C.3    54  LYS54       0.1561
     68  C        -43.4490   91.0700   34.6730 C.2    54  LYS54       0.2260
     69  O        -43.7930   91.7510   35.6430 O.2    54  LYS54      -0.2867
     70  CB       -41.7190   89.2530   34.8710 C.3    54  LYS54       0.0271
     71  CG       -40.3500   88.7320   34.4270 C.3    54  LYS54       0.0035
     72  CD       -40.1420   87.2670   34.8200 C.3    54  LYS54       0.0206
     73  CE       -38.7910   86.7510   34.3360 C.3    54  LYS54       0.1093
     74  NZ       -38.6670   86.8530   32.8580 N.3    54  LYS54      -0.1314
     75  N        -47.5800   89.9400   35.0050 N.3    56  SER56      -0.1217
     76  CA       -48.5400   88.8950   35.3660 C.3    56  SER56       0.1889
     77  C        -49.9610   89.4180   35.4360 C.2    56  SER56       0.2288
     78  O        -50.1940   90.5740   35.8070 O.2    56  SER56      -0.2866
     79  CB       -48.1870   88.2740   36.7260 C.3    56  SER56       0.2089
     80  OG       -46.9660   87.5700   36.6650 O.3    56  SER56      -0.2183
     81  N        -33.6180   86.0650   50.4030 N.3    81  LEU81      -0.1245
     82  CA       -33.5070   86.2310   48.9360 C.3    81  LEU81       0.1561
     83  C        -33.0360   87.6140   48.4860 C.2    81  LEU81       0.2260
     84  O        -33.7330   88.6120   48.6980 O.2    81  LEU81      -0.2867
     85  CB       -34.8520   85.9310   48.2600 C.3    81  LEU81       0.0270
     86  CG       -35.4670   84.5400   48.3970 C.3    81  LEU81       0.0019
     87  CD1      -36.7800   84.4460   47.6290 C.3    81  LEU81       0.0001
     88  CD2      -34.4920   83.4970   47.9020 C.3    81  LEU81       0.0001
     89  N        -33.1070   88.6550   45.6190 N.3    83  SER83      -0.1217
     90  CA       -34.0890   89.0810   44.6180 C.3    83  SER83       0.1889
     91  C        -35.2410   89.8450   45.2690 C.2    83  SER83       0.2288
     92  O        -35.8010   90.7560   44.6650 O.2    83  SER83      -0.2866
     93  CB       -34.6270   87.8880   43.8280 C.3    83  SER83       0.2089
     94  OG       -35.3130   86.9840   44.6710 O.3    83  SER83      -0.2183
@<TRIPOS>BOND
     1    74    73    1
     2    73    72    1
     3    71    72    1
     4    71    70    1
     5    67    68    1
     6    67    70    1
     7    67    66    1
     8    68    69    2
     9    75    76    1
    10    61    60    2
    11    76    77    1
    12    76    79    1
    13    77    78    2
    14    60    59    1
    15    80    79    1
    16    59    62    1
    17    59    58    1
    18    64    63   ar
    19    62    63    1
    20    63    65   ar
    21    44    45    1
    22    50    52   ar
    23    50    49   ar
    24    52    53   ar
    25    47    46    2
    26    49    48    1
    27    49    51   ar
    28    45    46    1
    29    45    48    1
    30    53    51   ar
    31    53    55   ar
    32    51    54   ar
    33    55    57   ar
    34    12    10    1
    35    10     9    1
    36    11     9    1
    37    54    56   ar
    38    57    56   ar
    39    23    22   ar
    40    23    21   ar
    41    22    20   ar
    42     9     6    1
    43    21    19   ar
    44    20    18   ar
    45     6     7    1
    46     6     5    1
    47    38    36   ar
    48    38    39   ar
    49    19    18   ar
    50    36    35   ar
    51    93    90    1
    52    93    94    1
    53    18    17    1
    54     7     8    2
    55    39    41   ar
    56    39    37   ar
    57    35    34    1
    58    35    37   ar
    59    41    43   ar
    60     2     3    1
    61     2     1    1
    62    90    91    1
    63    90    89    1
    64    92    91    2
    65    34    31    1
    66    37    40   ar
    67     3     4    2
    68    17    14    1
    69    33    32    2
    70    43    42   ar
    71    32    31    1
    72    40    42   ar
    73    31    30    1
    74    13    14    1
    75    14    15    1
    76    27    26    2
    77    15    16    2
    78    15    24   am
    79    87    86    1
    80    88    86    1
    81    24    25    1
    82    85    86    1
    83    85    82    1
    84    26    25    1
    85    83    84    2
    86    83    82    1
    87    82    81    1
    88    25    28    1
    89    28    29    1
