@<TRIPOS>MOLECULE
tmp/5nrsB00.pdb
 112 111 0 0 0
SMALL
GASTEIGER

@<TRIPOS>ATOM
      1  N        -62.0120   20.8630   -9.3970 N.3    19  ILE19      -0.1245
      2  CA       -63.0260   20.3690  -10.3180 C.3    19  ILE19       0.1561
      3  C        -63.9380   19.4840   -9.4810 C.2    19  ILE19       0.2260
      4  O        -63.4590   18.7730   -8.5850 O.2    19  ILE19      -0.2867
      5  CB       -62.4130   19.5570  -11.4760 C.3    19  ILE19       0.0252
      6  CG1      -61.4850   20.4440  -12.3000 C.3    19  ILE19       0.0019
      7  CG2      -63.5030   18.9820  -12.3680 C.3    19  ILE19       0.0019
      8  CD1      -62.1550   21.7110  -12.7930 C.3    19  ILE19       0.0001
      9  N        -63.4030   16.2680   -7.2720 N.3    22  PHE22      -0.1227
     10  CA       -61.9740   16.2650   -6.9800 C.3    22  PHE22       0.1736
     11  C        -61.5510   17.2110   -5.8550 C.2    22  PHE22       0.2596
     12  O        -62.1440   18.2820   -5.6490 O.2    22  PHE22      -0.2718
     13  CB       -61.1810   16.5790   -8.2550 C.3    22  PHE22       0.0547
     14  CG       -61.3560   15.5530   -9.3430 C.ar   22  PHE22      -0.0202
     15  CD1      -60.5040   14.4560   -9.4260 C.ar   22  PHE22      -0.0042
     16  CD2      -62.3810   15.6800  -10.2800 C.ar   22  PHE22      -0.0042
     17  CE1      -60.6600   13.5080  -10.4290 C.ar   22  PHE22      -0.0003
     18  CE2      -62.5490   14.7340  -11.2840 C.ar   22  PHE22      -0.0003
     19  CZ       -61.6860   13.6470  -11.3600 C.ar   22  PHE22      -0.0000
     20  N        -60.5070   16.8040   -5.1410 N.am   23  SER23      -0.1952
     21  CA       -59.8170   17.6880   -4.2120 C.3    23  SER23       0.1924
     22  C        -59.2550   18.9060   -4.9530 C.2    23  SER23       0.2314
     23  O        -59.3890   19.0410   -6.1640 O.2    23  SER23      -0.2863
     24  CB       -58.6410   16.9400   -3.5670 C.3    23  SER23       0.2116
     25  OG       -59.0740   15.8560   -2.7620 O.3    23  SER23      -0.2180
     26  N        -56.3130   20.4680   -6.7740 N.3    25  TRP25      -0.1241
     27  CA       -55.1550   19.9020   -7.4760 C.3    25  TRP25       0.1605
     28  C        -54.2810   21.0320   -7.9590 C.2    25  TRP25       0.2264
     29  O        -54.7890   22.0650   -8.3700 O.2    25  TRP25      -0.2867
     30  CB       -55.5770   19.0100   -8.6450 C.3    25  TRP25       0.0550
     31  CG       -55.9880   17.6040   -8.2270 C.ar   25  TRP25       0.0003
     32  CD1      -57.1370   17.2400   -7.5540 C.ar   25  TRP25       0.0946
     33  CD2      -55.2640   16.3860   -8.4600 C.ar   25  TRP25       0.0152
     34  NE1      -57.1620   15.8760   -7.3610 N.ar   25  TRP25      -0.2442
     35  CE2      -56.0280   15.3280   -7.9010 C.ar   25  TRP25       0.0810
     36  CE3      -54.0540   16.0850   -9.0880 C.ar   25  TRP25       0.0012
     37  CZ2      -55.6130   14.0000   -7.9480 C.ar   25  TRP25       0.0191
     38  CZ3      -53.6430   14.7640   -9.1290 C.ar   25  TRP25       0.0001
     39  CH2      -54.4220   13.7380   -8.5660 C.ar   25  TRP25       0.0015
     40  N        -52.7150   20.9650  -15.4610 N.3    49  TRP49      -0.1227
     41  CA       -52.5680   20.2590  -14.1900 C.3    49  TRP49       0.1737
     42  C        -51.2020   19.6380  -14.0900 C.2    49  TRP49       0.2595
     43  O        -50.7490   18.9810  -15.0280 O.2    49  TRP49      -0.2718
     44  CB       -53.6140   19.1560  -14.0640 C.3    49  TRP49       0.0564
     45  CG       -55.0030   19.6560  -14.2360 C.ar   49  TRP49       0.0003
     46  CD1      -55.7930   19.5250  -15.3440 C.ar   49  TRP49       0.0946
     47  CD2      -55.7730   20.3830  -13.2740 C.ar   49  TRP49       0.0152
     48  NE1      -57.0090   20.1230  -15.1280 N.ar   49  TRP49      -0.2442
     49  CE2      -57.0280   20.6540  -13.8660 C.ar   49  TRP49       0.0810
     50  CE3      -55.5280   20.8240  -11.9700 C.ar   49  TRP49       0.0012
     51  CZ2      -58.0340   21.3560  -13.2040 C.ar   49  TRP49       0.0191
     52  CZ3      -56.5380   21.5250  -11.3010 C.ar   49  TRP49       0.0001
     53  CH2      -57.7740   21.7780  -11.9230 C.ar   49  TRP49       0.0015
     54  N        -50.5410   19.8260  -12.9540 N.am   50  PHE50      -0.1976
     55  CA       -49.3030   19.0950  -12.7180 C.3    50  PHE50       0.1639
     56  C        -49.6480   17.6270  -12.5810 C.2    50  PHE50       0.2290
     57  O        -50.7450   17.2900  -12.1550 O.2    50  PHE50      -0.2864
     58  CB       -48.5970   19.6090  -11.4780 C.3    50  PHE50       0.0560
     59  CG       -47.9430   20.9320  -11.6760 C.ar   50  PHE50      -0.0200
     60  CD1      -46.7190   21.0230  -12.3280 C.ar   50  PHE50      -0.0042
     61  CD2      -48.5540   22.0970  -11.2300 C.ar   50  PHE50      -0.0042
     62  CE1      -46.1030   22.2530  -12.5200 C.ar   50  PHE50      -0.0003
     63  CE2      -47.9410   23.3390  -11.4220 C.ar   50  PHE50      -0.0003
     64  CZ       -46.7150   23.4100  -12.0670 C.ar   50  PHE50      -0.0000
     65  N        -50.4830   15.1710  -14.8300 N.3    52  ASP52      -0.1239
     66  CA       -50.8420   14.6100  -16.1230 C.3    52  ASP52       0.1674
     67  C        -50.7020   15.5790  -17.3070 C.2    52  ASP52       0.2266
     68  O        -50.8460   15.1750  -18.4570 O.2    52  ASP52      -0.2867
     69  CB       -52.2150   13.9310  -16.0720 C.3    52  ASP52       0.1410
     70  CG       -53.3500   14.8970  -15.8000 C.2    52  ASP52       0.3668
     71  OD1      -53.1880   16.1140  -16.0310 O.co2  52  ASP52      -0.2456
     72  OD2      -54.4280   14.4260  -15.3720 O.co2  52  ASP52      -0.2456
     73  N        -52.6060   17.6870  -18.5080 N.3    54  LYS54      -0.1231
     74  CA       -53.8560   17.9980  -19.2120 C.3    54  LYS54       0.1693
     75  C        -54.3480   19.4450  -18.9680 C.2    54  LYS54       0.2592
     76  O        -53.9030   20.1200  -18.0250 O.2    54  LYS54      -0.2718
     77  CB       -54.9510   16.9860  -18.8540 C.3    54  LYS54       0.0285
     78  CG       -54.6310   15.5470  -19.2280 C.3    54  LYS54       0.0035
     79  CD       -55.8710   14.6660  -19.0590 C.3    54  LYS54       0.0206
     80  CE       -55.6000   13.2050  -19.4270 C.3    54  LYS54       0.1093
     81  NZ       -55.1460   13.0550  -20.8430 N.3    54  LYS54      -0.1314
     82  N        -55.2560   19.9160  -19.8230 N.am   55  PHE55      -0.1962
     83  CA       -55.7300   21.2970  -19.7500 C.3    55  PHE55       0.1771
     84  C        -57.1980   21.3650  -19.3700 C.2    55  PHE55       0.2620
     85  O        -57.9870   20.5220  -19.7940 O.2    55  PHE55      -0.2715
     86  CB       -55.5510   22.0140  -21.0960 C.3    55  PHE55       0.0574
     87  CG       -54.1290   22.0650  -21.5880 C.ar   55  PHE55      -0.0200
     88  CD1      -53.2270   22.9810  -21.0570 C.ar   55  PHE55      -0.0042
     89  CD2      -53.7040   21.2210  -22.6050 C.ar   55  PHE55      -0.0042
     90  CE1      -51.9140   23.0440  -21.5170 C.ar   55  PHE55      -0.0003
     91  CE2      -52.3950   21.2720  -23.0790 C.ar   55  PHE55      -0.0003
     92  CZ       -51.4980   22.1800  -22.5300 C.ar   55  PHE55      -0.0000
     93  N        -57.5550   22.3860  -18.5900 N.am   56  SER56      -0.1950
     94  CA       -58.9390   22.6510  -18.2070 C.3    56  SER56       0.1924
     95  C        -59.1950   24.1470  -18.1780 C.2    56  SER56       0.2314
     96  O        -58.3070   24.9260  -17.8190 O.2    56  SER56      -0.2863
     97  CB       -59.2350   22.0950  -16.8120 C.3    56  SER56       0.2116
     98  OG       -59.1940   20.6880  -16.8140 O.3    56  SER56      -0.2180
     99  N        -53.7620    8.3050   -3.2850 N.3    81  LEU81      -0.1245
    100  CA       -53.5360    8.2590   -4.7370 C.3    81  LEU81       0.1561
    101  C        -52.1110    8.6260   -5.1160 C.2    81  LEU81       0.2260
    102  O        -51.6660    9.7320   -4.8160 O.2    81  LEU81      -0.2867
    103  CB       -54.4590    9.2480   -5.4350 C.3    81  LEU81       0.0270
    104  CG       -55.9720    9.1660   -5.2260 C.3    81  LEU81       0.0019
    105  CD1      -56.6690   10.2680   -6.0270 C.3    81  LEU81       0.0001
    106  CD2      -56.5270    7.7960   -5.6030 C.3    81  LEU81       0.0001
    107  N        -51.1440    9.3030   -8.0340 N.3    83  SER83      -0.1217
    108  CA       -51.2620   10.3610   -9.0360 C.3    83  SER83       0.1889
    109  C        -51.0820   11.7230   -8.3700 C.2    83  SER83       0.2288
    110  O        -50.3050   12.5750   -8.8400 O.2    83  SER83      -0.2866
    111  CB       -52.6050   10.2780   -9.7590 C.3    83  SER83       0.2089
    112  OG       -53.6730   10.3850   -8.8390 O.3    83  SER83      -0.2183
@<TRIPOS>BOND
     1    91    89   ar
     2    91    92   ar
     3    89    87   ar
     4    92    90   ar
     5    87    86    1
     6    87    88   ar
     7    90    88   ar
     8    86    83    1
     9    81    80    1
    10    82    83    1
    11    82    75   am
    12    85    84    2
    13    83    84    1
    14    80    79    1
    15    84    93   am
    16    78    79    1
    17    78    77    1
    18    74    75    1
    19    74    77    1
    20    74    73    1
    21    75    76    2
    22    93    94    1
    23    68    67    2
    24    94    95    1
    25    94    97    1
    26    95    96    2
    27    67    66    1
    28    98    97    1
    29    66    69    1
    30    66    65    1
    31    69    70    1
    32    71    70   ar
    33    70    72   ar
    34    40    41    1
    35    46    48   ar
    36    46    45   ar
    37    48    49   ar
    38    43    42    2
    39    45    44    1
    40    45    47   ar
    41    41    42    1
    42    41    44    1
    43    42    54   am
    44    49    47   ar
    45    49    51   ar
    46    47    50   ar
    47    51    53   ar
    48    54    55    1
    49     8     6    1
    50    55    56    1
    51    55    58    1
    52    56    57    2
    53    62    60   ar
    54    62    64   ar
    55     7     5    1
    56    60    59   ar
    57     6     5    1
    58    64    63   ar
    59    50    52   ar
    60    53    52   ar
    61    59    58    1
    62    59    61   ar
    63     5     2    1
    64    63    61   ar
    65    19    18   ar
    66    19    17   ar
    67    18    16   ar
    68    17    15   ar
    69     2     3    1
    70     2     1    1
    71    16    14   ar
    72   111   108    1
    73   111   112    1
    74     3     4    2
    75    15    14   ar
    76    14    13    1
    77    38    36   ar
    78    38    39   ar
    79    36    33   ar
    80   108   109    1
    81   108   107    1
    82   110   109    2
    83    30    31    1
    84    30    27    1
    85    39    37   ar
    86    33    31   ar
    87    33    35   ar
    88    29    28    2
    89    13    10    1
    90    31    32   ar
    91    28    27    1
    92    37    35   ar
    93    35    34   ar
    94    32    34   ar
    95    27    26    1
    96     9    10    1
    97    10    11    1
    98    23    22    2
    99   105   104    1
   100    11    12    2
   101    11    20   am
   102   106   104    1
   103   103   104    1
   104   103   100    1
   105    20    21    1
   106   101   102    2
   107   101   100    1
   108    22    21    1
   109   100    99    1
   110    21    24    1
   111    24    25    1
