@<TRIPOS>MOLECULE
tmp/5nrvB00.pdb
 123 119 0 0 0
SMALL
GASTEIGER

@<TRIPOS>ATOM
      1  N          6.4780  -60.1880   17.7500 N.3    15  GLY15      -0.1225
      2  CA         6.9710  -61.4010   17.1200 C.3    15  GLY15       0.1811
      3  C          8.3890  -61.7170   17.5630 C.2    15  GLY15       0.2280
      4  O          9.1960  -60.8200   17.8360 O.2    15  GLY15      -0.2866
      5  N         11.8620  -63.5810   16.5270 N.3    17  ILE17      -0.1245
      6  CA        12.7740  -64.3100   15.6520 C.3    17  ILE17       0.1561
      7  C         14.1770  -64.3480   16.2550 C.2    17  ILE17       0.2260
      8  O         14.5370  -63.5080   17.1020 O.2    17  ILE17      -0.2867
      9  CB        12.8400  -63.7160   14.2250 C.3    17  ILE17       0.0252
     10  CG1       13.4440  -62.3100   14.2590 C.3    17  ILE17       0.0019
     11  CG2       11.4580  -63.7510   13.5680 C.3    17  ILE17       0.0019
     12  CD1       13.5810  -61.6530   12.8940 C.3    17  ILE17       0.0001
     13  N         16.8740  -61.6350   18.2030 N.3    20  PHE20      -0.1227
     14  CA        16.1830  -60.3970   18.5450 C.3    20  PHE20       0.1736
     15  C         15.2080  -60.6170   19.6800 C.2    20  PHE20       0.2596
     16  O         14.5800  -61.6750   19.7750 O.2    20  PHE20      -0.2718
     17  CB        15.4350  -59.8320   17.3250 C.3    20  PHE20       0.0547
     18  CG        16.3420  -59.2930   16.2540 C.ar   20  PHE20      -0.0202
     19  CD1       16.9150  -58.0320   16.3810 C.ar   20  PHE20      -0.0042
     20  CD2       16.6300  -60.0530   15.1260 C.ar   20  PHE20      -0.0042
     21  CE1       17.7610  -57.5320   15.3990 C.ar   20  PHE20      -0.0003
     22  CE2       17.4790  -59.5620   14.1360 C.ar   20  PHE20      -0.0003
     23  CZ        18.0450  -58.2980   14.2740 C.ar   20  PHE20      -0.0000
     24  N         15.0810  -59.6080   20.5360 N.am   21  SER21      -0.1952
     25  CA        14.0660  -59.6090   21.5800 C.3    21  SER21       0.1924
     26  C         12.6940  -59.6080   20.9140 C.2    21  SER21       0.2314
     27  O         12.5920  -59.3360   19.7080 O.2    21  SER21      -0.2863
     28  CB        14.2130  -58.3380   22.4190 C.3    21  SER21       0.2116
     29  OG        15.5120  -58.2560   22.9790 O.3    21  SER21      -0.2180
     30  N          9.5980  -58.2410   19.3620 N.3    23  TRP23      -0.1241
     31  CA         9.6780  -57.0150   18.5910 C.3    23  TRP23       0.1605
     32  C          8.3130  -56.7000   18.0270 C.2    23  TRP23       0.2264
     33  O          7.6490  -57.5830   17.4910 O.2    23  TRP23      -0.2867
     34  CB        10.6790  -57.1990   17.4560 C.3    23  TRP23       0.0550
     35  CG        11.2330  -55.9200   16.9300 C.ar   23  TRP23       0.0003
     36  CD1       10.6260  -55.0460   16.0640 C.ar   23  TRP23       0.0946
     37  CD2       12.5190  -55.3610   17.2310 C.ar   23  TRP23       0.0152
     38  NE1       11.4640  -53.9830   15.8050 N.ar   23  TRP23      -0.2442
     39  CE2       12.6270  -54.1510   16.5160 C.ar   23  TRP23       0.0810
     40  CE3       13.5880  -55.7700   18.0420 C.ar   23  TRP23       0.0012
     41  CZ2       13.7650  -53.3440   16.5870 C.ar   23  TRP23       0.0191
     42  CZ3       14.7150  -54.9690   18.1060 C.ar   23  TRP23       0.0001
     43  CH2       14.7950  -53.7730   17.3850 C.ar   23  TRP23       0.0015
     44  N          6.8110  -60.4580   -1.7970 N.3    35  LYS35      -0.1245
     45  CA         7.5980  -61.6840   -1.6970 C.3    35  LYS35       0.1561
     46  C          6.8400  -62.9260   -2.1720 C.2    35  LYS35       0.2260
     47  O          6.9230  -63.2940   -3.3360 O.2    35  LYS35      -0.2867
     48  CB         8.1470  -61.8730   -0.2740 C.3    35  LYS35       0.0271
     49  CG         9.1630  -60.8070    0.1400 C.3    35  LYS35       0.0035
     50  CD         9.7670  -61.1030    1.5130 C.3    35  LYS35       0.0206
     51  CE        10.8430  -60.0930    1.8750 C.3    35  LYS35       0.1093
     52  NZ        11.3070  -60.2590    3.2930 N.3    35  LYS35      -0.1314
     53  N          7.7940  -55.3790   10.6100 N.3    47  TRP47      -0.1241
     54  CA         8.3090  -54.8850   11.8810 C.3    47  TRP47       0.1605
     55  C          8.2120  -53.3640   11.9590 C.2    47  TRP47       0.2264
     56  O          8.5960  -52.6560   11.0150 O.2    47  TRP47      -0.2867
     57  CB         9.7690  -55.3010   12.0500 C.3    47  TRP47       0.0550
     58  CG        10.0060  -56.7820   11.9040 C.ar   47  TRP47       0.0003
     59  CD1       10.5940  -57.4250   10.8450 C.ar   47  TRP47       0.0946
     60  CD2        9.6720  -57.8010   12.8570 C.ar   47  TRP47       0.0152
     61  NE1       10.6450  -58.7860   11.0870 N.ar   47  TRP47      -0.2442
     62  CE2       10.0860  -59.0410   12.3100 C.ar   47  TRP47       0.0810
     63  CE3        9.0580  -57.7880   14.1140 C.ar   47  TRP47       0.0012
     64  CZ2        9.9110  -60.2550   12.9850 C.ar   47  TRP47       0.0191
     65  CZ3        8.8810  -58.9970   14.7870 C.ar   47  TRP47       0.0001
     66  CH2        9.3070  -60.2170   14.2130 C.ar   47  TRP47       0.0015
     67  N         11.6530  -50.5640   11.2730 N.3    50  ASP50      -0.1239
     68  CA        12.3460  -50.6790    9.9880 C.3    50  ASP50       0.1674
     69  C         11.4550  -51.0730    8.8060 C.2    50  ASP50       0.2266
     70  O         11.9020  -51.0730    7.6590 O.2    50  ASP50      -0.2867
     71  CB        13.5700  -51.5970   10.0980 C.3    50  ASP50       0.1410
     72  CG        13.2110  -53.0190   10.4670 C.2    50  ASP50       0.3668
     73  OD1       12.2060  -53.5610    9.9540 O.co2  50  ASP50      -0.2456
     74  OD2       13.9500  -53.6030   11.2770 O.co2  50  ASP50      -0.2456
     75  N         10.4330  -53.7700    7.6810 N.3    52  LYS52      -0.1231
     76  CA        10.8080  -54.9840    6.9480 C.3    52  LYS52       0.1693
     77  C          9.8180  -56.1160    7.1790 C.2    52  LYS52       0.2592
     78  O          9.0540  -56.0890    8.1470 O.2    52  LYS52      -0.2718
     79  CB        12.2260  -55.4250    7.3240 C.3    52  LYS52       0.0285
     80  CG        13.3000  -54.4230    6.9000 C.3    52  LYS52       0.0035
     81  CD        14.6980  -55.0150    7.0720 C.3    52  LYS52       0.0206
     82  CE        15.7400  -54.1560    6.3580 C.3    52  LYS52       0.1093
     83  NZ        17.0790  -54.8200    6.3340 N.3    52  LYS52      -0.1314
     84  N          9.8310  -57.1090    6.2930 N.am   53  PHE53      -0.1962
     85  CA         8.8740  -58.2190    6.3730 C.3    53  PHE53       0.1771
     86  C          9.5480  -59.5350    6.7490 C.2    53  PHE53       0.2620
     87  O         10.6280  -59.8350    6.2530 O.2    53  PHE53      -0.2715
     88  CB         8.1700  -58.4190    5.0310 C.3    53  PHE53       0.0574
     89  CG         7.4450  -57.2120    4.5410 C.ar   53  PHE53      -0.0200
     90  CD1        6.2160  -56.8580    5.0850 C.ar   53  PHE53      -0.0042
     91  CD2        7.9770  -56.4370    3.5290 C.ar   53  PHE53      -0.0042
     92  CE1        5.5340  -55.7360    4.6250 C.ar   53  PHE53      -0.0003
     93  CE2        7.3000  -55.3160    3.0650 C.ar   53  PHE53      -0.0003
     94  CZ         6.0830  -54.9650    3.6150 C.ar   53  PHE53      -0.0000
     95  N          8.8930  -60.3140    7.6130 N.am   54  SER54      -0.1936
     96  CA         9.3700  -61.6390    7.9850 C.3    54  SER54       0.2055
     97  C          8.1890  -62.5730    8.0220 C.2    54  SER54       0.2642
     98  O          7.0900  -62.1770    8.4170 O.2    54  SER54      -0.2714
     99  CB        10.0240  -61.6470    9.3790 C.3    54  SER54       0.2130
    100  OG        11.2190  -60.8900    9.4000 O.3    54  SER54      -0.2179
    101  N          8.4230  -63.8100    7.6080 N.am   55  GLU55      -0.1976
    102  CA         7.4430  -64.8700    7.7390 C.3    55  GLU55       0.1602
    103  C          7.7140  -65.5300    9.0780 C.2    55  GLU55       0.2287
    104  O          8.8070  -66.0460    9.3180 O.2    55  GLU55      -0.2864
    105  CB         7.6250  -65.8730    6.5820 C.3    55  GLU55       0.0415
    106  CG         6.6650  -67.0410    6.5730 C.3    55  GLU55       0.1163
    107  CD         6.9290  -67.9950    5.4030 C.2    55  GLU55       0.3649
    108  OE1        8.1040  -68.1730    5.0140 O.co2  55  GLU55      -0.2457
    109  OE2        5.9620  -68.5720    4.8750 O.co2  55  GLU55      -0.2457
    110  N         19.2580  -50.4090   22.5030 N.3    79  LEU79      -0.1245
    111  CA        19.0840  -50.1790   21.0610 C.3    79  LEU79       0.1561
    112  C         18.1280  -49.0430   20.7270 C.2    79  LEU79       0.2260
    113  O         16.9330  -49.1250   21.0210 O.2    79  LEU79      -0.2867
    114  CB        18.5820  -51.4530   20.3780 C.3    79  LEU79       0.0270
    115  CG        19.3480  -52.7500   20.6360 C.3    79  LEU79       0.0019
    116  CD1       18.6800  -53.9220   19.9250 C.3    79  LEU79       0.0001
    117  CD2       20.7950  -52.6160   20.1990 C.3    79  LEU79       0.0001
    118  N         17.1560  -48.4960   17.8040 N.3    81  SER81      -0.1217
    119  CA        16.2400  -49.0880   16.8240 C.3    81  SER81       0.1889
    120  C         14.9940  -49.6270   17.5340 C.2    81  SER81       0.2288
    121  O         13.8660  -49.4460   17.0590 O.2    81  SER81      -0.2866
    122  CB        16.9380  -50.1900   16.0340 C.3    81  SER81       0.2089
    123  OG        17.4290  -51.1930   16.9080 O.3    81  SER81      -0.2183
@<TRIPOS>BOND
     1    47    46    2
     2    46    45    1
     3    44    45    1
     4    45    48    1
     5    48    49    1
     6    49    50    1
     7    50    51    1
     8    51    52    1
     9    93    91   ar
    10    93    94   ar
    11    91    89   ar
    12    94    92   ar
    13    89    88    1
    14    89    90   ar
    15    92    90   ar
    16   109   107   ar
    17   108   107   ar
    18    88    85    1
    19   107   106    1
    20    87    86    2
    21    84    85    1
    22    84    77   am
    23    83    82    1
    24    82    81    1
    25    85    86    1
    26   106   105    1
    27   105   102    1
    28    86    95   am
    29    80    81    1
    30    80    79    1
    31    76    77    1
    32    76    79    1
    33    76    75    1
    34    77    78    2
    35   101   102    1
    36   101    97   am
    37    95    96    1
    38    70    69    2
    39   102   103    1
    40    96    97    1
    41    96    99    1
    42    97    98    2
    43    69    68    1
    44   103   104    2
    45    99   100    1
    46    73    72   ar
    47    68    71    1
    48    68    67    1
    49    71    72    1
    50    72    74   ar
    51    53    54    1
    52    59    61   ar
    53    59    58   ar
    54    56    55    2
    55    61    62   ar
    56    54    55    1
    57    54    57    1
    58    58    57    1
    59    58    60   ar
    60    62    60   ar
    61    62    64   ar
    62    60    63   ar
    63    12    10    1
    64    64    66   ar
    65    11     9    1
    66    63    65   ar
    67    22    23   ar
    68    22    20   ar
    69    66    65   ar
    70     9    10    1
    71     9     6    1
    72    23    21   ar
    73    20    18   ar
    74    21    19   ar
    75     6     7    1
    76     6     5    1
    77    38    36   ar
    78    38    39   ar
    79   122   119    1
    80   122   123    1
    81    36    35   ar
    82    18    19   ar
    83    18    17    1
    84     7     8    2
    85    39    41   ar
    86    39    37   ar
    87    41    43   ar
    88   119   120    1
    89   119   118    1
    90    35    37   ar
    91    35    34    1
    92   121   120    2
    93     2     3    1
    94     2     1    1
    95    37    40   ar
    96    17    14    1
    97    43    42   ar
    98    34    31    1
    99    33    32    2
   100     3     4    2
   101    32    31    1
   102    40    42   ar
   103    13    14    1
   104    14    15    1
   105    31    30    1
   106    15    16    2
   107    15    24   am
   108    27    26    2
   109   116   115    1
   110   117   115    1
   111   114   115    1
   112   114   111    1
   113    24    25    1
   114   112   113    2
   115   112   111    1
   116    26    25    1
   117   111   110    1
   118    25    28    1
   119    28    29    1
