@<TRIPOS>MOLECULE
tmp/5ns8C00.pdb
 133 135 0 0 0
SMALL
GASTEIGER

@<TRIPOS>ATOM
      1  N         -2.5320   78.3530  -20.2000 N.3    19  GLN19      -0.1245
      2  CA        -3.3450   79.3110  -19.4820 C.3    19  GLN19       0.1566
      3  C         -3.1260   79.2720  -17.9760 C.2    19  GLN19       0.2260
      4  O         -3.3570   80.2930  -17.3270 O.2    19  GLN19      -0.2867
      5  CB        -4.8210   79.0940  -19.8100 C.3    19  GLN19       0.0367
      6  CG        -5.1220   79.4090  -21.2700 C.3    19  GLN19       0.0905
      7  CD        -6.5800   79.2460  -21.6110 C.2    19  GLN19       0.2608
      8  OE1       -7.0340   78.1520  -21.9430 O.2    19  GLN19      -0.2717
      9  NE2       -7.3280   80.3360  -21.5210 N.am   19  GLN19      -0.0878
     10  N         -3.8990   72.1590  -27.0830 N.3   120  HIS120     -0.1226
     11  CA        -4.7070   73.3120  -26.7200 C.3   120  HIS120      0.1752
     12  C         -3.8990   74.5750  -27.0160 C.2   120  HIS120      0.2596
     13  O         -3.7330   75.4530  -26.1650 O.2   120  HIS120     -0.2718
     14  CB        -5.1520   73.2110  -25.2550 C.3   120  HIS120      0.0759
     15  CG        -6.3460   74.0470  -24.9190 C.ar  120  HIS120      0.0818
     16  ND1       -7.4520   73.5340  -24.2800 N.ar  120  HIS120     -0.2268
     17  CD2       -6.5970   75.3670  -25.1030 C.ar  120  HIS120      0.1154
     18  CE1       -8.3360   74.4950  -24.0880 C.ar  120  HIS120      0.1986
     19  NE2       -7.8390   75.6210  -24.5680 N.ar  120  HIS120     -0.2212
     20  N         -3.3700   74.6530  -28.2380 N.am  121  TRP121     -0.1976
     21  CA        -2.9560   75.8700  -28.9410 C.3   121  TRP121      0.1640
     22  C         -1.4920   76.2390  -28.7300 C.2   121  TRP121      0.2290
     23  O         -1.0030   77.1550  -29.4000 O.2   121  TRP121     -0.2864
     24  CB        -3.8200   77.0940  -28.5850 C.3   121  TRP121      0.0576
     25  CG        -5.2910   76.9180  -28.7730 C.ar  121  TRP121      0.0006
     26  CD1       -5.9510   75.8360  -29.2930 C.ar  121  TRP121      0.0946
     27  CD2       -6.2910   77.8750  -28.4360 C.ar  121  TRP121      0.0152
     28  NE1       -7.3130   76.0690  -29.2920 N.ar  121  TRP121     -0.2442
     29  CE2       -7.5430   77.3150  -28.7680 C.ar  121  TRP121      0.0810
     30  CE3       -6.2500   79.1610  -27.8860 C.ar  121  TRP121      0.0012
     31  CZ2       -8.7350   77.9970  -28.5640 C.ar  121  TRP121      0.0191
     32  CZ3       -7.4320   79.8360  -27.6870 C.ar  121  TRP121      0.0001
     33  CH2       -8.6590   79.2560  -28.0300 C.ar  121  TRP121      0.0015
     34  N         -8.2000   70.8940  -29.5550 N.3   164  ASN164     -0.1225
     35  CA        -9.2240   71.7640  -28.9960 C.3   164  ASN164      0.1785
     36  C         -9.4560   72.9310  -29.9430 C.2   164  ASN164      0.2597
     37  O         -8.5240   73.6780  -30.2450 O.2   164  ASN164     -0.2718
     38  CB        -8.7890   72.2820  -27.6250 C.3   164  ASN164      0.1169
     39  CG        -9.7600   73.2980  -27.0520 C.2   164  ASN164      0.2627
     40  OD1      -10.8120   72.9380  -26.5400 O.2   164  ASN164     -0.2716
     41  ND2       -9.4110   74.5740  -27.1490 N.am  164  ASN164     -0.0877
     42  N        -10.6950   73.0820  -30.4090 N.am  165  GLU165     -0.1979
     43  CA       -11.1410   74.2660  -31.1410 C.3   165  GLU165      0.1602
     44  C        -10.2400   74.6250  -32.3180 C.2   165  GLU165      0.2287
     45  O         -9.6230   75.6960  -32.3320 O.2   165  GLU165     -0.2864
     46  CB       -11.2470   75.4610  -30.1940 C.3   165  GLU165      0.0415
     47  CG       -12.2670   75.2610  -29.0710 C.3   165  GLU165      0.1163
     48  CD       -12.7510   76.5690  -28.4610 C.2   165  GLU165      0.3649
     49  OE1      -12.2120   77.6400  -28.8110 O.co2 165  GLU165     -0.2457
     50  OE2      -13.6860   76.5270  -27.6360 O.co2 165  GLU165     -0.2457
     51  N        -20.4410   78.5810  -25.7860 N.3   292  TYR292     -0.1241
     52  CA       -20.5440   79.7780  -24.9570 C.3   292  TYR292      0.1605
     53  C        -21.6370   80.7350  -25.4090 C.2   292  TYR292      0.2264
     54  O        -22.3350   81.2990  -24.5580 O.2   292  TYR292     -0.2867
     55  CB       -19.2100   80.5270  -24.9400 C.3   292  TYR292      0.0534
     56  CG       -18.0940   79.8110  -24.2210 C.ar  292  TYR292     -0.0201
     57  CD1      -17.2890   78.8850  -24.8780 C.ar  292  TYR292     -0.0009
     58  CD2      -17.8240   80.0840  -22.8870 C.ar  292  TYR292     -0.0009
     59  CE1      -16.2640   78.2380  -24.2170 C.ar  292  TYR292      0.0417
     60  CE2      -16.8010   79.4480  -22.2230 C.ar  292  TYR292      0.0417
     61  CZ       -16.0140   78.5370  -22.8930 C.ar  292  TYR292      0.1957
     62  OH       -14.9970   77.9080  -22.2170 O.3   292  TYR292     -0.2866
     63  N        -20.3530   88.8500  -24.8030 N.3   323  TRP323     -0.1241
     64  CA       -20.9820   87.7130  -25.4650 C.3   323  TRP323      0.1605
     65  C        -22.4330   87.5810  -25.0200 C.2   323  TRP323      0.2264
     66  O        -22.7220   87.6210  -23.8210 O.2   323  TRP323     -0.2867
     67  CB       -20.2380   86.4210  -25.1360 C.3   323  TRP323      0.0550
     68  CG       -18.8100   86.3590  -25.5670 C.ar  323  TRP323      0.0003
     69  CD1      -18.1490   87.2110  -26.4060 C.ar  323  TRP323      0.0946
     70  CD2      -17.8660   85.3680  -25.1710 C.ar  323  TRP323      0.0152
     71  NE1      -16.8410   86.8010  -26.5550 N.ar  323  TRP323     -0.2442
     72  CE2      -16.6440   85.6730  -25.8000 C.ar  323  TRP323      0.0810
     73  CE3      -17.9360   84.2460  -24.3370 C.ar  323  TRP323      0.0012
     74  CZ2      -15.5090   84.8920  -25.6290 C.ar  323  TRP323      0.0191
     75  CZ3      -16.8170   83.4780  -24.1690 C.ar  323  TRP323      0.0001
     76  CH2      -15.6120   83.8000  -24.8080 C.ar  323  TRP323      0.0015
     77  N        -16.3140   72.3200  -22.5640 N.3   350  GLU350     -0.1245
     78  CA       -16.2470   73.6810  -22.0450 C.3   350  GLU350      0.1567
     79  C        -17.5930   74.3770  -22.1480 C.2   350  GLU350      0.2260
     80  O        -18.2690   74.3180  -23.1820 O.2   350  GLU350     -0.2867
     81  CB       -15.2350   74.5540  -22.7810 C.3   350  GLU350      0.0388
     82  CG       -13.8130   74.0800  -22.7420 C.3   350  GLU350      0.1160
     83  CD       -12.8890   75.1050  -23.3490 C.2   350  GLU350      0.3649
     84  OE1      -13.2860   76.2970  -23.4120 O.co2 350  GLU350     -0.2457
     85  OE2      -11.7860   74.7220  -23.7660 O.co2 350  GLU350     -0.2457
     86  N        -15.6980   75.3830  -17.7040 N.3   396  TRP396     -0.1241
     87  CA       -14.5720   76.2790  -17.9650 C.3   396  TRP396      0.1605
     88  C        -14.7770   77.5120  -17.0880 C.2   396  TRP396      0.2264
     89  O        -15.7160   78.2750  -17.3230 O.2   396  TRP396     -0.2867
     90  CB       -14.4800   76.6970  -19.4330 C.3   396  TRP396      0.0550
     91  CG       -13.2230   77.4880  -19.6050 C.ar  396  TRP396      0.0003
     92  CD1      -13.0680   78.8310  -19.4460 C.ar  396  TRP396      0.0946
     93  CD2      -11.9240   76.9630  -19.8790 C.ar  396  TRP396      0.0152
     94  NE1      -11.7510   79.1770  -19.6150 N.ar  396  TRP396     -0.2442
     95  CE2      -11.0270   78.0460  -19.8780 C.ar  396  TRP396      0.0810
     96  CE3      -11.4310   75.6810  -20.1290 C.ar  396  TRP396      0.0012
     97  CZ2       -9.6640   77.8860  -20.1280 C.ar  396  TRP396      0.0191
     98  CZ3      -10.0770   75.5240  -20.3830 C.ar  396  TRP396      0.0001
     99  CH2       -9.2110   76.6190  -20.3750 C.ar  396  TRP396      0.0015
    100  N         -6.5510   84.5260  -20.3290 N.3   403  GLU403     -0.1231
    101  CA        -7.5760   84.4340  -21.3740 C.3   403  GLU403      0.1699
    102  C         -7.0430   84.9880  -22.7000 C.2   403  GLU403      0.2592
    103  O         -7.5580   85.9440  -23.2870 O.2   403  GLU403     -0.2718
    104  CB        -8.8520   85.1450  -20.9290 C.3   403  GLU403      0.0402
    105  CG       -10.0240   85.0660  -21.9250 C.3   403  GLU403      0.1161
    106  CD       -10.3110   83.6670  -22.4460 C.2   403  GLU403      0.3649
    107  OE1      -10.1630   82.6990  -21.6830 O.co2 403  GLU403     -0.2457
    108  OE2      -10.6970   83.5370  -23.6350 O.co2 403  GLU403     -0.2457
    109  N         -5.9590   84.3560  -23.1560 N.am  404  TRP404     -0.1976
    110  CA        -5.4100   84.5370  -24.5040 C.3   404  TRP404      0.1640
    111  C         -5.2030   86.0300  -24.7650 C.2   404  TRP404      0.2290
    112  O         -4.5480   86.7030  -23.9560 O.2   404  TRP404     -0.2864
    113  CB        -6.3210   83.8170  -25.4800 C.3   404  TRP404      0.0576
    114  CG        -6.4480   82.3760  -25.1710 C.ar  404  TRP404      0.0006
    115  CD1       -7.5820   81.7060  -24.8360 C.ar  404  TRP404      0.0946
    116  CD2       -5.3860   81.4120  -25.1380 C.ar  404  TRP404      0.0152
    117  NE1       -7.3010   80.3810  -24.6120 N.ar  404  TRP404     -0.2442
    118  CE2       -5.9590   80.1740  -24.7830 C.ar  404  TRP404      0.0810
    119  CE3       -4.0090   81.4760  -25.3740 C.ar  404  TRP404      0.0012
    120  CZ2       -5.2080   79.0040  -24.6770 C.ar  404  TRP404      0.0191
    121  CZ3       -3.2620   80.3160  -25.2630 C.ar  404  TRP404      0.0001
    122  CH2       -3.8640   79.0950  -24.9150 C.ar  404  TRP404      0.0015
    123  N        -12.6870   83.5820  -15.9550 N.3   412  PHE412     -0.1241
    124  CA       -13.6680   82.5230  -16.1760 C.3   412  PHE412      0.1605
    125  C        -13.7490   81.5340  -15.0200 C.2   412  PHE412      0.2264
    126  O        -14.5410   80.5920  -15.0830 O.2   412  PHE412     -0.2867
    127  CB       -13.3360   81.7460  -17.4590 C.3   412  PHE412      0.0534
    128  CG       -13.8290   82.3830  -18.7250 C.ar  412  PHE412     -0.0203
    129  CD1      -13.0370   83.2750  -19.4240 C.ar  412  PHE412     -0.0042
    130  CD2      -15.0810   82.0670  -19.2370 C.ar  412  PHE412     -0.0042
    131  CE1      -13.4890   83.8550  -20.6050 C.ar  412  PHE412     -0.0003
    132  CE2      -15.5340   82.6340  -20.4080 C.ar  412  PHE412     -0.0003
    133  CZ       -14.7400   83.5270  -21.0970 C.ar  412  PHE412     -0.0000
@<TRIPOS>BOND
     1    45    44    2
     2    44    43    1
     3    43    42    1
     4    43    46    1
     5    42    36   am
     6    37    36    2
     7    46    47    1
     8    36    35    1
     9    34    35    1
    10    23    22    2
    11    26    28   ar
    12    26    25   ar
    13    28    29   ar
    14    47    48    1
    15    35    38    1
    16    21    22    1
    17    21    24    1
    18    21    20    1
    19    49    48   ar
    20    25    24    1
    21    25    27   ar
    22    29    31   ar
    23    29    27   ar
    24    31    33   ar
    25    48    50   ar
    26    27    30   ar
    27    20    12   am
    28    33    32   ar
    29    30    32   ar
    30    38    39    1
    31    41    39   am
    32    10    11    1
    33    39    40    2
    34    12    11    1
    35    12    13    2
    36    11    14    1
    37    71    69   ar
    38    71    72   ar
    39    69    68   ar
    40    72    74   ar
    41    72    70   ar
    42    51    52    1
    43    74    76   ar
    44    68    70   ar
    45    68    67    1
    46   113   114    1
    47   113   110    1
    48    64    67    1
    49    64    65    1
    50    64    63    1
    51    53    52    1
    52    53    54    2
    53   119   121   ar
    54   119   116   ar
    55   121   122   ar
    56    14    15    1
    57    70    73   ar
    58   114   116   ar
    59   114   115   ar
    60   116   118   ar
    61    17    15   ar
    62    17    19   ar
    63    65    66    2
    64    52    55    1
    65    55    56    1
    66    15    16   ar
    67   122   120   ar
    68    57    56   ar
    69    57    59   ar
    70   115   117   ar
    71    76    75   ar
    72   118   120   ar
    73   118   117   ar
    74   111   110    1
    75   111   112    2
    76    19    18   ar
    77   110   109    1
    78    73    75   ar
    79    16    18   ar
    80    56    58   ar
    81    59    61   ar
    82    85    83   ar
    83   108   106   ar
    84    84    83   ar
    85    83    82    1
    86   103   102    2
    87    80    79    2
    88   109   102   am
    89    61    60   ar
    90    61    62    1
    91    58    60   ar
    92    81    82    1
    93    81    78    1
    94   102   101    1
    95    77    78    1
    96   106   105    1
    97   106   107   ar
    98    79    78    1
    99     8     7    2
   100   105   104    1
   101     7     9   am
   102     7     6    1
   103   101   104    1
   104   101   100    1
   105     6     5    1
   106   133   131   ar
   107   133   132   ar
   108   131   129   ar
   109   132   130   ar
   110    98    99   ar
   111    98    96   ar
   112    99    97   ar
   113     1     2    1
   114    96    93   ar
   115    97    95   ar
   116    93    95   ar
   117    93    91   ar
   118    95    94   ar
   119     5     2    1
   120    94    92   ar
   121    91    92   ar
   122    91    90    1
   123     2     3    1
   124    90    87    1
   125   129   128   ar
   126   130   128   ar
   127   128   127    1
   128     3     4    2
   129    87    86    1
   130    87    88    1
   131   127   124    1
   132    89    88    2
   133   124   123    1
   134   124   125    1
   135   126   125    2
