@<TRIPOS>MOLECULE
tmp/5ns9A01.pdb
 73 69 0 0 0
SMALL
GASTEIGER

@<TRIPOS>ATOM
      1  N         35.6100 -126.7770  124.0940 N.3     3  ASN3       -0.1225
      2  CA        35.6030 -126.9840  122.6550 C.3     3  ASN3        0.1785
      3  C         34.2410 -127.4630  122.2330 C.2     3  ASN3        0.2597
      4  O         33.6430 -128.3140  122.9220 O.2     3  ASN3       -0.2718
      5  CB        36.6140 -128.1010  122.2820 C.3     3  ASN3        0.1169
      6  CG        38.0510 -127.6820  122.4890 C.2     3  ASN3        0.2627
      7  OD1       38.3590 -126.4790  122.5170 O.2     3  ASN3       -0.2716
      8  ND2       38.9470 -128.6800  122.6540 N.am    3  ASN3       -0.0877
      9  N         33.7340 -126.9760  121.0950 N.am    4  LYS4       -0.1980
     10  CA        32.4240 -127.3800  120.6220 C.3     4  LYS4        0.1596
     11  C         32.3860 -127.3530  119.0790 C.2     4  LYS4        0.2287
     12  O         32.9340 -126.4700  118.4730 O.2     4  LYS4       -0.2864
     13  CB        31.3590 -126.4960  121.1790 C.3     4  LYS4        0.0298
     14  CG        29.9370 -126.8540  120.8580 C.3     4  LYS4        0.0038
     15  CD        28.9710 -125.7990  121.4720 C.3     4  LYS4        0.0206
     16  CE        27.5660 -126.2390  121.1580 C.3     4  LYS4        0.1093
     17  NZ        26.4920 -125.3880  121.6900 N.3     4  LYS4       -0.1314
     18  N         30.8480 -126.3120  115.7710 N.3     6  VAL6       -0.1245
     19  CA        29.9870 -125.2650  115.3150 C.3     6  VAL6        0.1561
     20  C         28.9500 -125.8130  114.3520 C.2     6  VAL6        0.2260
     21  O         29.2780 -126.4430  113.3390 O.2     6  VAL6       -0.2867
     22  CB        30.8810 -124.1700  114.6160 C.3     6  VAL6        0.0252
     23  CG1       30.0390 -123.1510  113.8860 C.3     6  VAL6        0.0019
     24  CG2       31.7660 -123.5190  115.6290 C.3     6  VAL6        0.0019
     25  N         39.4590 -119.3570  111.5960 N.3    47  CYS47      -0.1221
     26  CA        38.9020 -119.0390  112.9120 C.3    47  CYS47       0.1808
     27  C         39.1550 -120.2180  113.9280 C.2    47  CYS47       0.2602
     28  O         38.9340 -120.0830  115.1500 O.2    47  CYS47      -0.2717
     29  CB        37.4350 -118.8020  112.7880 C.3    47  CYS47       0.0970
     30  SG        37.0260 -117.3360  111.8450 S.3    47  CYS47      -0.0800
     31  N         39.7080 -121.3320  113.4700 N.am   48  GLY48      -0.1942
     32  CA        40.1340 -122.3990  114.3420 C.3    48  GLY48       0.2014
     33  C         38.9610 -123.1740  114.9810 C.2    48  GLY48       0.2638
     34  O         39.0300 -123.4110  116.1870 O.2    48  GLY48      -0.2714
     35  N         37.9540 -123.5920  114.2040 N.am   49  PHE49      -0.1973
     36  CA        36.9010 -124.3690  114.7280 C.3    49  PHE49       0.1639
     37  C         36.5480 -125.5690  113.8240 C.2    49  PHE49       0.2290
     38  O         36.8190 -125.5620  112.6460 O.2    49  PHE49      -0.2864
     39  CB        35.6430 -123.5450  115.0050 C.3    49  PHE49       0.0560
     40  CG        35.0280 -122.8590  113.8060 C.ar   49  PHE49      -0.0200
     41  CD1       34.2690 -123.5300  112.9310 C.ar   49  PHE49      -0.0042
     42  CD2       35.1060 -121.4490  113.6780 C.ar   49  PHE49      -0.0042
     43  CE1       33.6810 -122.8590  111.8510 C.ar   49  PHE49      -0.0003
     44  CE2       34.4660 -120.7970  112.6310 C.ar   49  PHE49      -0.0003
     45  CZ        33.7670 -121.5020  111.6970 C.ar   49  PHE49      -0.0000
     46  N         24.7900 -122.0340  115.0120 N.3    84  ASP84      -0.1239
     47  CA        25.7600 -121.1190  115.4690 C.3    84  ASP84       0.1674
     48  C         26.1650 -120.1120  114.4040 C.2    84  ASP84       0.2266
     49  O         26.6880 -118.9980  114.7300 O.2    84  ASP84      -0.2867
     50  CB        27.0570 -121.7920  115.9120 C.3    84  ASP84       0.1410
     51  CG        26.8200 -122.7680  117.1120 C.2    84  ASP84       0.3668
     52  OD1       26.3370 -122.2440  118.1760 O.co2  84  ASP84      -0.2456
     53  OD2       27.0330 -124.0190  116.9630 O.co2  84  ASP84      -0.2456
     54  N         26.9680 -112.8840  119.1270 N.3   228  SER228     -0.1202
     55  CA        27.8310 -114.0750  119.2660 C.3   228  SER228      0.2020
     56  C         29.2960 -113.6640  119.1340 C.2   228  SER228      0.2619
     57  O         29.6650 -112.8550  118.2170 O.2   228  SER228     -0.2717
     58  CB        27.4860 -115.1220  118.1920 C.3   228  SER228      0.2103
     59  OG        28.6230 -115.9850  117.9330 O.3   228  SER228     -0.2182
     60  N         30.1360 -114.1470  120.0250 N.am  229  SER229     -0.1937
     61  CA        31.5600 -113.8090  119.9560 C.3   229  SER229      0.2055
     62  C         32.2720 -114.3430  118.6990 C.2   229  SER229      0.2642
     63  O         33.3670 -113.8840  118.4070 O.2   229  SER229     -0.2714
     64  CB        32.3190 -114.2540  121.2100 C.3   229  SER229      0.2130
     65  OG        32.3220 -115.6740  121.1200 O.3   229  SER229     -0.2179
     66  N         31.6600 -115.2780  117.9940 N.am  230  LEU230     -0.1977
     67  CA        32.2550 -115.8050  116.7450 C.3   230  LEU230      0.1596
     68  C         32.2880 -114.6930  115.6330 C.2   230  LEU230      0.2287
     69  O         33.1070 -114.7020  114.6960 O.2   230  LEU230     -0.2864
     70  CB        31.3870 -116.9620  116.2260 C.3   230  LEU230      0.0297
     71  CG        32.0520 -117.9450  115.3510 C.3   230  LEU230      0.0022
     72  CD1       33.4320 -118.3350  115.8120 C.3   230  LEU230      0.0001
     73  CD2       31.0670 -119.1820  115.2890 C.3   230  LEU230      0.0001
@<TRIPOS>BOND
     1    25    26    1
     2    45    43   ar
     3    45    44   ar
     4    30    29    1
     5    43    41   ar
     6    44    42   ar
     7    38    37    2
     8    29    26    1
     9    26    27    1
    10    41    40   ar
    11    21    20    2
    12    31    27   am
    13    31    32    1
    14    42    40   ar
    15    40    39    1
    16    37    36    1
    17    23    22    1
    18    27    28    2
    19    35    36    1
    20    35    33   am
    21    32    33    1
    22    20    19    1
    23    48    49    2
    24    48    47    1
    25    22    19    1
    26    22    24    1
    27    69    68    2
    28    36    39    1
    29    33    34    2
    30    46    47    1
    31    73    71    1
    32    19    18    1
    33    71    72    1
    34    71    70    1
    35    47    50    1
    36    68    67    1
    37    50    51    1
    38    70    67    1
    39    67    66    1
    40    53    51   ar
    41    51    52   ar
    42    59    58    1
    43    66    62   am
    44    58    55    1
    45    57    56    2
    46    63    62    2
    47    12    11    2
    48    62    61    1
    49    11    10    1
    50    54    55    1
    51    56    55    1
    52    56    60   am
    53    61    60    1
    54    61    64    1
    55    10     9    1
    56    10    13    1
    57    14    13    1
    58    14    15    1
    59     9     3   am
    60    65    64    1
    61    16    15    1
    62    16    17    1
    63     3     2    1
    64     3     4    2
    65     5     6    1
    66     5     2    1
    67     6     7    2
    68     6     8   am
    69     2     1    1
