@<TRIPOS>MOLECULE
tmp/5nsdA00.pdb
 229 220 0 0 0
SMALL
GASTEIGER

@<TRIPOS>ATOM
      1  N          8.6080    6.5510   78.6610 N.3   170  GLU170     -0.1231
      2  CA         7.4610    6.4470   79.5610 C.3   170  GLU170      0.1699
      3  C          7.0860    5.0130   79.9120 C.2   170  GLU170      0.2592
      4  O          6.1130    4.8300   80.6520 O.2   170  GLU170     -0.2718
      5  CB         6.2420    7.1580   78.9670 C.3   170  GLU170      0.0402
      6  CG         5.8840    6.7440   77.5560 C.3   170  GLU170      0.1161
      7  CD         5.0060    7.7680   76.8550 C.2   170  GLU170      0.3649
      8  OE1        5.1140    8.9700   77.1810 O.co2 170  GLU170     -0.2457
      9  OE2        4.2040    7.3730   75.9820 O.co2 170  GLU170     -0.2457
     10  N          7.8130    3.9920   79.4310 N.am  171  TYR171     -0.1962
     11  CA         7.5610    2.6430   79.9300 C.3   171  TYR171      0.1771
     12  C          8.8450    1.8660   80.2010 C.2   171  TYR171      0.2619
     13  O          8.8720    0.6400   80.0550 O.2   171  TYR171     -0.2715
     14  CB         6.6680    1.8480   78.9830 C.3   171  TYR171      0.0574
     15  CG         7.0880    1.8190   77.5350 C.ar  171  TYR171     -0.0198
     16  CD1        8.2870    1.2350   77.1420 C.ar  171  TYR171     -0.0009
     17  CD2        6.2660    2.3510   76.5540 C.ar  171  TYR171     -0.0009
     18  CE1        8.6610    1.1950   75.8140 C.ar  171  TYR171      0.0417
     19  CE2        6.6290    2.3150   75.2230 C.ar  171  TYR171      0.0417
     20  CZ         7.8280    1.7360   74.8580 C.ar  171  TYR171      0.1957
     21  OH         8.1880    1.7040   73.5320 O.3   171  TYR171     -0.2866
     22  N          9.9020    2.5410   80.6210 N.am  172  LYS172     -0.1977
     23  CA        11.1240    1.8450   81.0030 C.3   172  LYS172      0.1596
     24  C         11.1160    1.3850   82.4560 C.2   172  LYS172      0.2287
     25  O         12.0660    0.7180   82.8790 O.2   172  LYS172     -0.2864
     26  CB        12.3430    2.7380   80.7420 C.3   172  LYS172      0.0298
     27  CG        12.7110    2.8410   79.2620 C.3   172  LYS172      0.0038
     28  CD        14.1120    2.2930   79.0050 C.3   172  LYS172      0.0206
     29  CE        14.4640    2.3090   77.5230 C.3   172  LYS172      0.1093
     30  NZ        13.7760    1.2300   76.7680 N.3   172  LYS172     -0.1314
     31  N          8.3410   -0.5560   84.9610 N.3   174  HIS174     -0.1241
     32  CA         7.0410   -1.1810   85.1820 C.3   174  HIS174      0.1621
     33  C          6.8050   -1.4810   86.6640 C.2   174  HIS174      0.2264
     34  O          7.7140   -1.8960   87.3880 O.2   174  HIS174     -0.2867
     35  CB         6.9190   -2.4790   84.3700 C.3   174  HIS174      0.0745
     36  CG         5.5090   -2.8410   84.0030 C.ar  174  HIS174      0.0817
     37  ND1        4.9040   -2.3880   82.8500 N.ar  174  HIS174     -0.2268
     38  CD2        4.5900   -3.6200   84.6270 C.ar  174  HIS174      0.1154
     39  CE1        3.6730   -2.8650   82.7820 C.ar  174  HIS174      0.1986
     40  NE2        3.4570   -3.6150   83.8490 N.ar  174  HIS174     -0.2212
     41  N          5.5410   -3.6650   89.5450 N.3   176  PHE176     -0.1241
     42  CA         5.3180   -5.0720   89.8880 C.3   176  PHE176      0.1605
     43  C          4.8040   -5.2770   91.3140 C.2   176  PHE176      0.2264
     44  O          4.7890   -6.4160   91.7970 O.2   176  PHE176     -0.2867
     45  CB         6.6160   -5.8850   89.7260 C.3   176  PHE176      0.0534
     46  CG         7.0230   -6.1590   88.2950 C.ar  176  PHE176     -0.0203
     47  CD1        6.2310   -5.7670   87.2300 C.ar  176  PHE176     -0.0042
     48  CD2        8.2080   -6.8330   88.0270 C.ar  176  PHE176     -0.0042
     49  CE1        6.6160   -6.0370   85.9190 C.ar  176  PHE176     -0.0003
     50  CE2        8.5940   -7.1060   86.7180 C.ar  176  PHE176     -0.0003
     51  CZ         7.7960   -6.7040   85.6670 C.ar  176  PHE176     -0.0000
     52  N          1.9820   -5.2060   93.2850 N.3   178  TYR178     -0.1227
     53  CA         0.6570   -5.5080   93.8230 C.3   178  TYR178      0.1736
     54  C          0.7300   -6.4470   95.0250 C.2   178  TYR178      0.2595
     55  O          0.1430   -6.1700   96.0790 O.2   178  TYR178     -0.2718
     56  CB        -0.2500   -6.1070   92.7340 C.3   178  TYR178      0.0548
     57  CG        -1.7570   -5.9110   92.9580 C.ar  178  TYR178     -0.0200
     58  CD1       -2.2800   -5.5920   94.2180 C.ar  178  TYR178     -0.0009
     59  CD2       -2.6560   -6.0520   91.9080 C.ar  178  TYR178     -0.0009
     60  CE1       -3.6690   -5.4250   94.4010 C.ar  178  TYR178      0.0417
     61  CE2       -4.0360   -5.8830   92.0920 C.ar  178  TYR178      0.0417
     62  CZ        -4.5330   -5.5680   93.3380 C.ar  178  TYR178      0.1957
     63  OH        -5.8960   -5.4140   93.5190 O.3   178  TYR178     -0.2866
     64  N          1.4230   -7.5720   94.8800 N.am  179  ARG179     -0.1980
     65  CA         1.4770   -8.5340   95.9660 C.3   179  ARG179      0.1597
     66  C          2.3900   -8.0900   97.1040 C.2   179  ARG179      0.2287
     67  O          2.2850   -8.6370   98.2030 O.2   179  ARG179     -0.2864
     68  CB         1.9350   -9.8990   95.4340 C.3   179  ARG179      0.0334
     69  CG         3.4200  -10.1140   95.4680 C.3   179  ARG179      0.0492
     70  CD         3.8710  -11.2360   94.5190 C.3   179  ARG179      0.2205
     71  NE         3.3170  -11.1340   93.1700 N.pl3 179  ARG179     -0.0865
     72  CZ         3.4700  -12.0750   92.2440 C.cat 179  ARG179      0.5346
     73  NH1        2.9240  -11.9220   91.0420 N.pl3 179  ARG179      0.1354
     74  NH2        4.1830  -13.1640   92.5180 N.pl3 179  ARG179      0.1354
     75  N          3.8240    4.9100   82.3780 N.3   199  LYS199     -0.1231
     76  CA         2.5860    4.4050   81.8080 C.3   199  LYS199      0.1693
     77  C          2.3870    2.8990   81.9170 C.2   199  LYS199      0.2592
     78  O          1.3030    2.4220   81.5420 O.2   199  LYS199     -0.2718
     79  CB         2.4590    4.8130   80.3280 C.3   199  LYS199      0.0285
     80  CG         1.6130    6.0690   80.1230 C.3   199  LYS199      0.0035
     81  CD         1.8870    6.7880   78.8000 C.3   199  LYS199      0.0206
     82  CE         0.7340    7.7320   78.4550 C.3   199  LYS199      0.1093
     83  NZ        -0.5900    7.0870   78.6760 N.3   199  LYS199     -0.1314
     84  N          3.3570    2.1430   82.4310 N.am  200  GLY200     -0.1957
     85  CA         3.2260    0.6940   82.5270 C.3   200  GLY200      0.1869
     86  C          2.9740    0.2390   83.9550 C.2   200  GLY200      0.2309
     87  O          3.6800    0.6440   84.8830 O.2   200  GLY200     -0.2863
     88  N          1.1890   -3.3260   86.3400 N.3   202  ASP202     -0.1239
     89  CA         0.4660   -4.5770   86.5050 C.3   202  ASP202      0.1674
     90  C         -0.5240   -4.5260   87.6640 C.2   202  ASP202      0.2266
     91  O         -1.3320   -5.4490   87.8150 O.2   202  ASP202     -0.2867
     92  CB         1.4560   -5.7330   86.7110 C.3   202  ASP202      0.1410
     93  CG         1.8490   -6.4060   85.4170 C.2   202  ASP202      0.3668
     94  OD1        1.9510   -7.6480   85.4200 O.co2 202  ASP202     -0.2456
     95  OD2        2.0270   -5.7070   84.3940 O.co2 202  ASP202     -0.2456
     96  N         -1.0270    0.4840   81.0260 N.3   223  TYR223     -0.1227
     97  CA        -1.0860   -0.6000   80.0530 C.3   223  TYR223      0.1736
     98  C         -0.1610   -1.7400   80.4730 C.2   223  TYR223      0.2596
     99  O          0.6720   -1.5960   81.3740 O.2   223  TYR223     -0.2718
    100  CB        -0.7280   -0.0990   78.6440 C.3   223  TYR223      0.0548
    101  CG        -1.5960    1.0480   78.1450 C.ar  223  TYR223     -0.0200
    102  CD1       -1.2790    2.3670   78.4500 C.ar  223  TYR223     -0.0009
    103  CD2       -2.7250    0.8100   77.3620 C.ar  223  TYR223     -0.0009
    104  CE1       -2.0620    3.4170   78.0000 C.ar  223  TYR223      0.0417
    105  CE2       -3.5140    1.8590   76.9020 C.ar  223  TYR223      0.0417
    106  CZ        -3.1760    3.1590   77.2270 C.ar  223  TYR223      0.1957
    107  OH        -3.9460    4.2100   76.7820 O.3   223  TYR223     -0.2866
    108  N         -0.3100   -2.8840   79.7980 N.am  224  SER224     -0.1938
    109  CA         0.4960   -4.0690   80.0810 C.3   224  SER224      0.2055
    110  C          0.4990   -4.9900   78.8590 C.2   224  SER224      0.2642
    111  O         -0.2640   -4.7970   77.9080 O.2   224  SER224     -0.2714
    112  CB        -0.0230   -4.7980   81.3280 C.3   224  SER224      0.2130
    113  OG         0.8210   -5.8810   81.6820 O.3   224  SER224     -0.2179
    114  N          1.3840   -5.9880   78.8930 N.am  225  VAL225     -0.1977
    115  CA         1.5130   -6.9910   77.8300 C.3   225  VAL225      0.1596
    116  C          1.4510   -8.3840   78.4500 C.2   225  VAL225      0.2287
    117  O          1.5830   -8.5200   79.6740 O.2   225  VAL225     -0.2864
    118  CB         2.8170   -6.8210   77.0250 C.3   225  VAL225      0.0276
    119  CG1        2.9780   -5.3890   76.5310 C.3   225  VAL225      0.0022
    120  CG2        4.0360   -7.2990   77.8230 C.3   225  VAL225      0.0022
    121  N          2.6720  -12.0040   79.7720 N.3   227  ALA227     -0.1231
    122  CA         3.9360  -12.4160   80.3750 C.3   227  ALA227      0.1694
    123  C          3.7260  -13.7280   81.1210 C.2   227  ALA227      0.2591
    124  O          2.6090  -14.0550   81.5250 O.2   227  ALA227     -0.2718
    125  CB         4.4800  -11.3330   81.3170 C.3   227  ALA227      0.0304
    126  N          4.8150  -14.4780   81.3000 N.am  228  ALA228     -0.1980
    127  CA         4.7870  -15.7540   82.0070 C.3   228  ALA228      0.1597
    128  C          5.2210  -15.5900   83.4640 C.2   228  ALA228      0.2287
    129  O          5.7660  -14.5590   83.8590 O.2   228  ALA228     -0.2864
    130  CB         5.6910  -16.7790   81.3150 C.3   228  ALA228      0.0319
    131  N          3.7760   -8.3600   71.8070 N.3   256  PRO256     -0.2116
    132  CA         4.9350   -8.5450   72.6940 C.3   256  PRO256      0.1372
    133  C          4.6180   -9.5360   73.8060 C.2   256  PRO256      0.2244
    134  O          3.4970   -9.5810   74.3190 O.2   256  PRO256     -0.2868
    135  CB         5.1860   -7.1370   73.2510 C.3   256  PRO256      0.0268
    136  CG         4.5770   -6.2100   72.2440 C.3   256  PRO256      0.0207
    137  CD         3.3910   -6.9410   71.6860 C.3   256  PRO256      0.0892
    138  N          6.6420  -11.4760   77.3330 N.3   258  SER258     -0.1217
    139  CA         7.7730  -11.5980   78.2480 C.3   258  SER258      0.1889
    140  C          7.8130  -13.0120   78.8160 C.2   258  SER258      0.2288
    141  O          6.7750  -13.5580   79.1980 O.2   258  SER258     -0.2866
    142  CB         7.6590  -10.5580   79.3730 C.3   258  SER258      0.2089
    143  OG         8.1780  -11.0270   80.6060 O.3   258  SER258     -0.2183
    144  N          8.1110   -7.9390   69.8430 N.3   290  PRO290     -0.2116
    145  CA         9.3680   -8.6120   70.1790 C.3   290  PRO290      0.1372
    146  C          9.2010   -9.6370   71.2920 C.2   290  PRO290      0.2244
    147  O          8.2170   -9.6440   72.0330 O.2   290  PRO290     -0.2868
    148  CB        10.2610   -7.4590   70.6430 C.3   290  PRO290      0.0268
    149  CG         9.3050   -6.5040   71.2550 C.3   290  PRO290      0.0207
    150  CD         8.0320   -6.5990   70.4540 C.3   290  PRO290      0.0892
    151  N         10.6670  -10.6600   74.8590 N.3   292  ILE292     -0.1245
    152  CA        11.3330   -9.9910   75.9720 C.3   292  ILE292      0.1561
    153  C         11.7990  -11.0620   76.9530 C.2   292  ILE292      0.2260
    154  O         10.9810  -11.7120   77.6150 O.2   292  ILE292     -0.2867
    155  CB        10.4160   -8.9600   76.6440 C.3   292  ILE292      0.0252
    156  CG1        9.8260   -8.0230   75.5840 C.3   292  ILE292      0.0019
    157  CG2       11.1900   -8.1510   77.6720 C.3   292  ILE292      0.0019
    158  CD1        8.6610   -7.1960   76.0610 C.3   292  ILE292      0.0001
    159  N         13.3160  -12.3130   80.3660 N.3   294  ARG294     -0.1245
    160  CA        13.3280  -11.8050   81.7410 C.3   294  ARG294      0.1563
    161  C         14.1520  -12.6930   82.6660 C.2   294  ARG294      0.2260
    162  O         13.7050  -13.8040   83.0100 O.2   294  ARG294     -0.2867
    163  CB        11.9000  -11.6870   82.2770 C.3   294  ARG294      0.0307
    164  CG        11.8140  -11.3310   83.7630 C.3   294  ARG294      0.0489
    165  CD        10.4150  -10.8740   84.1670 C.3   294  ARG294      0.2205
    166  NE         9.4820  -11.9840   84.3460 N.pl3 294  ARG294     -0.0865
    167  CZ         9.1320  -12.5020   85.5230 C.cat 294  ARG294      0.5346
    168  NH1        8.2680  -13.5070   85.5690 N.pl3 294  ARG294      0.1354
    169  NH2        9.6370  -12.0270   86.6550 N.pl3 294  ARG294      0.1354
    170  N         14.4130   -8.0460   73.0730 N.3   332  ARG332     -0.1231
    171  CA        14.6590   -7.0890   74.1480 C.3   332  ARG332      0.1694
    172  C         14.8200   -7.8410   75.4670 C.2   332  ARG332      0.2592
    173  O         14.7010   -9.0690   75.5250 O.2   332  ARG332     -0.2718
    174  CB        13.5350   -6.0580   74.2260 C.3   332  ARG332      0.0321
    175  CG        13.5450   -5.0230   73.1010 C.3   332  ARG332      0.0489
    176  CD        14.8120   -4.1960   73.1220 C.3   332  ARG332      0.2205
    177  NE        14.7930   -3.0930   72.1590 N.pl3 332  ARG332     -0.0865
    178  CZ        15.3200   -3.1530   70.9370 C.cat 332  ARG332      0.5346
    179  NH1       15.9050   -4.2680   70.5120 N.pl3 332  ARG332      0.1354
    180  NH2       15.2640   -2.0960   70.1370 N.pl3 332  ARG332      0.1354
    181  N         15.1000   -7.0910   76.5380 N.am  333  VAL333     -0.1966
    182  CA        15.3680   -7.6500   77.8610 C.3   333  VAL333      0.1727
    183  C         14.6620   -6.8010   78.9110 C.2   333  VAL333      0.2616
    184  O         14.5420   -5.5800   78.7720 O.2   333  VAL333     -0.2715
    185  CB        16.8840   -7.7110   78.1740 C.3   333  VAL333      0.0290
    186  CG1       17.1430   -8.4420   79.4900 C.3   333  VAL333      0.0023
    187  CG2       17.6480   -8.3680   77.0400 C.3   333  VAL333      0.0023
    188  N         14.1980   -7.4540   79.9770 N.am  334  ILE334     -0.1977
    189  CA        13.6100   -6.7650   81.1200 C.3   334  ILE334      0.1596
    190  C         14.1680   -7.3920   82.3910 C.2   334  ILE334      0.2287
    191  O         14.2840   -8.6180   82.4940 O.2   334  ILE334     -0.2864
    192  CB        12.0580   -6.8010   81.0990 C.3   334  ILE334      0.0276
    193  CG1       11.4950   -5.8230   82.1280 C.3   334  ILE334      0.0022
    194  CG2       11.5150   -8.1940   81.3490 C.3   334  ILE334      0.0022
    195  CD1        9.9980   -5.8590   82.2590 C.3   334  ILE334      0.0001
    196  N         13.5770   -7.4230   86.3940 N.3   336  GLY336     -0.1225
    197  CA        12.6140   -7.0680   87.4250 C.3   336  GLY336      0.1811
    198  C         12.8080   -7.7250   88.7790 C.2   336  GLY336      0.2280
    199  O         11.8300   -8.0140   89.4750 O.2   336  GLY336     -0.2866
    200  N         18.5720    1.4190   75.0100 N.3   359  GLU359     -0.1231
    201  CA        17.4450    0.9500   74.2020 C.3   359  GLU359      0.1699
    202  C         17.1650   -0.5390   74.3880 C.2   359  GLU359      0.2592
    203  O         16.0390   -0.9840   74.1340 O.2   359  GLU359     -0.2718
    204  CB        17.6980    1.2120   72.7110 C.3   359  GLU359      0.0402
    205  CG        17.8790    2.6780   72.3180 C.3   359  GLU359      0.1161
    206  CD        18.6190    2.8340   70.9940 C.2   359  GLU359      0.3649
    207  OE1       19.8600    2.6630   70.9840 O.co2 359  GLU359     -0.2457
    208  OE2       17.9660    3.1270   69.9660 O.co2 359  GLU359     -0.2457
    209  N         18.1670   -1.3250   74.7990 N.am  360  ASN360     -0.1960
    210  CA        18.0090   -2.7730   74.8340 C.3   360  ASN360      0.1819
    211  C         17.2070   -3.2600   76.0350 C.2   360  ASN360      0.2621
    212  O         16.7740   -4.4180   76.0450 O.2   360  ASN360     -0.2715
    213  CB        19.3850   -3.4570   74.8350 C.3   360  ASN360      0.1195
    214  CG        20.1470   -3.2610   73.5260 C.2   360  ASN360      0.2630
    215  OD1       19.7110   -3.7060   72.4610 O.2   360  ASN360     -0.2716
    216  ND2       21.2990   -2.5950   73.6070 N.am  360  ASN360     -0.0877
    217  N         16.9900   -2.4210   77.0430 N.am  361  ILE361     -0.1963
    218  CA        16.5350   -2.9140   78.3340 C.3   361  ILE361      0.1727
    219  C         15.3710   -2.0830   78.8470 C.2   361  ILE361      0.2616
    220  O         15.2290   -0.8970   78.5350 O.2   361  ILE361     -0.2715
    221  CB        17.6920   -2.9210   79.3640 C.3   361  ILE361      0.0290
    222  CG1       17.3550   -3.8190   80.5650 C.3   361  ILE361      0.0022
    223  CG2       18.0340   -1.4950   79.7840 C.3   361  ILE361      0.0023
    224  CD1       18.5810   -4.3640   81.3000 C.3   361  ILE361      0.0001
    225  N         14.5230   -2.7340   79.6340 N.am  362  ALA362     -0.1977
    226  CA        13.5490   -2.0820   80.4870 C.3   362  ALA362      0.1597
    227  C         13.6980   -2.6610   81.8870 C.2   362  ALA362      0.2287
    228  O         14.3980   -3.6590   82.0930 O.2   362  ALA362     -0.2864
    229  CB        12.1210   -2.2690   79.9600 C.3   362  ALA362      0.0319
@<TRIPOS>BOND
     1   144   145    1
     2   144   150    1
     3   208   206   ar
     4   180   178    1
     5   145   148    1
     6   145   146    1
     7   150   149    1
     8   179   178    1
     9   148   149    1
    10   178   177    2
    11   207   206   ar
    12   206   205    1
    13   146   147    2
    14   137   131    1
    15   137   136    1
    16   131   132    1
    17   177   176    1
    18   136   135    1
    19   205   204    1
    20   215   214    2
    21   132   135    1
    22   132   133    1
    23   204   201    1
    24   170   171    1
    25   175   176    1
    26   175   174    1
    27   214   216   am
    28   214   213    1
    29    21    20    1
    30   133   134    2
    31   203   202    2
    32   171   174    1
    33   171   172    1
    34   201   202    1
    35   201   200    1
    36   202   209   am
    37   209   210    1
    38   210   213    1
    39   210   211    1
    40    20    19   ar
    41    20    18   ar
    42   151   152    1
    43    19    17   ar
    44   172   173    2
    45   172   181   am
    46   156   158    1
    47   156   155    1
    48    18    16   ar
    49   152   155    1
    50   152   153    1
    51     9     7   ar
    52   211   212    2
    53   211   217   am
    54   119   118    1
    55   181   182    1
    56    17    15   ar
    57   155   157    1
    58    30    29    1
    59   107   106    1
    60     7     8   ar
    61     7     6    1
    62   105   106   ar
    63   105   103   ar
    64   153   154    2
    65   118   120    1
    66   118   115    1
    67   187   185    1
    68   217   218    1
    69    16    15   ar
    70   106   104   ar
    71   138   139    1
    72   103   101   ar
    73    29    28    1
    74    15    14    1
    75     6     5    1
    76   115   116    1
    77   115   114    1
    78   182   185    1
    79   182   183    1
    80   111   110    2
    81   104   102   ar
    82   101   102   ar
    83   101   100    1
    84   185   186    1
    85   139   140    1
    86   139   142    1
    87   218   219    1
    88   218   221    1
    89   116   117    2
    90    82    83    1
    91    82    81    1
    92   220   219    2
    93   100    97    1
    94     1     2    1
    95   184   183    2
    96    81    80    1
    97   140   141    2
    98   219   225   am
    99   110   114   am
   100   110   109    1
   101   183   188   am
   102     5     2    1
   103    14    11    1
   104    28    27    1
   105    27    26    1
   106   221   223    1
   107   221   222    1
   108   142   143    1
   109    10     3   am
   110    10    11    1
   111     2     3    1
   112   225   226    1
   113   121   122    1
   114   108   109    1
   115   108    98   am
   116     3     4    2
   117    11    12    1
   118   229   226    1
   119   188   189    1
   120    97    98    1
   121    97    96    1
   122    13    12    2
   123   109   112    1
   124    80    79    1
   125    12    22   am
   126    79    76    1
   127   159   160    1
   128   122   123    1
   129   122   125    1
   130    98    99    2
   131   226   227    1
   132   222   224    1
   133    22    23    1
   134    26    23    1
   135    23    24    1
   136   192   189    1
   137   192   194    1
   138   192   193    1
   139   189   190    1
   140   123   126   am
   141   123   124    2
   142   126   127    1
   143   130   127    1
   144   112   113    1
   145    78    77    2
   146   160   163    1
   147   160   161    1
   148    76    77    1
   149    76    75    1
   150   227   228    2
   151    77    84   am
   152   127   128    1
   153   193   195    1
   154   163   164    1
   155   190   191    2
   156    84    85    1
   157    24    25    2
   158    85    86    1
   159   161   162    2
   160    39    37   ar
   161    39    40   ar
   162    37    36   ar
   163   128   129    2
   164   164   165    1
   165    40    38   ar
   166    86    87    2
   167    36    35    1
   168    36    38   ar
   169   165   166    1
   170   166   167    2
   171    35    32    1
   172    95    93   ar
   173    31    32    1
   174    32    33    1
   175    93    94   ar
   176    93    92    1
   177   167   168    1
   178   167   169    1
   179    51    49   ar
   180    51    50   ar
   181    49    47   ar
   182    88    89    1
   183   196   197    1
   184    89    92    1
   185    89    90    1
   186    33    34    2
   187    50    48   ar
   188    47    46   ar
   189   197   198    1
   190    90    91    2
   191    48    46   ar
   192    46    45    1
   193   198   199    2
   194    41    42    1
   195    45    42    1
   196    42    43    1
   197    73    72    1
   198    43    44    2
   199    59    61   ar
   200    59    57   ar
   201    61    62   ar
   202    72    74    1
   203    72    71    2
   204    56    57    1
   205    56    53    1
   206    57    58   ar
   207    71    70    1
   208    52    53    1
   209    62    63    1
   210    62    60   ar
   211    53    54    1
   212    58    60   ar
   213    70    69    1
   214    64    54   am
   215    64    65    1
   216    54    55    2
   217    68    69    1
   218    68    65    1
   219    65    66    1
   220    66    67    2
