@<TRIPOS>MOLECULE
tmp/5nseA01.pdb
 138 134 0 0 0
SMALL
GASTEIGER

@<TRIPOS>ATOM
      1  N          8.8240    5.4810   36.5440 N.3   120  CYS120     -0.1235
      2  CA         7.7720    5.7240   35.5570 C.3   120  CYS120      0.1677
      3  C          6.4550    5.0360   35.9050 C.2   120  CYS120      0.2270
      4  O          6.3810    3.8090   35.9950 O.2   120  CYS120     -0.2867
      5  CB         8.2290    5.2940   34.1500 C.3   120  CYS120      0.0956
      6  SG         6.9970    5.7380   32.9110 S.3   120  CYS120     -0.0801
      7  N         14.9190   18.7420   28.3310 N.3   183  GLN183     -0.1245
      8  CA        13.7780   18.2750   27.5620 C.3   183  GLN183      0.1566
      9  C         13.8020   18.9780   26.1970 C.2   183  GLN183      0.2260
     10  O         14.4550   20.0090   26.0290 O.2   183  GLN183     -0.2867
     11  CB        12.4670   18.5870   28.2710 C.3   183  GLN183      0.0367
     12  CG        12.2790   17.9010   29.5870 C.3   183  GLN183      0.0905
     13  CD        10.8900   18.1160   30.1470 C.2   183  GLN183      0.2608
     14  OE1        9.9480   18.4270   29.4140 O.2   183  GLN183     -0.2717
     15  NE2       10.7510   17.9400   31.4530 N.am  183  GLN183     -0.0878
     16  N         11.0330   23.1780   26.6800 N.3   186  ARG186     -0.1245
     17  CA        11.2500   23.7340   28.0190 C.3   186  ARG186      0.1563
     18  C         11.0490   25.2480   27.9600 C.2   186  ARG186      0.2260
     19  O         11.4020   25.8880   26.9720 O.2   186  ARG186     -0.2867
     20  CB        12.6920   23.5020   28.4710 C.3   186  ARG186      0.0307
     21  CG        13.0910   22.0690   28.7190 C.3   186  ARG186      0.0489
     22  CD        13.0220   21.7340   30.1960 C.3   186  ARG186      0.2205
     23  NE        11.6550   21.6720   30.6900 N.pl3 186  ARG186     -0.0865
     24  CZ        11.3280   21.4480   31.9600 C.cat 186  ARG186      0.5346
     25  NH1       12.2730   21.2700   32.8770 N.pl3 186  ARG186      0.1354
     26  NH2       10.0470   21.3800   32.3030 N.pl3 186  ARG186      0.1354
     27  N          3.1190   23.1280   27.4790 N.3   267  TYR267     -0.1241
     28  CA         3.2950   22.3920   26.2320 C.3   267  TYR267      0.1605
     29  C          2.7450   20.9790   26.3780 C.2   267  TYR267      0.2264
     30  O          2.7420   20.4110   27.4660 O.2   267  TYR267     -0.2867
     31  CB         4.7650   22.3570   25.8220 C.3   267  TYR267      0.0534
     32  CG         5.7040   21.9290   26.9150 C.ar  267  TYR267     -0.0201
     33  CD1        5.9940   20.5860   27.1200 C.ar  267  TYR267     -0.0009
     34  CD2        6.3190   22.8720   27.7370 C.ar  267  TYR267     -0.0009
     35  CE1        6.8830   20.1900   28.1080 C.ar  267  TYR267      0.0417
     36  CE2        7.2070   22.4850   28.7330 C.ar  267  TYR267      0.0417
     37  CZ         7.4840   21.1430   28.9120 C.ar  267  TYR267      0.1957
     38  OH         8.3860   20.7540   29.8750 O.3   267  TYR267     -0.2866
     39  N          5.9700   15.8890   26.7190 N.3   270  PRO270     -0.2116
     40  CA         7.0250   15.7170   27.7240 C.3   270  PRO270      0.1372
     41  C          8.1170   14.8500   27.1120 C.2   270  PRO270      0.2244
     42  O          7.9920   13.6260   27.0430 O.2   270  PRO270     -0.2868
     43  CB         6.2910   15.0130   28.8620 C.3   270  PRO270      0.0268
     44  CG         5.3260   14.1370   28.1340 C.3   270  PRO270      0.0207
     45  CD         4.8180   15.0090   26.9960 C.3   270  PRO270      0.0892
     46  N         11.9040   13.9960   27.6520 N.3   272  VAL272     -0.1245
     47  CA        13.1790   14.0190   28.3540 C.3   272  VAL272      0.1561
     48  C         14.3150   13.7290   27.3740 C.2   272  VAL272      0.2260
     49  O         14.2970   12.7240   26.6560 O.2   272  VAL272     -0.2867
     50  CB        13.1780   13.0160   29.5220 C.3   272  VAL272      0.0252
     51  CG1       14.5470   12.9590   30.1850 C.3   272  VAL272      0.0019
     52  CG2       12.1060   13.4210   30.5260 C.3   272  VAL272      0.0019
     53  N         13.2330   10.6490   24.7200 N.3   289  PHE289     -0.1227
     54  CA        12.0290    9.8390   24.6910 C.3   289  PHE289      0.1736
     55  C         10.8430   10.6830   25.1190 C.2   289  PHE289      0.2596
     56  O         11.0120   11.7060   25.7730 O.2   289  PHE289     -0.2718
     57  CB        12.1810    8.6060   25.5960 C.3   289  PHE289      0.0547
     58  CG        12.5210    8.9280   27.0280 C.ar  289  PHE289     -0.0202
     59  CD1       11.5220    9.2410   27.9400 C.ar  289  PHE289     -0.0042
     60  CD2       13.8380    8.9040   27.4600 C.ar  289  PHE289     -0.0042
     61  CE1       11.8320    9.5330   29.2730 C.ar  289  PHE289     -0.0003
     62  CE2       14.1630    9.1950   28.7940 C.ar  289  PHE289     -0.0003
     63  CZ        13.1560    9.5070   29.6950 C.ar  289  PHE289     -0.0000
     64  N          9.6440   10.2580   24.7500 N.am  290  SER290     -0.1938
     65  CA         8.4570   10.9980   25.1200 C.3   290  SER290      0.2055
     66  C          7.2240   10.1170   25.1050 C.2   290  SER290      0.2644
     67  O          7.1780    9.1150   24.3940 O.2   290  SER290     -0.2714
     68  CB         8.2510   12.1770   24.1690 C.3   290  SER290      0.2130
     69  OG         7.9450   11.7480   22.8530 O.3   290  SER290     -0.2179
     70  N          6.2410   10.4860   25.9180 N.am  291  GLY291     -0.1939
     71  CA         4.9820    9.7710   25.9810 C.3   291  GLY291      0.2014
     72  C          3.9400   10.8620   26.0370 C.2   291  GLY291      0.2639
     73  O          3.7700   11.6150   25.0820 O.2   291  GLY291     -0.2714
     74  N          3.1940   10.8990   27.1310 N.am  292  TRP292     -0.1959
     75  CA         2.2080   11.9460   27.3750 C.3   292  TRP292      0.1771
     76  C          2.2000   12.2730   28.8770 C.2   292  TRP292      0.2619
     77  O          2.6800   11.4930   29.6980 O.2   292  TRP292     -0.2715
     78  CB         0.8170   11.5990   26.8290 C.3   292  TRP292      0.0590
     79  CG         0.2340   10.3000   27.2790 C.ar  292  TRP292      0.0006
     80  CD1       -0.3700   10.0350   28.4770 C.ar  292  TRP292      0.0946
     81  CD2        0.1730    9.0910   26.5200 C.ar  292  TRP292      0.0152
     82  NE1       -0.8050    8.7360   28.5090 N.ar  292  TRP292     -0.2442
     83  CE2       -0.4840    8.1290   27.3200 C.ar  292  TRP292      0.0810
     84  CE3        0.6110    8.7250   25.2360 C.ar  292  TRP292      0.0012
     85  CZ2       -0.7130    6.8210   26.8820 C.ar  292  TRP292      0.0191
     86  CZ3        0.3810    7.4230   24.7960 C.ar  292  TRP292      0.0001
     87  CH2       -0.2750    6.4870   25.6190 C.ar  292  TRP292      0.0015
     88  N          1.7380   13.4640   29.2230 N.am  293  TYR293     -0.1974
     89  CA         1.7150   13.9100   30.6120 C.3   293  TYR293      0.1639
     90  C          0.6860   13.2720   31.5180 C.2   293  TYR293      0.2290
     91  O         -0.3830   12.8500   31.0730 O.2   293  TYR293     -0.2864
     92  CB         1.4500   15.4300   30.6630 C.3   293  TYR293      0.0560
     93  CG         2.6790   16.3040   30.6660 C.ar  293  TYR293     -0.0198
     94  CD1        3.6230   16.2120   31.6940 C.ar  293  TYR293     -0.0009
     95  CD2        2.9020   17.2340   29.6410 C.ar  293  TYR293     -0.0009
     96  CE1        4.7610   17.0210   31.7010 C.ar  293  TYR293      0.0417
     97  CE2        4.0370   18.0460   29.6410 C.ar  293  TYR293      0.0417
     98  CZ         4.9630   17.9320   30.6740 C.ar  293  TYR293      0.1957
     99  OH         6.0950   18.7010   30.6700 O.3   293  TYR293     -0.2866
    100  N          1.9590   16.2500   37.0170 N.3   297  GLU297     -0.1245
    101  CA         3.2910   16.7110   36.6250 C.3   297  GLU297      0.1567
    102  C          3.2350   18.2100   36.3290 C.2   297  GLU297      0.2260
    103  O          4.1350   18.9530   36.7000 O.2   297  GLU297     -0.2867
    104  CB         3.7890   15.9770   35.3760 C.3   297  GLU297      0.0388
    105  CG         4.0480   14.4930   35.5550 C.3   297  GLU297      0.1160
    106  CD         4.5910   13.8480   34.2870 C.2   297  GLU297      0.3649
    107  OE1        5.8190   13.8900   34.0720 O.co2 297  GLU297     -0.2457
    108  OE2        3.7950   13.2990   33.5070 O.co2 297  GLU297     -0.2457
    109  N          3.4310   19.7530   40.3390 N.3   301  ARG301     -0.1231
    110  CA         4.8630   20.0130   40.3890 C.3   301  ARG301      0.1694
    111  C          5.3310   21.2500   39.6260 C.2   301  ARG301      0.2592
    112  O          5.8980   22.1660   40.2190 O.2   301  ARG301     -0.2718
    113  CB         5.6590   18.7800   39.9340 C.3   301  ARG301      0.0321
    114  CG         5.3710   17.4930   40.7290 C.3   301  ARG301      0.0489
    115  CD         5.6000   17.6510   42.2450 C.3   301  ARG301      0.2205
    116  NE         6.9350   18.1440   42.5650 N.pl3 301  ARG301     -0.0865
    117  CZ         8.0510   17.4390   42.4350 C.cat 301  ARG301      0.5346
    118  NH1        8.0100   16.1850   42.0070 N.pl3 301  ARG301      0.1354
    119  NH2        9.2170   18.0150   42.6650 N.pl3 301  ARG301      0.1354
    120  N          5.0880   21.2860   38.3210 N.am  302  ASN302     -0.1974
    121  CA         5.5370   22.4060   37.4990 C.3   302  ASN302      0.1688
    122  C          4.9620   23.7670   37.8890 C.2   302  ASN302      0.2292
    123  O          5.7020   24.7320   38.0440 O.2   302  ASN302     -0.2864
    124  CB         5.2540   22.1180   36.0300 C.3   302  ASN302      0.1181
    125  CG         5.9790   20.8880   35.5340 C.2   302  ASN302      0.2629
    126  OD1        6.8920   20.3820   36.1890 O.2   302  ASN302     -0.2716
    127  ND2        5.5680   20.3890   34.3710 N.am  302  ASN302     -0.0877
    128  N          9.4750   26.2640   41.4660 N.3   308  ARG308     -0.1245
    129  CA         9.0900   26.2860   40.0530 C.3   308  ARG308      0.1563
    130  C          8.2280   27.5410   39.8260 C.2   308  ARG308      0.2260
    131  O          8.6350   28.6270   40.2290 O.2   308  ARG308     -0.2867
    132  CB         8.3490   25.0010   39.6690 C.3   308  ARG308      0.0307
    133  CG         9.1970   23.7450   39.8100 C.3   308  ARG308      0.0489
    134  CD        10.3930   23.7350   38.8630 C.3   308  ARG308      0.2205
    135  NE         9.9530   23.7040   37.4690 N.pl3 308  ARG308     -0.0865
    136  CZ         9.5210   22.6180   36.8350 C.cat 308  ARG308      0.5346
    137  NH1        9.4660   21.4510   37.4590 N.pl3 308  ARG308      0.1354
    138  NH2        9.1230   22.7010   35.5740 N.pl3 308  ARG308      0.1354
@<TRIPOS>BOND
     1    69    68    1
     2    68    65    1
     3    67    66    2
     4    54    53    1
     5    54    55    1
     6    54    57    1
     7    64    55   am
     8    64    65    1
     9    86    84   ar
    10    86    87   ar
    11    73    72    2
    12    66    65    1
    13    66    70   am
    14    55    56    2
    15    84    81   ar
    16    57    58    1
    17    87    85   ar
    18    31    28    1
    19    31    32    1
    20    70    71    1
    21    71    72    1
    22    10     9    2
    23    72    74   am
    24     9     8    1
    25    28    29    1
    26    28    27    1
    27    29    30    2
    28    81    79   ar
    29    81    83   ar
    30    49    48    2
    31    16    17    1
    32    39    45    1
    33    39    40    1
    34    78    79    1
    35    78    75    1
    36    85    83   ar
    37    32    33   ar
    38    32    34   ar
    39    19    18    2
    40    45    44    1
    41    58    60   ar
    42    58    59   ar
    43    42    41    2
    44    41    40    1
    45    33    35   ar
    46    74    75    1
    47    79    80   ar
    48    83    82   ar
    49    48    47    1
    50    75    76    1
    51    60    62   ar
    52     8    11    1
    53     8     7    1
    54    46    47    1
    55    40    43    1
    56    34    36   ar
    57    59    61   ar
    58    18    17    1
    59    17    20    1
    60    35    37   ar
    61    44    43    1
    62    11    12    1
    63    47    50    1
    64    20    21    1
    65    80    82   ar
    66    21    22    1
    67    36    37   ar
    68    62    63   ar
    69    76    88   am
    70    76    77    2
    71    37    38    1
    72    88    89    1
    73    61    63   ar
    74    14    13    2
    75    50    51    1
    76    50    52    1
    77    12    13    1
    78    95    97   ar
    79    95    93   ar
    80    97    98   ar
    81    13    15   am
    82    22    23    1
    83    89    92    1
    84    89    90    1
    85    92    93    1
    86    93    94   ar
    87    99    98    1
    88    98    96   ar
    89    23    24    2
    90    91    90    2
    91    94    96   ar
    92    24    26    1
    93    24    25    1
    94     6     5    1
    95   108   106   ar
    96   107   106   ar
    97     5     2    1
    98   106   105    1
    99   127   125   am
   100   104   105    1
   101   104   101    1
   102   125   124    1
   103   125   126    2
   104     2     3    1
   105     2     1    1
   106   138   136    1
   107     3     4    2
   108   124   121    1
   109   102   101    1
   110   102   103    2
   111   101   100    1
   112   136   137    1
   113   136   135    2
   114   135   134    1
   115   121   122    1
   116   121   120    1
   117   122   123    2
   118   120   111   am
   119   134   133    1
   120   111   112    2
   121   111   110    1
   122   132   133    1
   123   132   129    1
   124   130   129    1
   125   130   131    2
   126   113   110    1
   127   113   114    1
   128   129   128    1
   129   109   110    1
   130   114   115    1
   131   118   117    1
   132   115   116    1
   133   117   116    2
   134   117   119    1
