@<TRIPOS>MOLECULE
tmp/5nsfB01.pdb
 102 96 0 0 0
SMALL
GASTEIGER

@<TRIPOS>ATOM
      1  N        -28.8000  -26.3800   34.2520 N.3    31  GLY31      -0.1210
      2  CA       -28.2690  -26.7780   32.9570 C.3    31  GLY31       0.1956
      3  C        -27.4760  -25.6370   32.3370 C.2    31  GLY31       0.2612
      4  O        -27.8040  -24.4620   32.5220 O.2    31  GLY31      -0.2717
      5  N        -26.4120  -26.0010   31.6270 N.am   32  ILE32      -0.1965
      6  CA       -25.6770  -25.0950   30.7570 C.3    32  ILE32       0.1727
      7  C        -25.4840  -25.7960   29.4200 C.2    32  ILE32       0.2616
      8  O        -25.4680  -27.0290   29.3450 O.2    32  ILE32      -0.2715
      9  CB       -24.3170  -24.6790   31.3590 C.3    32  ILE32       0.0290
     10  CG1      -23.6440  -23.6270   30.4720 C.3    32  ILE32       0.0022
     11  CG2      -23.4170  -25.8920   31.5390 C.3    32  ILE32       0.0023
     12  CD1      -22.5020  -22.8990   31.1420 C.3    32  ILE32       0.0001
     13  N        -25.3670  -25.0100   28.3580 N.am   33  GLY33      -0.1955
     14  CA       -25.1220  -25.5580   27.0400 C.3    33  GLY33       0.1869
     15  C        -23.9430  -24.8970   26.3570 C.2    33  GLY33       0.2309
     16  O        -23.6320  -23.7310   26.5950 O.2    33  GLY33      -0.2863
     17  N        -25.7340  -29.5100   28.0580 N.3    64  TRP64      -0.1241
     18  CA       -26.4000  -29.5610   26.7630 C.3    64  TRP64       0.1605
     19  C        -25.3700  -29.2540   25.6830 C.2    64  TRP64       0.2264
     20  O        -24.9200  -28.1120   25.5480 O.2    64  TRP64      -0.2867
     21  CB       -27.5610  -28.5690   26.7280 C.3    64  TRP64       0.0550
     22  CG       -28.3540  -28.5700   25.4570 C.ar   64  TRP64       0.0003
     23  CD1      -28.0190  -27.9640   24.2820 C.ar   64  TRP64       0.0946
     24  CD2      -29.6250  -29.1930   25.2380 C.ar   64  TRP64       0.0152
     25  NE1      -29.0000  -28.1740   23.3430 N.ar   64  TRP64      -0.2442
     26  CE2      -29.9970  -28.9270   23.9060 C.ar   64  TRP64       0.0810
     27  CE3      -30.4830  -29.9520   26.0390 C.ar   64  TRP64       0.0012
     28  CZ2      -31.1900  -29.3930   23.3560 C.ar   64  TRP64       0.0191
     29  CZ3      -31.6670  -30.4150   25.4920 C.ar   64  TRP64       0.0001
     30  CH2      -32.0090  -30.1330   24.1630 C.ar   64  TRP64       0.0015
     31  N        -32.9380  -22.5650   22.0430 N.3   154  GLN154     -0.1245
     32  CA       -32.2960  -22.4630   23.3490 C.3   154  GLN154      0.1566
     33  C        -33.3250  -22.2190   24.4490 C.2   154  GLN154      0.2260
     34  O        -33.2090  -22.7740   25.5470 O.2   154  GLN154     -0.2867
     35  CB       -31.2350  -21.3630   23.3060 C.3   154  GLN154      0.0367
     36  CG       -30.3990  -21.2130   24.5690 C.3   154  GLN154      0.0905
     37  CD       -29.1490  -20.3740   24.3270 C.2   154  GLN154      0.2608
     38  OE1      -28.7150  -20.1990   23.1850 O.2   154  GLN154     -0.2717
     39  NE2      -28.5960  -19.8080   25.3940 N.am  154  GLN154     -0.0878
     40  N        -34.9480  -25.6650   25.0480 N.3   157  ALA157     -0.1231
     41  CA       -34.1100  -26.6110   25.7750 C.3   157  ALA157      0.1694
     42  C        -34.2370  -26.4040   27.2790 C.2   157  ALA157      0.2591
     43  O        -34.2910  -27.3720   28.0450 O.2   157  ALA157     -0.2718
     44  CB       -32.6550  -26.4740   25.3320 C.3   157  ALA157      0.0304
     45  N        -34.2860  -25.1460   27.7180 N.am  158  ILE158     -0.1980
     46  CA       -34.5150  -24.8550   29.1310 C.3   158  ILE158      0.1595
     47  C        -35.8230  -25.4860   29.5870 C.2   158  ILE158      0.2287
     48  O        -35.8760  -26.2040   30.5920 O.2   158  ILE158     -0.2864
     49  CB       -34.5120  -23.3340   29.3700 C.3   158  ILE158      0.0276
     50  CG1      -33.1050  -22.7640   29.1720 C.3   158  ILE158      0.0022
     51  CG2      -35.0370  -23.0150   30.7610 C.3   158  ILE158      0.0022
     52  CD1      -33.0550  -21.2500   29.0830 C.3   158  ILE158      0.0001
     53  N        -35.5380  -29.3950   29.4340 N.3   161  ASN161     -0.1240
     54  CA       -34.7220  -29.9720   30.4970 C.3   161  ASN161      0.1653
     55  C        -35.3880  -29.8780   31.8630 C.2   161  ASN161      0.2266
     56  O        -34.9880  -30.6010   32.7810 O.2   161  ASN161     -0.2867
     57  CB       -33.3530  -29.2940   30.5430 C.3   161  ASN161      0.1155
     58  CG       -32.4620  -29.7010   29.3890 C.2   161  ASN161      0.2627
     59  OD1      -32.5390  -30.8270   28.8960 O.2   161  ASN161     -0.2716
     60  ND2      -31.6020  -28.7890   28.9570 N.am  161  ASN161     -0.0877
     61  N        -35.1900  -27.5280   34.1090 N.3   163  VAL163     -0.1245
     62  CA       -34.2570  -27.0720   35.1320 C.3   163  VAL163      0.1561
     63  C        -34.8350  -25.8760   35.8720 C.2   163  VAL163      0.2260
     64  O        -35.5950  -25.0720   35.3200 O.2   163  VAL163     -0.2867
     65  CB       -32.8820  -26.7320   34.5240 C.3   163  VAL163      0.0252
     66  CG1      -32.1890  -28.0010   34.0690 C.3   163  VAL163      0.0019
     67  CG2      -33.0310  -25.7440   33.3730 C.3   163  VAL163      0.0019
     68  N        -30.7810  -21.7990   34.9970 N.3   166  ALA166     -0.1231
     69  CA       -30.0750  -21.7840   33.7260 C.3   166  ALA166      0.1694
     70  C        -28.7960  -20.9770   33.8890 C.2   166  ALA166      0.2592
     71  O        -28.8320  -19.8470   34.3860 O.2   166  ALA166     -0.2718
     72  CB       -30.9440  -21.1850   32.6190 C.3   166  ALA166      0.0304
     73  N        -27.6750  -21.5630   33.4790 N.am  167  VAL167     -0.1966
     74  CA       -26.3670  -20.9340   33.5980 C.3   167  VAL167      0.1727
     75  C        -25.8320  -20.6470   32.2030 C.2   167  VAL167      0.2616
     76  O        -26.0800  -21.3940   31.2500 O.2   167  VAL167     -0.2715
     77  CB       -25.3710  -21.8110   34.3890 C.3   167  VAL167      0.0290
     78  CG1      -24.0820  -21.0470   34.6560 C.3   167  VAL167      0.0023
     79  CG2      -25.9880  -22.2780   35.6950 C.3   167  VAL167      0.0023
     80  N        -25.1000  -19.5460   32.0880 N.am  168  GLY168     -0.1955
     81  CA       -24.4500  -19.2010   30.8380 C.3   168  GLY168      0.1869
     82  C        -23.5730  -17.9850   31.0260 C.2   168  GLY168      0.2309
     83  O        -23.5000  -17.4040   32.1120 O.2   168  GLY168     -0.2863
     84  N        -25.4060  -14.7600   26.9810 N.3   172  GLN172     -0.1245
     85  CA       -26.6570  -15.5090   27.0020 C.3   172  GLN172      0.1566
     86  C        -27.7970  -14.7070   27.6070 C.2   172  GLN172      0.2260
     87  O        -28.9060  -15.2300   27.7610 O.2   172  GLN172     -0.2867
     88  CB       -26.4710  -16.8030   27.7950 C.3   172  GLN172      0.0367
     89  CG       -25.2300  -17.5590   27.3970 C.3   172  GLN172      0.0905
     90  CD       -25.2700  -17.9380   25.9470 C.2   172  GLN172      0.2608
     91  OE1      -26.3200  -18.3100   25.4290 O.2   172  GLN172     -0.2717
     92  NE2      -24.1380  -17.8030   25.2660 N.am  172  GLN172     -0.0878
     93  N        -31.8970  -15.6250   27.7410 N.3   176  HIS176     -0.1241
     94  CA       -32.4340  -16.0850   29.0160 C.3   176  HIS176      0.1621
     95  C        -33.5800  -15.2030   29.4900 C.2   176  HIS176      0.2264
     96  O        -34.5440  -15.7020   30.0800 O.2   176  HIS176     -0.2867
     97  CB       -31.3220  -16.1390   30.0600 C.3   176  HIS176      0.0745
     98  CG       -30.4330  -17.3360   29.9250 C.ar  176  HIS176      0.0817
     99  ND1      -29.3100  -17.5230   30.7000 N.ar  176  HIS176     -0.2268
    100  CD2      -30.4980  -18.4020   29.0940 C.ar  176  HIS176      0.1154
    101  CE1      -28.7250  -18.6570   30.3590 C.ar  176  HIS176      0.1986
    102  NE2      -29.4270  -19.2090   29.3860 N.ar  176  HIS176     -0.2212
@<TRIPOS>BOND
     1    31    32    1
     2    38    37    2
     3    35    32    1
     4    35    36    1
     5    25    26   ar
     6    25    23   ar
     7    32    33    1
     8    28    26   ar
     9    28    30   ar
    10    26    24   ar
    11    30    29   ar
    12    23    22   ar
    13    37    36    1
    14    37    39   am
    15    33    34    2
    16    40    41    1
    17    24    22   ar
    18    24    27   ar
    19    92    90   am
    20    44    41    1
    21    91    90    2
    22    22    21    1
    23    29    27   ar
    24    20    19    2
    25    19    18    1
    26    41    42    1
    27    90    89    1
    28    15    16    2
    29    15    14    1
    30    21    18    1
    31    18    17    1
    32    84    85    1
    33    85    86    1
    34    85    88    1
    35    14    13    1
    36    42    45   am
    37    42    43    2
    38    89    88    1
    39    86    87    2
    40    45    46    1
    41    93    94    1
    42    13     7   am
    43    59    58    2
    44    60    58   am
    45    94    95    1
    46    94    97    1
    47    52    50    1
    48   100   102   ar
    49   100    98   ar
    50    46    49    1
    51    46    47    1
    52    50    49    1
    53     8     7    2
    54    49    51    1
    55   102   101   ar
    56    58    57    1
    57     7     6    1
    58    53    54    1
    59    95    96    2
    60    47    48    2
    61    98    97    1
    62    98    99   ar
    63   101    99   ar
    64    10    12    1
    65    10     9    1
    66    54    57    1
    67    54    55    1
    68     6     9    1
    69     6     5    1
    70    81    82    1
    71    81    80    1
    72    82    83    2
    73    76    75    2
    74     9    11    1
    75     5     3   am
    76    55    56    2
    77    80    75   am
    78    75    74    1
    79     3     4    2
    80     3     2    1
    81    72    69    1
    82     2     1    1
    83    67    65    1
    84    73    74    1
    85    73    70   am
    86    74    77    1
    87    69    70    1
    88    69    68    1
    89    70    71    2
    90    66    65    1
    91    61    62    1
    92    77    78    1
    93    77    79    1
    94    65    62    1
    95    62    63    1
    96    64    63    2
