@<TRIPOS>MOLECULE
tmp/5nsfC00.pdb
 134 127 0 0 0
SMALL
GASTEIGER

@<TRIPOS>ATOM
      1  N        -41.1400   24.1950   35.7460 N.3    33  ILE33      -0.1231
      2  CA       -40.6940   23.0020   36.4460 C.3    33  ILE33       0.1692
      3  C        -40.3720   23.4320   37.8660 C.2    33  ILE33       0.2593
      4  O        -40.0040   24.5850   38.1140 O.2    33  ILE33      -0.2718
      5  CB       -39.4720   22.3360   35.7760 C.3    33  ILE33       0.0266
      6  CG1      -39.1520   21.0030   36.4580 C.3    33  ILE33       0.0019
      7  CG2      -38.2620   23.2530   35.8420 C.3    33  ILE33       0.0020
      8  CD1      -38.2210   20.1150   35.6550 C.3    33  ILE33       0.0001
      9  N        -40.5230   22.5100   38.8030 N.am   34  GLY34      -0.1942
     10  CA       -40.1910   22.7790   40.1850 C.3    34  GLY34       0.2014
     11  C        -39.2770   21.7150   40.7450 C.2    34  GLY34       0.2639
     12  O        -39.2850   20.5620   40.3130 O.2    34  GLY34      -0.2714
     13  N        -38.4840   22.1200   41.7330 N.am   35  PHE35      -0.1959
     14  CA       -37.5150   21.2440   42.3700 C.3    35  PHE35       0.1771
     15  C        -37.6260   21.4070   43.8740 C.2    35  PHE35       0.2619
     16  O        -37.6140   22.5340   44.3790 O.2    35  PHE35      -0.2715
     17  CB       -36.0840   21.5880   41.9420 C.3    35  PHE35       0.0574
     18  CG       -35.8580   21.5460   40.4620 C.ar   35  PHE35      -0.0200
     19  CD1      -35.6240   20.3490   39.8110 C.ar   35  PHE35      -0.0042
     20  CD2      -35.8710   22.7160   39.7230 C.ar   35  PHE35      -0.0042
     21  CE1      -35.4110   20.3210   38.4460 C.ar   35  PHE35      -0.0003
     22  CE2      -35.6610   22.6950   38.3620 C.ar   35  PHE35      -0.0003
     23  CZ       -35.4310   21.4970   37.7210 C.ar   35  PHE35      -0.0000
     24  N        -37.7380   20.2960   44.5830 N.am   36  GLU36      -0.1977
     25  CA       -37.4340   20.3160   45.9990 C.3    36  GLU36       0.1602
     26  C        -35.9650   20.6940   46.1300 C.2    36  GLU36       0.2287
     27  O        -35.1080   19.9730   45.5990 O.2    36  GLU36      -0.2864
     28  CB       -37.6860   18.9580   46.6460 C.3    36  GLU36       0.0415
     29  CG       -39.1230   18.4830   46.5980 C.3    36  GLU36       0.1163
     30  CD       -39.3060   17.1670   47.3240 C.2    36  GLU36       0.3649
     31  OE1      -38.5500   16.9100   48.2830 O.co2  36  GLU36      -0.2457
     32  OE2      -40.2040   16.3910   46.9420 O.co2  36  GLU36      -0.2457
     33  N        -39.7750   26.8250   39.8180 N.3    65  TRP65      -0.1241
     34  CA       -40.4380   26.8540   41.1140 C.3    65  TRP65       0.1605
     35  C        -39.5670   26.1080   42.1150 C.2    65  TRP65       0.2264
     36  O        -39.4930   24.8760   42.0860 O.2    65  TRP65      -0.2867
     37  CB       -41.8240   26.2230   41.0180 C.3    65  TRP65       0.0550
     38  CG       -42.6070   26.2550   42.2940 C.ar   65  TRP65       0.0003
     39  CD1      -42.4570   25.4280   43.3690 C.ar   65  TRP65       0.0946
     40  CD2      -43.6840   27.1410   42.6170 C.ar   65  TRP65       0.0152
     41  NE1      -43.3660   25.7510   44.3440 N.ar   65  TRP65      -0.2442
     42  CE2      -44.1320   26.8000   43.9070 C.ar   65  TRP65       0.0810
     43  CE3      -44.3100   28.1940   41.9410 C.ar   65  TRP65       0.0012
     44  CZ2      -45.1750   27.4720   44.5370 C.ar   65  TRP65       0.0191
     45  CZ3      -45.3460   28.8620   42.5700 C.ar   65  TRP65       0.0001
     46  CH2      -45.7680   28.4980   43.8540 C.ar   65  TRP65       0.0015
     47  N        -39.3580   24.5710   45.3060 N.3    67  ALA67      -0.1245
     48  CA       -40.4250   24.0860   46.1810 C.3    67  ALA67       0.1562
     49  C        -39.8810   23.8340   47.5880 C.2    67  ALA67       0.2260
     50  O        -39.7040   22.6990   48.0350 O.2    67  ALA67      -0.2867
     51  CB       -41.0530   22.8270   45.5970 C.3    67  ALA67       0.0290
     52  N        -42.7740   22.4270   49.5860 N.3    70  GLY70      -0.1225
     53  CA       -42.9190   21.0410   49.1730 C.3    70  GLY70       0.1811
     54  C        -41.8550   20.1480   49.7770 C.2    70  GLY70       0.2280
     55  O        -42.1500   19.0690   50.2970 O.2    70  GLY70      -0.2866
     56  N        -46.7920   30.3710   48.3730 N.3   109  ASN109     -0.1240
     57  CA       -47.5640   29.2110   48.7890 C.3   109  ASN109      0.1653
     58  C        -48.4350   29.4760   50.0070 C.2   109  ASN109      0.2266
     59  O        -49.2270   28.6030   50.3820 O.2   109  ASN109     -0.2867
     60  CB       -46.6040   28.0670   49.1250 C.3   109  ASN109      0.1155
     61  CG       -46.3280   27.1610   47.9470 C.2   109  ASN109      0.2627
     62  OD1      -47.0430   27.1830   46.9460 O.2   109  ASN109     -0.2716
     63  ND2      -45.2580   26.3770   48.0470 N.am  109  ASN109     -0.0877
     64  N        -53.9890   31.7520   47.4200 N.3   114  TYR114     -0.1241
     65  CA       -53.3440   30.4890   47.0780 C.3   114  TYR114      0.1605
     66  C        -53.8480   29.3670   47.9770 C.2   114  TYR114      0.2264
     67  O        -54.2270   28.2920   47.4980 O.2   114  TYR114     -0.2867
     68  CB       -51.8240   30.6260   47.1900 C.3   114  TYR114      0.0534
     69  CG       -51.0640   29.4230   46.6730 C.ar  114  TYR114     -0.0201
     70  CD1      -51.0330   28.2320   47.3900 C.ar  114  TYR114     -0.0009
     71  CD2      -50.3790   29.4780   45.4660 C.ar  114  TYR114     -0.0009
     72  CE1      -50.3440   27.1300   46.9180 C.ar  114  TYR114      0.0417
     73  CE2      -49.6850   28.3800   44.9870 C.ar  114  TYR114      0.0417
     74  CZ       -49.6720   27.2100   45.7160 C.ar  114  TYR114      0.1957
     75  OH       -48.9820   26.1170   45.2410 O.3   114  TYR114     -0.2866
     76  N        -42.4500    9.7190   44.8650 N.3   137  ILE137     -0.1245
     77  CA       -41.9300   10.9970   45.3250 C.3   137  ILE137      0.1561
     78  C        -41.7330   11.0160   46.8350 C.2   137  ILE137      0.2260
     79  O        -40.7360   11.5510   47.3260 O.2   137  ILE137     -0.2867
     80  CB       -42.8580   12.1500   44.8850 C.3   137  ILE137      0.0252
     81  CG1      -42.8940   12.2660   43.3610 C.3   137  ILE137      0.0019
     82  CG2      -42.3850   13.4630   45.4860 C.3   137  ILE137      0.0019
     83  CD1      -44.1730   12.8790   42.8430 C.3   137  ILE137      0.0001
     84  N        -49.0160   17.6550   49.7190 N.3   151  TYR151     -0.1241
     85  CA       -47.9410   17.8970   48.7680 C.3   151  TYR151      0.1605
     86  C        -48.4650   17.9130   47.3340 C.2   151  TYR151      0.2264
     87  O        -48.2760   18.9110   46.6290 O.2   151  TYR151     -0.2867
     88  CB       -46.8640   16.8290   48.9670 C.3   151  TYR151      0.0534
     89  CG       -45.6380   16.9270   48.0880 C.ar  151  TYR151     -0.0201
     90  CD1      -45.6940   16.6330   46.7320 C.ar  151  TYR151     -0.0009
     91  CD2      -44.4090   17.2690   48.6330 C.ar  151  TYR151     -0.0009
     92  CE1      -44.5630   16.7030   45.9430 C.ar  151  TYR151      0.0417
     93  CE2      -43.2790   17.3410   47.8560 C.ar  151  TYR151      0.0417
     94  CZ       -43.3560   17.0550   46.5140 C.ar  151  TYR151      0.1957
     95  OH       -42.2110   17.1340   45.7580 O.3   151  TYR151     -0.2866
     96  N        -50.5440   20.9410   46.4590 N.3   154  MET154     -0.1230
     97  CA       -49.7650   22.1620   46.2890 C.3   154  MET154      0.1702
     98  C        -49.1100   22.2190   44.9140 C.2   154  MET154      0.2592
     99  O        -49.0350   23.2900   44.3010 O.2   154  MET154     -0.2718
    100  CB       -48.7220   22.2720   47.4000 C.3   154  MET154      0.0401
    101  CG       -49.3460   22.2540   48.7850 C.3   154  MET154      0.0596
    102  SD       -48.4770   23.2540   50.0040 S.3   154  MET154     -0.1393
    103  CE       -48.8800   24.8900   49.3970 C.3   154  MET154      0.0692
    104  N        -48.6290   21.0800   44.4120 N.am  155  GLN155     -0.1979
    105  CA       -48.0160   21.0610   43.0880 C.3   155  GLN155      0.1601
    106  C        -49.0500   21.2740   41.9910 C.2   155  GLN155      0.2287
    107  O        -48.7810   21.9690   41.0050 O.2   155  GLN155     -0.2864
    108  CB       -47.2730   19.7440   42.8730 C.3   155  GLN155      0.0394
    109  CG       -46.4990   19.6870   41.5700 C.3   155  GLN155      0.0908
    110  CD       -45.5290   18.5270   41.5230 C.2   155  GLN155      0.2608
    111  OE1      -45.2300   17.9150   42.5480 O.2   155  GLN155     -0.2717
    112  NE2      -45.0130   18.2310   40.3350 N.am  155  GLN155     -0.0878
    113  N        -49.7160   24.9890   41.9800 N.3   158  ALA158     -0.1245
    114  CA       -48.6200   25.7910   41.4480 C.3   158  ALA158      0.1562
    115  C        -48.7160   25.9050   39.9330 C.2   158  ALA158      0.2260
    116  O        -48.4750   26.9780   39.3680 O.2   158  ALA158     -0.2867
    117  CB       -47.2780   25.1850   41.8560 C.3   158  ALA158      0.0290
    118  N        -43.1670   12.3570   38.0620 N.3   173  GLN173     -0.1245
    119  CA       -44.1270   13.4320   38.2640 C.3   173  GLN173      0.1566
    120  C        -45.4310   13.2190   37.5070 C.2   173  GLN173      0.2260
    121  O        -46.3130   14.0810   37.5730 O.2   173  GLN173     -0.2867
    122  CB       -43.5140   14.7630   37.8110 C.3   173  GLN173      0.0367
    123  CG       -42.1270   15.0350   38.3580 C.3   173  GLN173      0.0905
    124  CD       -42.1330   15.1240   39.8590 C.2   173  GLN173      0.2608
    125  OE1      -43.0690   15.6620   40.4400 O.2   173  GLN173     -0.2717
    126  NE2      -41.0990   14.5950   40.4990 N.am  173  GLN173     -0.0878
    127  N        -49.0190   13.0840   39.3090 N.3   176  ILE176     -0.1245
    128  CA       -49.4010   14.4030   39.8070 C.3   176  ILE176      0.1561
    129  C        -49.8220   15.2930   38.6450 C.2   176  ILE176      0.2260
    130  O        -50.8350   16.0000   38.7120 O.2   176  ILE176     -0.2867
    131  CB       -48.2460   15.0350   40.6070 C.3   176  ILE176      0.0252
    132  CG1      -48.0210   14.2700   41.9130 C.3   176  ILE176      0.0019
    133  CG2      -48.5470   16.5040   40.8920 C.3   176  ILE176      0.0019
    134  CD1      -46.8540   14.7820   42.7370 C.3   176  ILE176      0.0001
@<TRIPOS>BOND
     1     8     6    1
     2     1     2    1
     3     5     7    1
     4     5     2    1
     5     5     6    1
     6     2     3    1
     7   120   121    2
     8   120   119    1
     9    23    22   ar
    10    23    21   ar
    11   122   119    1
    12   122   123    1
    13     3     4    2
    14     3     9   am
    15   118   119    1
    16   123   124    1
    17    22    20   ar
    18    21    19   ar
    19   129   130    2
    20   129   128    1
    21     9    10    1
    22   127   128    1
    23   116   115    2
    24    20    18   ar
    25   128   131    1
    26    19    18   ar
    27    33    34    1
    28   124   125    2
    29   124   126   am
    30   115   114    1
    31    10    11    1
    32    12    11    2
    33   112   110   am
    34    18    17    1
    35   131   133    1
    36   131   132    1
    37    11    13   am
    38   107   106    2
    39    37    34    1
    40    37    38    1
    41    34    35    1
    42   114   117    1
    43   114   113    1
    44   110   109    1
    45   110   111    2
    46   109   108    1
    47    13    14    1
    48   132   134    1
    49    43    45   ar
    50    43    40   ar
    51    17    14    1
    52   106   105    1
    53    36    35    2
    54    38    40   ar
    55    38    39   ar
    56    14    15    1
    57    45    46   ar
    58    40    42   ar
    59    83    81    1
    60   108   105    1
    61   105   104    1
    62    81    80    1
    63    39    41   ar
    64    46    44   ar
    65    15    16    2
    66    15    24   am
    67    42    41   ar
    68    42    44   ar
    69    99    98    2
    70   104    98   am
    71    24    25    1
    72    76    77    1
    73    80    77    1
    74    80    82    1
    75    98    97    1
    76    73    71   ar
    77    73    74   ar
    78    75    74    1
    79    47    48    1
    80    77    78    1
    81    71    69   ar
    82    51    48    1
    83    27    26    2
    84    74    72   ar
    85    95    94    1
    86    92    94   ar
    87    92    90   ar
    88    25    26    1
    89    25    28    1
    90    48    49    1
    91    97    96    1
    92    97   100    1
    93    94    93   ar
    94    29    28    1
    95    29    30    1
    96    87    86    2
    97    69    68    1
    98    69    70   ar
    99    90    89   ar
   100    78    79    2
   101    72    70   ar
   102    32    30   ar
   103    62    61    2
   104    65    68    1
   105    65    64    1
   106    65    66    1
   107    30    31   ar
   108    86    85    1
   109   100   101    1
   110    67    66    2
   111    49    50    2
   112    93    91   ar
   113    61    63   am
   114    61    60    1
   115    89    91   ar
   116    89    88    1
   117    56    57    1
   118    85    88    1
   119    85    84    1
   120   101   102    1
   121    57    60    1
   122    57    58    1
   123    53    52    1
   124    53    54    1
   125   103   102    1
   126    54    55    2
   127    58    59    2
