@<TRIPOS>MOLECULE
tmp/5nslA08.pdb
 144 144 0 0 0
SMALL
GASTEIGER

@<TRIPOS>ATOM
      1  N         -9.1300  -20.5460   52.8640 N.3   108  ILE108     -0.1231
      2  CA        -9.7610  -20.1370   51.6130 C.3   108  ILE108      0.1692
      3  C        -11.2360  -20.5170   51.5040 C.2   108  ILE108      0.2592
      4  O        -11.6160  -21.6690   51.7240 O.2   108  ILE108     -0.2718
      5  CB        -8.9980  -20.7290   50.4060 C.3   108  ILE108      0.0266
      6  CG1       -7.5140  -20.3190   50.4520 C.3   108  ILE108      0.0019
      7  CG2       -9.6410  -20.3180   49.0810 C.3   108  ILE108      0.0020
      8  CD1       -7.2370  -18.8270   50.4070 C.3   108  ILE108      0.0001
      9  N        -12.0420  -19.5150   51.1540 N.am  109  ILE109     -0.1966
     10  CA       -13.4050  -19.6830   50.6620 C.3   109  ILE109      0.1727
     11  C        -13.2590  -19.7350   49.1470 C.2   109  ILE109      0.2616
     12  O        -12.9210  -18.7320   48.5190 O.2   109  ILE109     -0.2715
     13  CB       -14.2990  -18.4780   51.0520 C.3   109  ILE109      0.0290
     14  CG1      -14.3520  -18.3060   52.5740 C.3   109  ILE109      0.0022
     15  CG2      -15.7160  -18.6350   50.5020 C.3   109  ILE109      0.0023
     16  CD1      -14.7360  -16.9170   53.0320 C.3   109  ILE109      0.0001
     17  N        -13.5010  -20.9000   48.5560 N.am  110  LYS110     -0.1963
     18  CA       -13.1900  -21.1000   47.1350 C.3   110  LYS110      0.1728
     19  C        -14.0740  -20.2760   46.1970 C.2   110  LYS110      0.2616
     20  O        -13.5950  -19.7790   45.1780 O.2   110  LYS110     -0.2715
     21  CB       -13.1950  -22.5850   46.7830 C.3   110  LYS110      0.0311
     22  CG       -12.0440  -23.3050   47.4720 C.3   110  LYS110      0.0038
     23  CD       -12.0250  -24.8010   47.2200 C.3   110  LYS110      0.0206
     24  CE       -11.1310  -25.1660   46.0500 C.3   110  LYS110      0.1093
     25  NZ       -11.0240  -26.6380   45.9190 N.3   110  LYS110     -0.1314
     26  N        -15.3430  -20.1090   46.5620 N.am  111  GLU111     -0.1977
     27  CA       -16.2630  -19.2550   45.8220 C.3   111  GLU111      0.1602
     28  C        -16.8060  -18.1850   46.7640 C.2   111  GLU111      0.2287
     29  O        -17.8490  -18.3600   47.4000 O.2   111  GLU111     -0.2864
     30  CB       -17.3760  -20.1090   45.2200 C.3   111  GLU111      0.0415
     31  CG       -18.2950  -19.3610   44.2680 C.3   111  GLU111      0.1163
     32  CD       -19.0790  -20.2960   43.3590 C.2   111  GLU111      0.3649
     33  OE1      -18.4540  -21.2010   42.7670 O.co2 111  GLU111     -0.2457
     34  OE2      -20.3130  -20.1240   43.2300 O.co2 111  GLU111     -0.2457
     35  N        -10.4670  -21.1920   60.1640 N.3   182  TYR182     -0.1227
     36  CA       -10.4580  -22.3330   59.2660 C.3   182  TYR182      0.1736
     37  C        -11.8370  -22.4680   58.6550 C.2   182  TYR182      0.2595
     38  O        -12.7770  -22.8720   59.3380 O.2   182  TYR182     -0.2718
     39  CB       -10.0910  -23.6120   60.0160 C.3   182  TYR182      0.0548
     40  CG        -9.9710  -24.7940   59.0940 C.ar  182  TYR182     -0.0200
     41  CD1       -8.8010  -25.0130   58.3790 C.ar  182  TYR182     -0.0009
     42  CD2      -11.0340  -25.6780   58.9070 C.ar  182  TYR182     -0.0009
     43  CE1       -8.6810  -26.0860   57.5130 C.ar  182  TYR182      0.0417
     44  CE2      -10.9240  -26.7540   58.0360 C.ar  182  TYR182      0.0417
     45  CZ        -9.7420  -26.9580   57.3470 C.ar  182  TYR182      0.1957
     46  OH        -9.6110  -28.0220   56.4870 O.3   182  TYR182     -0.2866
     47  N        -11.9470  -22.1310   57.3730 N.am  183  VAL183     -0.1966
     48  CA       -13.2200  -22.1740   56.6670 C.3   183  VAL183      0.1727
     49  C        -13.4140  -23.5480   56.0400 C.2   183  VAL183      0.2616
     50  O        -12.4960  -24.0960   55.4320 O.2   183  VAL183     -0.2715
     51  CB       -13.3030  -21.0950   55.5740 C.3   183  VAL183      0.0290
     52  CG1      -14.6210  -21.2010   54.8200 C.3   183  VAL183      0.0023
     53  CG2      -13.1680  -19.7100   56.1900 C.3   183  VAL183      0.0023
     54  N        -14.6200  -24.0900   56.1790 N.am  184  PHE184     -0.1960
     55  CA       -14.9450  -25.3850   55.5940 C.3   184  PHE184      0.1771
     56  C        -16.4420  -25.5280   55.3570 C.2   184  PHE184      0.2619
     57  O        -17.2530  -24.8220   55.9590 O.2   184  PHE184     -0.2715
     58  CB       -14.4140  -26.5340   56.4710 C.3   184  PHE184      0.0574
     59  CG       -15.0590  -26.6290   57.8330 C.ar  184  PHE184     -0.0200
     60  CD1      -14.7540  -25.7100   58.8360 C.ar  184  PHE184     -0.0042
     61  CD2      -15.9520  -27.6580   58.1240 C.ar  184  PHE184     -0.0042
     62  CE1      -15.3370  -25.8030   60.0920 C.ar  184  PHE184     -0.0003
     63  CE2      -16.5360  -27.7560   59.3840 C.ar  184  PHE184     -0.0003
     64  CZ       -16.2290  -26.8260   60.3690 C.ar  184  PHE184     -0.0000
     65  N        -16.7780  -26.4330   54.4470 N.am  185  GLN185     -0.1977
     66  CA       -18.1440  -26.8500   54.1980 C.3   185  GLN185      0.1601
     67  C        -18.3120  -28.2220   54.8210 C.2   185  GLN185      0.2287
     68  O        -17.3610  -29.0130   54.8720 O.2   185  GLN185     -0.2864
     69  CB       -18.4210  -26.8790   52.7010 C.3   185  GLN185      0.0394
     70  CG       -18.3260  -25.4920   52.0880 C.3   185  GLN185      0.0908
     71  CD       -18.8350  -25.4330   50.6680 C.2   185  GLN185      0.2608
     72  OE1      -18.2330  -26.0000   49.7590 O.2   185  GLN185     -0.2717
     73  NE2      -19.9430  -24.7360   50.4650 N.am  185  GLN185     -0.0878
     74  N        -21.0840  -22.3140   54.6570 N.3   206  HIS206     -0.1241
     75  CA       -19.7130  -22.3220   55.1810 C.3   206  HIS206      0.1621
     76  C        -19.6970  -22.2120   56.6980 C.2   206  HIS206      0.2264
     77  O        -20.4760  -21.4600   57.2880 O.2   206  HIS206     -0.2867
     78  CB       -18.8980  -21.1720   54.5940 C.3   206  HIS206      0.0745
     79  CG       -18.6690  -21.2910   53.1230 C.ar  206  HIS206      0.0817
     80  ND1      -19.6210  -20.9320   52.1950 N.ar  206  HIS206     -0.2268
     81  CD2      -17.6020  -21.7330   52.4170 C.ar  206  HIS206      0.1154
     82  CE1      -19.1480  -21.1440   50.9800 C.ar  206  HIS206      0.1986
     83  NE2      -17.9250  -21.6310   51.0870 N.ar  206  HIS206     -0.2212
     84  N        -11.0330  -28.7290   60.9080 N.3   266  VAL266     -0.1231
     85  CA       -12.0840  -29.7290   61.0520 C.3   266  VAL266      0.1692
     86  C        -12.2250  -30.4280   59.7110 C.2   266  VAL266      0.2592
     87  O        -12.2800  -29.7720   58.6660 O.2   266  VAL266     -0.2718
     88  CB       -13.4290  -29.0710   61.4290 C.3   266  VAL266      0.0266
     89  CG1      -14.5470  -30.1080   61.5500 C.3   266  VAL266      0.0020
     90  CG2      -13.2910  -28.2940   62.7310 C.3   266  VAL266      0.0020
     91  N        -12.2750  -31.7550   59.7410 N.am  267  THR267     -0.1953
     92  CA       -12.5090  -32.5230   58.5290 C.3   267  THR267      0.1897
     93  C        -13.3170  -33.7760   58.8330 C.2   267  THR267      0.2313
     94  O        -13.6270  -34.0720   59.9920 O.2   267  THR267     -0.2863
     95  CB       -11.1810  -32.8420   57.7950 C.3   267  THR267      0.1794
     96  OG1      -11.4600  -33.3140   56.4690 O.3   267  THR267     -0.2208
     97  CG2      -10.3330  -33.8670   58.5650 C.3   267  THR267      0.0378
     98  N        -17.5900  -36.7890   52.2480 N.3   276  TRP276     -0.1241
     99  CA       -18.5380  -35.7000   52.0150 C.3   276  TRP276      0.1605
    100  C        -19.9970  -36.0690   52.3300 C.2   276  TRP276      0.2264
    101  O        -20.9200  -35.3480   51.9430 O.2   276  TRP276     -0.2867
    102  CB       -18.3930  -35.2320   50.5690 C.3   276  TRP276      0.0550
    103  CG       -17.1250  -34.4850   50.3610 C.ar  276  TRP276      0.0003
    104  CD1      -15.9770  -34.9530   49.8110 C.ar  276  TRP276      0.0946
    105  CD2      -16.8750  -33.1360   50.7290 C.ar  276  TRP276      0.0152
    106  NE1      -15.0160  -33.9720   49.7950 N.ar  276  TRP276     -0.2442
    107  CE2      -15.5440  -32.8410   50.3540 C.ar  276  TRP276      0.0810
    108  CE3      -17.6490  -32.1370   51.3300 C.ar  276  TRP276      0.0012
    109  CZ2      -14.9710  -31.5910   50.5630 C.ar  276  TRP276      0.0191
    110  CZ3      -17.0790  -30.8980   51.5460 C.ar  276  TRP276      0.0001
    111  CH2      -15.7540  -30.6360   51.1550 C.ar  276  TRP276      0.0015
    112  N         -4.8770  -28.5270   56.6890 N.3   339  SER339     -0.1202
    113  CA        -5.4100  -29.4880   55.7220 C.3   339  SER339      0.2020
    114  C         -6.4060  -28.8110   54.7960 C.2   339  SER339      0.2619
    115  O         -7.0370  -27.8170   55.1600 O.2   339  SER339     -0.2717
    116  CB        -6.0250  -30.7230   56.4010 C.3   339  SER339      0.2103
    117  OG        -7.3270  -30.4760   56.8960 O.3   339  SER339     -0.2182
    118  N         -6.5270  -29.3560   53.5900 N.am  340  PHE340     -0.1962
    119  CA        -7.3870  -28.7760   52.5690 C.3   340  PHE340      0.1756
    120  C         -7.8980  -29.8440   51.6050 C.2   340  PHE340      0.2461
    121  O         -7.2320  -30.8640   51.4000 O.2   340  PHE340     -0.2730
    122  CB        -6.6530  -27.6550   51.8170 C.3   340  PHE340      0.0574
    123  CG        -5.4300  -28.1090   51.0610 C.ar  340  PHE340     -0.0200
    124  CD1       -4.2450  -28.3950   51.7320 C.ar  340  PHE340     -0.0042
    125  CD2       -5.4510  -28.2200   49.6730 C.ar  340  PHE340     -0.0042
    126  CE1       -3.1130  -28.8040   51.0400 C.ar  340  PHE340     -0.0003
    127  CE2       -4.3190  -28.6260   48.9750 C.ar  340  PHE340     -0.0003
    128  CZ        -3.1500  -28.9200   49.6610 C.ar  340  PHE340     -0.0000
    129  N         -9.0890  -29.6170   51.0210 N.am  341  PRO341     -0.2727
    130  CA        -9.6680  -30.5990   50.1100 C.3   341  PRO341      0.1402
    131  C         -9.0210  -30.5770   48.7290 C.2   341  PRO341      0.2269
    132  O         -8.6810  -29.5100   48.2170 O.2   341  PRO341     -0.2865
    133  CB       -11.1380  -30.1800   50.0270 C.3   341  PRO341      0.0296
    134  CG       -11.1210  -28.7160   50.2860 C.3   341  PRO341      0.0237
    135  CD       -10.0130  -28.4950   51.2740 C.3   341  PRO341      0.0939
    136  N         -8.2170  -35.3150   51.2930 N.3   347  GLN347     -0.1245
    137  CA        -7.9000  -34.2470   52.2310 C.3   347  GLN347      0.1566
    138  C         -6.3970  -34.3240   52.4440 C.2   347  GLN347      0.2260
    139  O         -5.8850  -35.3540   52.8890 O.2   347  GLN347     -0.2867
    140  CB        -8.6450  -34.4310   53.5540 C.3   347  GLN347      0.0367
    141  CG        -8.5690  -33.2220   54.4850 C.3   347  GLN347      0.0905
    142  CD        -9.4590  -32.0620   54.0650 C.2   347  GLN347      0.2608
    143  OE1      -10.2550  -32.1670   53.1320 O.2   347  GLN347     -0.2717
    144  NE2       -9.3280  -30.9440   54.7660 N.am  347  GLN347     -0.0878
@<TRIPOS>BOND
     1    33    32   ar
     2    34    32   ar
     3    32    31    1
     4    31    30    1
     5    20    19    2
     6    30    27    1
     7    27    26    1
     8    27    28    1
     9    25    24    1
    10    24    23    1
    11    19    26   am
    12    19    18    1
    13    28    29    2
    14    21    18    1
    15    21    22    1
    16    18    17    1
    17    23    22    1
    18   132   131    2
    19    12    11    2
    20    17    11   am
    21   131   130    1
    22   127   128   ar
    23   127   125   ar
    24     7     5    1
    25    11    10    1
    26   128   126   ar
    27   125   123   ar
    28    72    71    2
    29   106   104   ar
    30   106   107   ar
    31   104   103   ar
    32   133   130    1
    33   133   134    1
    34   130   129    1
    35   134   135    1
    36   107   109   ar
    37   107   105   ar
    38   103   102    1
    39   103   105   ar
    40     5     6    1
    41     5     2    1
    42     8     6    1
    43    73    71   am
    44    15    13    1
    45   109   111   ar
    46   102    99    1
    47    10    13    1
    48    10     9    1
    49    71    70    1
    50   105   108   ar
    51    82    83   ar
    52    82    80   ar
    53   129   135    1
    54   129   120   am
    55   126   124   ar
    56    13    14    1
    57   123   124   ar
    58   123   122    1
    59    83    81   ar
    60     9     3   am
    61   111   110   ar
    62   136   137    1
    63   108   110   ar
    64   121   120    2
    65     3     2    1
    66     3     4    2
    67   120   119    1
    68     2     1    1
    69   122   119    1
    70   101   100    2
    71    99    98    1
    72    99   100    1
    73    70    69    1
    74    80    79   ar
    75   137   138    1
    76   137   140    1
    77    81    79   ar
    78   138   139    2
    79   119   118    1
    80    14    16    1
    81    69    66    1
    82    79    78    1
    83   143   142    2
    84   140   141    1
    85   118   114   am
    86   142   141    1
    87   142   144   am
    88    66    65    1
    89    66    67    1
    90    65    56   am
    91    78    75    1
    92    74    75    1
    93   114   115    2
    94   114   113    1
    95    52    51    1
    96    67    68    2
    97    75    76    1
    98    56    55    1
    99    56    57    2
   100    50    49    2
   101    51    53    1
   102    51    48    1
   103    55    54    1
   104    55    58    1
   105   113   116    1
   106   113   112    1
   107    49    54   am
   108    49    48    1
   109   116   117    1
   110    96    95    1
   111    58    59    1
   112    46    45    1
   113    48    47    1
   114    76    77    2
   115    45    43   ar
   116    45    44   ar
   117    47    37   am
   118    43    41   ar
   119    95    92    1
   120    95    97    1
   121    59    61   ar
   122    59    60   ar
   123    44    42   ar
   124    61    63   ar
   125    41    40   ar
   126    92    93    1
   127    92    91    1
   128    37    36    1
   129    37    38    2
   130    87    86    2
   131    93    94    2
   132    60    62   ar
   133    42    40   ar
   134    40    39    1
   135    36    39    1
   136    36    35    1
   137    63    64   ar
   138    86    91   am
   139    86    85    1
   140    62    64   ar
   141    84    85    1
   142    85    88    1
   143    88    89    1
   144    88    90    1
