@<TRIPOS>MOLECULE
tmp/5nslA14.pdb
 99 96 0 0 0
SMALL
GASTEIGER

@<TRIPOS>ATOM
      1  N         -0.1660  -40.8770   77.2760 N.3   252  GLU252     -0.1245
      2  CA         1.1410  -41.0750   76.6250 C.3   252  GLU252      0.1567
      3  C          1.0970  -41.0670   75.1020 C.2   252  GLU252      0.2260
      4  O          2.0790  -40.6770   74.4620 O.2   252  GLU252     -0.2867
      5  CB         1.7480  -42.4030   77.1050 C.3   252  GLU252      0.0388
      6  CG         3.2110  -42.6400   76.7450 C.3   252  GLU252      0.1160
      7  CD         3.7500  -43.9510   77.3110 C.2   252  GLU252      0.3649
      8  OE1        2.9840  -44.7290   77.9270 O.co2 252  GLU252     -0.2457
      9  OE2        4.9520  -44.2350   77.1050 O.co2 252  GLU252     -0.2457
     10  N         -0.0560  -36.6080   73.4870 N.3   255  GLY255     -0.1225
     11  CA         0.5440  -35.3200   73.8220 C.3   255  GLY255      0.1811
     12  C         -0.1280  -34.6550   75.0120 C.2   255  GLY255      0.2280
     13  O         -0.4680  -35.3190   75.9890 O.2   255  GLY255     -0.2866
     14  N          4.1440  -28.6400   76.8030 N.3   296  ARG296     -0.1231
     15  CA         5.3220  -29.4370   76.4660 C.3   296  ARG296      0.1694
     16  C          6.5890  -28.7290   76.9450 C.2   296  ARG296      0.2592
     17  O          6.7150  -27.5090   76.8120 O.2   296  ARG296     -0.2718
     18  CB         5.3670  -29.6700   74.9520 C.3   296  ARG296      0.0321
     19  CG         6.1790  -30.8790   74.5070 C.3   296  ARG296      0.0489
     20  CD         6.0420  -31.0650   73.0070 C.3   296  ARG296      0.2205
     21  NE         6.7300  -32.2490   72.4920 N.pl3 296  ARG296     -0.0865
     22  CZ         6.6990  -32.6440   71.2160 C.cat 296  ARG296      0.5346
     23  NH1        6.0180  -31.9520   70.3040 N.pl3 296  ARG296      0.1354
     24  NH2        7.3540  -33.7350   70.8380 N.pl3 296  ARG296      0.1354
     25  N          7.5220  -29.5010   77.5020 N.am  297  ALA297     -0.1966
     26  CA         8.7660  -28.9560   78.0630 C.3   297  ALA297      0.1728
     27  C          9.8240  -28.6030   77.0130 C.2   297  ALA297      0.2616
     28  O         10.8040  -27.9250   77.3270 O.2   297  ALA297     -0.2715
     29  CB         9.3530  -29.9370   79.0690 C.3   297  ALA297      0.0334
     30  N          9.6270  -29.0660   75.7810 N.am  298  ASP298     -0.1957
     31  CA        10.5890  -28.8970   74.6960 C.3   298  ASP298      0.1840
     32  C          9.7940  -28.7450   73.3960 C.2   298  ASP298      0.2622
     33  O          8.5750  -28.5490   73.4540 O.2   298  ASP298     -0.2715
     34  CB        11.5590  -30.0920   74.6760 C.3   298  ASP298      0.1450
     35  CG        10.8490  -31.4460   74.7200 C.2   298  ASP298      0.3671
     36  OD1        9.7620  -31.6050   74.1210 O.co2 298  ASP298     -0.2456
     37  OD2       11.3940  -32.3650   75.3660 O.co2 298  ASP298     -0.2456
     38  N         10.4590  -28.8130   72.2410 N.am  299  HIS299     -0.1973
     39  CA         9.7970  -28.6430   70.9390 C.3   299  HIS299      0.1656
     40  C          9.0210  -27.3340   70.8730 C.2   299  HIS299      0.2291
     41  O          7.8660  -27.2940   70.4420 O.2   299  HIS299     -0.2864
     42  CB         8.9100  -29.8550   70.6180 C.3   299  HIS299      0.0771
     43  CG         9.6980  -31.0920   70.3600 C.ar  299  HIS299      0.0820
     44  ND1       10.2070  -31.8750   71.3740 N.ar  299  HIS299     -0.2267
     45  CD2       10.1190  -31.6490   69.2030 C.ar  299  HIS299      0.1154
     46  CE1       10.8900  -32.8760   70.8480 C.ar  299  HIS299      0.1986
     47  NE2       10.8490  -32.7630   69.5330 N.ar  299  HIS299     -0.2212
     48  N          2.7300  -28.9520   70.5830 N.3   303  TRP303     -0.1241
     49  CA         2.2590  -30.2710   70.1400 C.3   303  TRP303      0.1605
     50  C          1.3380  -30.1020   68.9310 C.2   303  TRP303      0.2264
     51  O          0.3500  -29.3810   69.0360 O.2   303  TRP303     -0.2867
     52  CB         1.4210  -30.9440   71.2300 C.3   303  TRP303      0.0550
     53  CG         2.1630  -31.6860   72.2810 C.ar  303  TRP303      0.0003
     54  CD1        2.2920  -31.3380   73.5930 C.ar  303  TRP303      0.0946
     55  CD2        2.8380  -32.9370   72.1280 C.ar  303  TRP303      0.0152
     56  NE1        3.0250  -32.2850   74.2660 N.ar  303  TRP303     -0.2442
     57  CE2        3.3710  -33.2810   73.3910 C.ar  303  TRP303      0.0810
     58  CE3        3.0540  -33.7990   71.0430 C.ar  303  TRP303      0.0012
     59  CZ2        4.1140  -34.4490   73.5970 C.ar  303  TRP303      0.0191
     60  CZ3        3.7890  -34.9610   71.2510 C.ar  303  TRP303      0.0001
     61  CH2        4.3080  -35.2750   72.5170 C.ar  303  TRP303      0.0015
     62  N          5.5220  -36.2440   65.8050 N.3   331  TRP331     -0.1241
     63  CA         6.1480  -36.3070   67.1290 C.3   331  TRP331      0.1605
     64  C          7.4250  -35.4700   67.2680 C.2   331  TRP331      0.2264
     65  O          7.9940  -35.3970   68.3600 O.2   331  TRP331     -0.2867
     66  CB         6.4510  -37.7660   67.4810 C.3   331  TRP331      0.0550
     67  CG         5.2260  -38.5990   67.6710 C.ar  331  TRP331      0.0003
     68  CD1        4.4500  -39.1570   66.6990 C.ar  331  TRP331      0.0946
     69  CD2        4.6440  -38.9800   68.9170 C.ar  331  TRP331      0.0152
     70  NE1        3.4150  -39.8630   67.2630 N.ar  331  TRP331     -0.2442
     71  CE2        3.5130  -39.7750   68.6260 C.ar  331  TRP331      0.0810
     72  CE3        4.9710  -38.7320   70.2550 C.ar  331  TRP331      0.0012
     73  CZ2        2.6970  -40.3180   69.6280 C.ar  331  TRP331      0.0191
     74  CZ3        4.1640  -39.2740   71.2500 C.ar  331  TRP331      0.0001
     75  CH2        3.0380  -40.0600   70.9280 C.ar  331  TRP331      0.0015
     76  N         17.2330  -36.4590   72.0400 N.3   516  THR516     -0.1218
     77  CA        16.6270  -37.6330   71.4210 C.3   516  THR516      0.1862
     78  C         15.1460  -37.3870   71.1230 C.2   516  THR516      0.2287
     79  O         14.3930  -36.9860   72.0070 O.2   516  THR516     -0.2866
     80  CB        16.7870  -38.8730   72.3320 C.3   516  THR516      0.1770
     81  OG1       18.1810  -39.1140   72.5570 O.3   516  THR516     -0.2211
     82  CG2       16.1670  -40.1240   71.7090 C.3   516  THR516      0.0375
     83  N         11.3560  -38.8090   70.1600 N.3   518  LEU518     -0.1245
     84  CA        10.5940  -40.0060   70.5250 C.3   518  LEU518      0.1561
     85  C          9.1650  -39.9990   69.9790 C.2   518  LEU518      0.2260
     86  O          8.4480  -39.0150   70.1070 O.2   518  LEU518     -0.2867
     87  CB        10.5650  -40.1730   72.0450 C.3   518  LEU518      0.0270
     88  CG        10.0140  -41.5310   72.5160 C.3   518  LEU518      0.0019
     89  CD1       10.8810  -42.1640   73.5930 C.3   518  LEU518      0.0001
     90  CD2        8.5770  -41.3980   72.9980 C.3   518  LEU518      0.0001
     91  N          5.6710  -42.8040   69.9640 N.3   520  LYS520     -0.1245
     92  CA         5.0560  -44.0820   70.3170 C.3   520  LYS520      0.1561
     93  C          4.4870  -44.7140   69.0570 C.2   520  LYS520      0.2260
     94  O          3.8610  -44.0240   68.2510 O.2   520  LYS520     -0.2867
     95  CB         3.9280  -43.8880   71.3370 C.3   520  LYS520      0.0271
     96  CG         4.3550  -43.2320   72.6430 C.3   520  LYS520      0.0035
     97  CD         5.3930  -44.0310   73.4170 C.3   520  LYS520      0.0206
     98  CE         4.8450  -45.3740   73.8920 C.3   520  LYS520      0.1093
     99  NZ         5.7680  -46.0160   74.8670 N.3   520  LYS520     -0.1314
@<TRIPOS>BOND
     1    62    63    1
     2    68    70   ar
     3    68    67   ar
     4    63    64    1
     5    63    66    1
     6    70    71   ar
     7    64    65    2
     8    66    67    1
     9    67    69   ar
    10    94    93    2
    11    71    69   ar
    12    71    73   ar
    13    69    72   ar
    14    50    51    2
    15    50    49    1
    16    93    92    1
    17    45    47   ar
    18    45    43   ar
    19    47    46   ar
    20    73    75   ar
    21    91    92    1
    22    85    86    2
    23    85    84    1
    24    49    48    1
    25    49    52    1
    26    83    84    1
    27    72    74   ar
    28    23    22    1
    29    92    95    1
    30    43    42    1
    31    43    44   ar
    32    41    40    2
    33    84    87    1
    34    42    39    1
    35    24    22    1
    36    46    44   ar
    37    40    39    1
    38    75    74   ar
    39    39    38    1
    40    58    60   ar
    41    58    55   ar
    42    78    77    1
    43    78    79    2
    44    22    21    2
    45    52    53    1
    46    60    61   ar
    47    95    96    1
    48    77    76    1
    49    77    80    1
    50    82    80    1
    51    87    88    1
    52    55    53   ar
    53    55    57   ar
    54    38    32   am
    55    53    54   ar
    56    80    81    1
    57    21    20    1
    58    88    90    1
    59    88    89    1
    60    61    59   ar
    61    96    97    1
    62    20    19    1
    63    57    59   ar
    64    57    56   ar
    65    32    33    2
    66    32    31    1
    67    97    98    1
    68    10    11    1
    69    54    56   ar
    70    11    12    1
    71    98    99    1
    72    36    35   ar
    73     4     3    2
    74    19    18    1
    75    34    31    1
    76    34    35    1
    77    31    30    1
    78    35    37   ar
    79    18    15    1
    80    12    13    2
    81     3     2    1
    82    30    27   am
    83    15    14    1
    84    15    16    1
    85     2     5    1
    86     2     1    1
    87     6     5    1
    88     6     7    1
    89    17    16    2
    90    16    25   am
    91    27    28    2
    92    27    26    1
    93     9     7   ar
    94     7     8   ar
    95    25    26    1
    96    26    29    1
