@<TRIPOS>MOLECULE
tmp/5nslA06.pdb
 120 119 0 0 0
SMALL
GASTEIGER

@<TRIPOS>ATOM
      1  N         12.8980  -15.9260   56.8110 N.3    36  TRP36      -0.1241
      2  CA        12.0710  -16.6190   57.7830 C.3    36  TRP36       0.1605
      3  C         10.7790  -17.1260   57.1520 C.2    36  TRP36       0.2264
      4  O         10.1100  -16.3830   56.4320 O.2    36  TRP36      -0.2867
      5  CB        11.7210  -15.6760   58.9410 C.3    36  TRP36       0.0550
      6  CG        10.7050  -16.2610   59.8560 C.ar   36  TRP36       0.0003
      7  CD1        9.3460  -16.1480   59.7550 C.ar   36  TRP36       0.0946
      8  CD2       10.9560  -17.0990   60.9840 C.ar   36  TRP36       0.0152
      9  NE1        8.7380  -16.8560   60.7580 N.ar   36  TRP36      -0.2442
     10  CE2        9.7020  -17.4490   61.5300 C.ar   36  TRP36       0.0810
     11  CE3       12.1210  -17.5850   61.5940 C.ar   36  TRP36       0.0012
     12  CZ2        9.5790  -18.2620   62.6610 C.ar   36  TRP36       0.0191
     13  CZ3       11.9970  -18.3960   62.7170 C.ar   36  TRP36       0.0001
     14  CH2       10.7360  -18.7260   63.2360 C.ar   36  TRP36       0.0015
     15  N          7.2270  -19.6530   58.5980 N.3    38  ASN38      -0.1240
     16  CA         6.5980  -20.6040   59.5140 C.3    38  ASN38       0.1653
     17  C          5.3440  -21.2670   58.8980 C.2    38  ASN38       0.2266
     18  O          5.4820  -21.9580   57.8830 O.2    38  ASN38      -0.2867
     19  CB         6.4600  -20.0580   60.9660 C.3    38  ASN38       0.1155
     20  CG         5.6640  -18.7610   61.0820 C.2    38  ASN38       0.2627
     21  OD1        6.0590  -17.7110   60.5760 O.2    38  ASN38      -0.2716
     22  ND2        4.5640  -18.8230   61.8280 N.am   38  ASN38      -0.0877
     23  N         14.3230  -14.0130   61.9430 N.3    63  GLN63      -0.1231
     24  CA        13.3220  -14.1540   62.9910 C.3    63  GLN63       0.1698
     25  C         11.9980  -13.6100   62.4820 C.2    63  GLN63       0.2592
     26  O         11.9490  -12.8650   61.5060 O.2    63  GLN63      -0.2718
     27  CB        13.7470  -13.4250   64.2670 C.3    63  GLN63       0.0381
     28  CG        14.9680  -14.0380   64.9320 C.3    63  GLN63       0.0905
     29  CD        14.6470  -15.3300   65.6550 C.2    63  GLN63       0.2608
     30  OE1       14.2380  -15.3160   66.8150 O.2    63  GLN63      -0.2717
     31  NE2       14.8370  -16.4570   64.9760 N.am   63  GLN63      -0.0878
     32  N         10.9350  -14.0090   63.1650 N.am   64  TRP64      -0.1976
     33  CA         9.5590  -13.6500   62.8290 C.3    64  TRP64       0.1640
     34  C          9.3270  -12.1420   62.9120 C.2    64  TRP64       0.2290
     35  O          9.9440  -11.4490   63.7250 O.2    64  TRP64      -0.2864
     36  CB         8.6520  -14.3820   63.8150 C.3    64  TRP64       0.0576
     37  CG         7.1780  -14.2460   63.6750 C.ar   64  TRP64       0.0006
     38  CD1        6.3370  -15.1100   63.0340 C.ar   64  TRP64       0.0946
     39  CD2        6.3460  -13.2470   64.2730 C.ar   64  TRP64       0.0152
     40  NE1        5.0370  -14.6970   63.1700 N.ar   64  TRP64      -0.2442
     41  CE2        5.0120  -13.5540   63.9240 C.ar   64  TRP64       0.0810
     42  CE3        6.5970  -12.1100   65.0560 C.ar   64  TRP64       0.0012
     43  CZ2        3.9340  -12.7670   64.3240 C.ar   64  TRP64       0.0191
     44  CZ3        5.5180  -11.3230   65.4570 C.ar   64  TRP64       0.0001
     45  CH2        4.2030  -11.6590   65.0910 C.ar   64  TRP64       0.0015
     46  N         -3.8140  -23.4970   68.3520 N.3   262  GLU262     -0.1245
     47  CA        -3.4370  -22.7670   67.1440 C.3   262  GLU262      0.1567
     48  C         -3.6610  -23.6410   65.9130 C.2   262  GLU262      0.2260
     49  O         -3.6040  -24.8720   65.9930 O.2   262  GLU262     -0.2867
     50  CB        -1.9710  -22.3410   67.2000 C.3   262  GLU262      0.0388
     51  CG        -1.6500  -21.3420   68.2970 C.3   262  GLU262      0.1160
     52  CD        -0.1970  -20.9120   68.2750 C.2   262  GLU262      0.3649
     53  OE1        0.6830  -21.7880   68.3910 O.co2 262  GLU262     -0.2457
     54  OE2        0.0680  -19.6950   68.1610 O.co2 262  GLU262     -0.2457
     55  N         -0.2820  -25.0860   72.7420 N.3   293  GLU293     -0.1245
     56  CA         0.8340  -24.3360   73.3130 C.3   293  GLU293      0.1567
     57  C          0.9420  -24.5360   74.8140 C.2   293  GLU293      0.2260
     58  O         -0.0690  -24.6570   75.5070 O.2   293  GLU293     -0.2867
     59  CB         0.6630  -22.8420   73.0790 C.3   293  GLU293      0.0388
     60  CG         0.3740  -22.4380   71.6530 C.3   293  GLU293      0.1160
     61  CD         0.6710  -20.9720   71.4310 C.2   293  GLU293      0.3649
     62  OE1        1.8100  -20.6610   71.0230 O.co2 293  GLU293     -0.2457
     63  OE2       -0.2230  -20.1360   71.6870 O.co2 293  GLU293     -0.2457
     64  N          9.6740  -26.2690   71.3380 N.3   300  GLN300     -0.1245
     65  CA         9.1050  -24.9210   71.3550 C.3   300  GLN300      0.1566
     66  C          7.7310  -24.8610   72.0530 C.2   300  GLN300      0.2260
     67  O          6.8620  -24.0650   71.6860 O.2   300  GLN300     -0.2867
     68  CB         9.0760  -24.3610   69.9240 C.3   300  GLN300      0.0367
     69  CG        10.4640  -24.3640   69.2900 C.3   300  GLN300      0.0905
     70  CD        10.5730  -23.5590   68.0050 C.2   300  GLN300      0.2608
     71  OE1        9.5710  -23.1770   67.3990 O.2   300  GLN300     -0.2717
     72  NE2       11.8080  -23.3080   67.5760 N.am  300  GLN300     -0.0878
     73  N          5.3140  -26.9000   71.8870 N.3   302  HIS302     -0.1241
     74  CA         4.2830  -27.0980   70.8650 C.3   302  HIS302      0.1621
     75  C          4.0100  -28.5700   70.5470 C.2   302  HIS302      0.2264
     76  O          4.9390  -29.3230   70.2650 O.2   302  HIS302     -0.2867
     77  CB         4.6940  -26.3780   69.5760 C.3   302  HIS302      0.0745
     78  CG         4.3920  -24.9120   69.5700 C.ar  302  HIS302      0.0817
     79  ND1        5.0480  -24.0240   68.7450 N.ar  302  HIS302     -0.2268
     80  CD2        3.5090  -24.1780   70.2880 C.ar  302  HIS302      0.1154
     81  CE1        4.5750  -22.8070   68.9500 C.ar  302  HIS302      0.1986
     82  NE2        3.6440  -22.8730   69.8830 N.ar  302  HIS302     -0.2212
     83  N          4.9820  -28.3540   63.3780 N.3   335  TYR335     -0.1241
     84  CA         3.8340  -27.6820   63.9710 C.3   335  TYR335      0.1605
     85  C          3.0390  -27.0070   62.8610 C.2   335  TYR335      0.2264
     86  O          3.4900  -26.9630   61.7110 O.2   335  TYR335     -0.2867
     87  CB         4.3310  -26.6340   64.9740 C.3   335  TYR335      0.0534
     88  CG         3.2920  -26.0650   65.9100 C.ar  335  TYR335     -0.0201
     89  CD1        2.6080  -26.8830   66.8110 C.ar  335  TYR335     -0.0009
     90  CD2        3.0100  -24.6990   65.9160 C.ar  335  TYR335     -0.0009
     91  CE1        1.6720  -26.3560   67.6880 C.ar  335  TYR335      0.0417
     92  CE2        2.0750  -24.1650   66.7820 C.ar  335  TYR335      0.0417
     93  CZ         1.4090  -24.9940   67.6700 C.ar  335  TYR335      0.1957
     94  OH         0.4780  -24.4690   68.5340 O.3   335  TYR335     -0.2866
     95  N          4.8050  -27.2410   59.1460 N.3   352  TRP352     -0.1241
     96  CA         6.0430  -26.4670   59.1500 C.3   352  TRP352      0.1605
     97  C          7.0700  -27.1880   60.0050 C.2   352  TRP352      0.2264
     98  O          6.7790  -27.5240   61.1470 O.2   352  TRP352     -0.2867
     99  CB         5.7470  -25.0700   59.7040 C.3   352  TRP352      0.0550
    100  CG         6.8860  -24.2990   60.3200 C.ar  352  TRP352      0.0003
    101  CD1        8.0790  -23.9650   59.7430 C.ar  352  TRP352      0.0946
    102  CD2        6.8920  -23.7130   61.6230 C.ar  352  TRP352      0.0152
    103  NE1        8.8350  -23.2200   60.6190 N.ar  352  TRP352     -0.2442
    104  CE2        8.1280  -23.0510   61.7810 C.ar  352  TRP352      0.0810
    105  CE3        5.9720  -23.6920   62.6800 C.ar  352  TRP352      0.0012
    106  CZ2        8.4660  -22.3680   62.9550 C.ar  352  TRP352      0.0191
    107  CZ3        6.3100  -23.0180   63.8460 C.ar  352  TRP352      0.0001
    108  CH2        7.5480  -22.3690   63.9740 C.ar  352  TRP352      0.0015
    109  N         10.4570  -26.5230   61.8070 N.3   354  TYR354     -0.1241
    110  CA        11.3760  -25.4770   62.2690 C.3   354  TYR354      0.1605
    111  C         12.7990  -26.0340   62.3430 C.2   354  TYR354      0.2264
    112  O         13.0080  -27.2480   62.2500 O.2   354  TYR354     -0.2867
    113  CB        10.9290  -24.8370   63.6020 C.3   354  TYR354      0.0534
    114  CG        10.3790  -25.7630   64.6700 C.ar  354  TYR354     -0.0201
    115  CD1        9.0260  -26.1200   64.6910 C.ar  354  TYR354     -0.0009
    116  CD2       11.1990  -26.2490   65.6830 C.ar  354  TYR354     -0.0009
    117  CE1        8.5210  -26.9600   65.6750 C.ar  354  TYR354      0.0417
    118  CE2       10.7010  -27.0810   66.6710 C.ar  354  TYR354      0.0417
    119  CZ         9.3660  -27.4330   66.6670 C.ar  354  TYR354      0.1957
    120  OH         8.8890  -28.2630   67.6530 O.3   354  TYR354     -0.2866
@<TRIPOS>BOND
     1     4     3    2
     2     1     2    1
     3     3     2    1
     4     2     5    1
     5    18    17    2
     6    15    16    1
     7    17    16    1
     8     5     6    1
     9    95    96    1
    10    96    99    1
    11    96    97    1
    12    16    19    1
    13    99   100    1
    14   101   100   ar
    15   101   103   ar
    16     7     6   ar
    17     7     9   ar
    18     6     8   ar
    19    97    98    2
    20   100   102   ar
    21    21    20    2
    22   103   104   ar
    23     9    10   ar
    24    19    20    1
    25     8    10   ar
    26     8    11   ar
    27    20    22   am
    28    26    25    2
    29    10    12   ar
    30    11    13   ar
    31   102   104   ar
    32   102   105   ar
    33    86    85    2
    34   104   106   ar
    35   109   110    1
    36    23    24    1
    37   112   111    2
    38   110   111    1
    39   110   113    1
    40    25    24    1
    41    25    32   am
    42    12    14   ar
    43   105   107   ar
    44    13    14   ar
    45    33    34    1
    46    33    32    1
    47    33    36    1
    48    85    84    1
    49    34    35    2
    50   106   108   ar
    51    24    27    1
    52    38    40   ar
    53    38    37   ar
    54    40    41   ar
    55    83    84    1
    56   113   114    1
    57    37    36    1
    58    37    39   ar
    59   107   108   ar
    60    41    39   ar
    61    41    43   ar
    62    84    87    1
    63    27    28    1
    64    39    42   ar
    65    43    45   ar
    66   114   115   ar
    67   114   116   ar
    68   115   117   ar
    69    28    29    1
    70    87    88    1
    71    31    29   am
    72    42    44   ar
    73    45    44   ar
    74    29    30    2
    75   117   119   ar
    76   116   118   ar
    77    88    90   ar
    78    88    89   ar
    79    48    49    2
    80    48    47    1
    81    90    92   ar
    82   119   118   ar
    83   119   120    1
    84    92    93   ar
    85    89    91   ar
    86    47    50    1
    87    47    46    1
    88    50    51    1
    89    71    70    2
    90    72    70   am
    91    93    91   ar
    92    93    94    1
    93    70    69    1
    94    54    52   ar
    95    52    51    1
    96    52    53   ar
    97    79    81   ar
    98    79    78   ar
    99    81    82   ar
   100    69    68    1
   101    78    77    1
   102    78    80   ar
   103    77    74    1
   104    82    80   ar
   105    68    65    1
   106    76    75    2
   107    75    74    1
   108    74    73    1
   109    62    61   ar
   110    64    65    1
   111    65    66    1
   112    61    60    1
   113    61    63   ar
   114    60    59    1
   115    67    66    2
   116    55    56    1
   117    59    56    1
   118    56    57    1
   119    57    58    2
