@<TRIPOS>MOLECULE
tmp/5nslA05.pdb
 98 92 0 0 0
SMALL
GASTEIGER

@<TRIPOS>ATOM
      1  N         10.9350  -14.0090   63.1650 N.3    64  TRP64      -0.1241
      2  CA         9.5590  -13.6500   62.8290 C.3    64  TRP64       0.1605
      3  C          9.3270  -12.1420   62.9120 C.2    64  TRP64       0.2264
      4  O          9.9440  -11.4490   63.7250 O.2    64  TRP64      -0.2867
      5  CB         8.6520  -14.3820   63.8150 C.3    64  TRP64       0.0550
      6  CG         7.1780  -14.2460   63.6750 C.ar   64  TRP64       0.0003
      7  CD1        6.3370  -15.1100   63.0340 C.ar   64  TRP64       0.0946
      8  CD2        6.3460  -13.2470   64.2730 C.ar   64  TRP64       0.0152
      9  NE1        5.0370  -14.6970   63.1700 N.ar   64  TRP64      -0.2442
     10  CE2        5.0120  -13.5540   63.9240 C.ar   64  TRP64       0.0810
     11  CE3        6.5970  -12.1100   65.0560 C.ar   64  TRP64       0.0012
     12  CZ2        3.9340  -12.7670   64.3240 C.ar   64  TRP64       0.0191
     13  CZ3        5.5180  -11.3230   65.4570 C.ar   64  TRP64       0.0001
     14  CH2        4.2030  -11.6590   65.0910 C.ar   64  TRP64       0.0015
     15  N          0.2690   -5.1730   62.3460 N.3   101  ARG101     -0.1245
     16  CA         1.1600   -5.9520   63.2030 C.3   101  ARG101      0.1563
     17  C          1.4610   -7.3510   62.6410 C.2   101  ARG101      0.2260
     18  O          2.3590   -8.0360   63.1350 O.2   101  ARG101     -0.2867
     19  CB         0.5630   -6.0360   64.6110 C.3   101  ARG101      0.0307
     20  CG         1.5210   -6.5120   65.6920 C.3   101  ARG101      0.0489
     21  CD         1.2190   -7.9230   66.1770 C.3   101  ARG101      0.2205
     22  NE         1.9140   -8.1810   67.4360 N.pl3 101  ARG101     -0.0865
     23  CZ         1.5230   -7.7440   68.6350 C.cat 101  ARG101      0.5346
     24  NH1        0.4110   -7.0180   68.7830 N.pl3 101  ARG101      0.1354
     25  NH2        2.2550   -8.0370   69.7060 N.pl3 101  ARG101      0.1354
     26  N         -1.6020  -12.8620   59.8390 N.3   104  PHE104     -0.1241
     27  CA        -1.4500  -14.1930   60.4260 C.3   104  PHE104      0.1605
     28  C         -2.1250  -15.2380   59.5200 C.2   104  PHE104      0.2264
     29  O         -2.5790  -14.9200   58.4150 O.2   104  PHE104     -0.2867
     30  CB        -2.0500  -14.2090   61.8490 C.3   104  PHE104      0.0534
     31  CG        -1.1470  -13.6670   62.9350 C.ar  104  PHE104     -0.0203
     32  CD1       -0.2210  -12.6470   62.7000 C.ar  104  PHE104     -0.0042
     33  CD2       -1.2790  -14.1520   64.2340 C.ar  104  PHE104     -0.0042
     34  CE1        0.5710  -12.1590   63.7330 C.ar  104  PHE104     -0.0003
     35  CE2       -0.4890  -13.6670   65.2660 C.ar  104  PHE104     -0.0003
     36  CZ         0.4370  -12.6710   65.0160 C.ar  104  PHE104     -0.0000
     37  N          0.1660   -9.6500   72.6190 N.3   129  LEU129     -0.1231
     38  CA        -0.4100  -10.7270   71.8200 C.3   129  LEU129      0.1693
     39  C          0.2830  -12.0260   72.2010 C.2   129  LEU129      0.2593
     40  O          1.4740  -12.2090   71.9310 O.2   129  LEU129     -0.2718
     41  CB        -0.2520  -10.4270   70.3200 C.3   129  LEU129      0.0284
     42  CG        -1.2060  -11.1240   69.3380 C.3   129  LEU129      0.0019
     43  CD1       -1.0600  -10.5310   67.9470 C.3   129  LEU129      0.0001
     44  CD2       -0.9800  -12.6230   69.2720 C.3   129  LEU129      0.0001
     45  N         -0.4680  -12.9200   72.8400 N.am  130  GLY130     -0.1942
     46  CA         0.0520  -14.2290   73.2130 C.3   130  GLY130      0.2014
     47  C         -0.7360  -14.8680   74.3320 C.2   130  GLY130      0.2638
     48  O         -1.3600  -14.1770   75.1410 O.2   130  GLY130     -0.2714
     49  N         -0.6770  -16.1960   74.3850 N.am  131  ALA131     -0.1977
     50  CA        -1.4100  -16.9840   75.3770 C.3   131  ALA131      0.1597
     51  C         -0.9490  -16.7570   76.8190 C.2   131  ALA131      0.2287
     52  O         -1.7340  -16.9580   77.7490 O.2   131  ALA131     -0.2864
     53  CB        -1.3300  -18.4630   75.0300 C.3   131  ALA131      0.0319
     54  N          0.2720  -13.7100   77.8130 N.3   133  LEU133     -0.1245
     55  CA         0.1780  -12.2640   78.0280 C.3   133  LEU133      0.1561
     56  C         -1.2690  -11.8390   78.2260 C.2   133  LEU133      0.2260
     57  O         -2.1890  -12.6360   78.0420 O.2   133  LEU133     -0.2867
     58  CB         0.7720  -11.5200   76.8300 C.3   133  LEU133      0.0270
     59  CG         2.2090  -11.8830   76.4530 C.3   133  LEU133      0.0019
     60  CD1        2.6310  -11.0810   75.2310 C.3   133  LEU133      0.0001
     61  CD2        3.1700  -11.6510   77.6120 C.3   133  LEU133      0.0001
     62  N         -7.4410  -16.6160   66.7930 N.3   179  ARG179     -0.1245
     63  CA        -6.8180  -16.5950   65.4710 C.3   179  ARG179      0.1563
     64  C         -6.9700  -17.8830   64.6750 C.2   179  ARG179      0.2260
     65  O         -7.5140  -18.8800   65.1630 O.2   179  ARG179     -0.2867
     66  CB        -5.3290  -16.2370   65.6050 C.3   179  ARG179      0.0307
     67  CG        -4.5080  -17.1730   66.4820 C.3   179  ARG179      0.0489
     68  CD        -3.0200  -16.8740   66.3620 C.3   179  ARG179      0.2205
     69  NE        -2.2440  -17.5140   67.4270 N.pl3 179  ARG179     -0.0865
     70  CZ        -2.1850  -17.0960   68.6940 C.cat 179  ARG179      0.5346
     71  NH1       -2.8560  -16.0190   69.1020 N.pl3 179  ARG179      0.1354
     72  NH2       -1.4500  -17.7710   69.5740 N.pl3 179  ARG179      0.1354
     73  N         -3.8140  -23.4970   68.3520 N.3   262  GLU262     -0.1245
     74  CA        -3.4370  -22.7670   67.1440 C.3   262  GLU262      0.1567
     75  C         -3.6610  -23.6410   65.9130 C.2   262  GLU262      0.2260
     76  O         -3.6040  -24.8720   65.9930 O.2   262  GLU262     -0.2867
     77  CB        -1.9710  -22.3410   67.2000 C.3   262  GLU262      0.0388
     78  CG        -1.6500  -21.3420   68.2970 C.3   262  GLU262      0.1160
     79  CD        -0.1970  -20.9120   68.2750 C.2   262  GLU262      0.3649
     80  OE1        0.6830  -21.7880   68.3910 O.co2 262  GLU262     -0.2457
     81  OE2        0.0680  -19.6950   68.1610 O.co2 262  GLU262     -0.2457
     82  N         -0.2820  -25.0860   72.7420 N.3   293  GLU293     -0.1245
     83  CA         0.8340  -24.3360   73.3130 C.3   293  GLU293      0.1567
     84  C          0.9420  -24.5360   74.8140 C.2   293  GLU293      0.2260
     85  O         -0.0690  -24.6570   75.5070 O.2   293  GLU293     -0.2867
     86  CB         0.6630  -22.8420   73.0790 C.3   293  GLU293      0.0388
     87  CG         0.3740  -22.4380   71.6530 C.3   293  GLU293      0.1160
     88  CD         0.6710  -20.9720   71.4310 C.2   293  GLU293      0.3649
     89  OE1        1.8100  -20.6610   71.0230 O.co2 293  GLU293     -0.2457
     90  OE2       -0.2230  -20.1360   71.6870 O.co2 293  GLU293     -0.2457
     91  N          7.3940   -4.9760   68.7830 N.3   620  LEU620     -0.1245
     92  CA         6.5730   -5.9840   68.1030 C.3   620  LEU620      0.1561
     93  C          7.3850   -7.1200   67.4940 C.2   620  LEU620      0.2260
     94  O          6.9690   -8.2810   67.5570 O.2   620  LEU620     -0.2867
     95  CB         5.7490   -5.3190   67.0010 C.3   620  LEU620      0.0270
     96  CG         4.8350   -4.1760   67.4390 C.3   620  LEU620      0.0019
     97  CD1        4.1850   -3.5530   66.2180 C.3   620  LEU620      0.0001
     98  CD2        3.7740   -4.6500   68.4210 C.3   620  LEU620      0.0001
@<TRIPOS>BOND
     1    29    28    2
     2    28    27    1
     3    26    27    1
     4    27    30    1
     5    30    31    1
     6    15    16    1
     7    17    18    2
     8    17    16    1
     9    32    31   ar
    10    32    34   ar
    11     2     3    1
    12     2     1    1
    13     2     5    1
    14     3     4    2
    15    31    33   ar
    16     7     9   ar
    17     7     6   ar
    18     9    10   ar
    19    16    19    1
    20     6     5    1
    21     6     8   ar
    22    34    36   ar
    23    10     8   ar
    24    10    12   ar
    25    33    35   ar
    26     8    11   ar
    27    12    14   ar
    28    19    20    1
    29    64    65    2
    30    64    63    1
    31    36    35   ar
    32    11    13   ar
    33    14    13   ar
    34    63    66    1
    35    63    62    1
    36    66    67    1
    37    20    21    1
    38    75    76    2
    39    75    74    1
    40    21    22    1
    41    97    96    1
    42    68    67    1
    43    68    69    1
    44    95    96    1
    45    95    92    1
    46    74    77    1
    47    74    73    1
    48    77    78    1
    49    69    70    2
    50    22    23    2
    51    96    98    1
    52    93    94    2
    53    93    92    1
    54    43    42    1
    55    92    91    1
    56    81    79   ar
    57    79    78    1
    58    79    80   ar
    59    23    24    1
    60    23    25    1
    61    70    71    1
    62    70    72    1
    63    44    42    1
    64    42    41    1
    65    41    38    1
    66    89    88   ar
    67    88    87    1
    68    88    90   ar
    69    87    86    1
    70    38    39    1
    71    38    37    1
    72    40    39    2
    73    39    45   am
    74    82    83    1
    75    45    46    1
    76    86    83    1
    77    46    47    1
    78    83    84    1
    79    47    49   am
    80    47    48    2
    81    49    50    1
    82    84    85    2
    83    53    50    1
    84    60    59    1
    85    50    51    1
    86    59    58    1
    87    59    61    1
    88    51    52    2
    89    58    55    1
    90    54    55    1
    91    55    56    1
    92    57    56    2
