@<TRIPOS>MOLECULE
tmp/5nslA11.pdb
 77 74 0 0 0
SMALL
GASTEIGER

@<TRIPOS>ATOM
      1  N         13.4400  -47.0290   52.5460 N.3   463  THR463     -0.1203
      2  CA        12.2870  -47.7550   53.0360 C.3   463  THR463      0.1994
      3  C         12.6920  -49.1700   53.4240 C.2   463  THR463      0.2618
      4  O         13.6390  -49.7200   52.8690 O.2   463  THR463     -0.2717
      5  CB        11.1440  -47.7410   52.0040 C.3   463  THR463      0.1784
      6  OG1        9.9200  -48.1260   52.6420 O.3   463  THR463     -0.2211
      7  CG2       11.4330  -48.6570   50.8250 C.3   463  THR463      0.0376
      8  N         11.9800  -49.7390   54.3910 N.am  464  GLY464     -0.1942
      9  CA        12.2020  -51.1220   54.8000 C.3   464  GLY464      0.2014
     10  C         11.1000  -51.6480   55.6960 C.2   464  GLY464      0.2639
     11  O         10.4150  -50.8690   56.3610 O.2   464  GLY464     -0.2714
     12  N         10.9140  -52.9690   55.6790 N.am  465  SER465     -0.1949
     13  CA         9.9460  -53.6510   56.5430 C.3   465  SER465      0.1924
     14  C         10.7250  -54.4830   57.5400 C.2   465  SER465      0.2314
     15  O         11.4580  -55.3910   57.1490 O.2   465  SER465     -0.2863
     16  CB         9.0170  -54.5700   55.7470 C.3   465  SER465      0.2116
     17  OG         8.2590  -53.8470   54.7960 O.3   465  SER465     -0.2180
     18  N          6.8070  -51.0510   59.1120 N.3   535  ASN535     -0.1225
     19  CA         7.1690  -50.4870   57.8190 C.3   535  ASN535      0.1785
     20  C          7.6370  -49.0620   58.0370 C.2   535  ASN535      0.2597
     21  O          6.8560  -48.2190   58.4630 O.2   535  ASN535     -0.2718
     22  CB         5.9670  -50.4910   56.8850 C.3   535  ASN535      0.1169
     23  CG         5.6260  -51.8680   56.3740 C.2   535  ASN535      0.2627
     24  OD1        6.4520  -52.7860   56.3890 O.2   535  ASN535     -0.2716
     25  ND2        4.3940  -52.0140   55.9130 N.am  535  ASN535     -0.0877
     26  N          8.9040  -48.8070   57.7260 N.am  536  LEU536     -0.1966
     27  CA         9.5610  -47.5530   58.0570 C.3   536  LEU536      0.1728
     28  C         10.0990  -46.9020   56.7890 C.2   536  LEU536      0.2616
     29  O         10.8550  -47.5290   56.0510 O.2   536  LEU536     -0.2715
     30  CB        10.6970  -47.8450   59.0410 C.3   536  LEU536      0.0311
     31  CG        11.3780  -46.6950   59.7760 C.3   536  LEU536      0.0022
     32  CD1       10.3870  -45.9480   60.6540 C.3   536  LEU536      0.0001
     33  CD2       12.5190  -47.2530   60.6170 C.3   536  LEU536      0.0001
     34  N          9.6780  -45.6630   56.5320 N.am  537  THR537     -0.1951
     35  CA        10.1930  -44.8580   55.4240 C.3   537  THR537      0.1897
     36  C         10.8260  -43.5900   55.9880 C.2   537  THR537      0.2313
     37  O         10.2560  -42.9530   56.8740 O.2   537  THR537     -0.2863
     38  CB         9.0790  -44.4710   54.4310 C.3   537  THR537      0.1794
     39  OG1        8.4100  -45.6530   53.9820 O.3   537  THR537     -0.2208
     40  CG2        9.6470  -43.7270   53.2160 C.3   537  THR537      0.0378
     41  N          8.2290  -41.8360   58.4910 N.3   548  TYR548     -0.1227
     42  CA         6.8580  -42.3400   58.4710 C.3   548  TYR548      0.1736
     43  C          6.8570  -43.8160   58.8380 C.2   548  TYR548      0.2595
     44  O          7.6330  -44.5910   58.2760 O.2   548  TYR548     -0.2718
     45  CB         6.2480  -42.1800   57.0840 C.3   548  TYR548      0.0548
     46  CG         6.0060  -40.7470   56.6770 C.ar  548  TYR548     -0.0200
     47  CD1        7.0420  -39.9640   56.1760 C.ar  548  TYR548     -0.0009
     48  CD2        4.7390  -40.1730   56.7800 C.ar  548  TYR548     -0.0009
     49  CE1        6.8280  -38.6470   55.7970 C.ar  548  TYR548      0.0417
     50  CE2        4.5130  -38.8560   56.4010 C.ar  548  TYR548      0.0417
     51  CZ         5.5630  -38.0970   55.9110 C.ar  548  TYR548      0.1957
     52  OH         5.3430  -36.7920   55.5360 O.3   548  TYR548     -0.2866
     53  N          5.9840  -44.2020   59.7680 N.am  549  ALA549     -0.1966
     54  CA         5.8350  -45.6050   60.1640 C.3   549  ALA549      0.1728
     55  C          4.3910  -46.0850   60.0230 C.2   549  ALA549      0.2616
     56  O          3.4720  -45.4880   60.5880 O.2   549  ALA549     -0.2715
     57  CB         6.3310  -45.8180   61.5850 C.3   549  ALA549      0.0334
     58  N          4.2130  -47.1630   59.2520 N.am  550  ASN550     -0.1958
     59  CA         2.9220  -47.8380   59.0760 C.3   550  ASN550      0.1819
     60  C          1.7720  -46.9120   58.6330 C.2   550  ASN550      0.2621
     61  O          0.6190  -47.1240   59.0110 O.2   550  ASN550     -0.2715
     62  CB         2.5460  -48.5950   60.3630 C.3   550  ASN550      0.1195
     63  CG         3.5470  -49.6870   60.7230 C.2   550  ASN550      0.2630
     64  OD1        4.3980  -50.0640   59.9220 O.2   550  ASN550     -0.2716
     65  ND2        3.4400  -50.2070   61.9420 N.am  550  ASN550     -0.0877
     66  N          2.0940  -45.9010   57.8250 N.am  551  ASP551     -0.1971
     67  CA         1.1120  -44.9110   57.3530 C.3   551  ASP551      0.1709
     68  C          0.2870  -44.3050   58.4970 C.2   551  ASP551      0.2293
     69  O         -0.9140  -44.0590   58.3570 O.2   551  ASP551     -0.2864
     70  CB         0.1850  -45.5290   56.2860 C.3   551  ASP551      0.1436
     71  CG         0.9190  -45.8900   54.9960 C.2   551  ASP551      0.3671
     72  OD1        1.9630  -45.2850   54.6810 O.co2 551  ASP551     -0.2456
     73  OD2        0.4330  -46.7770   54.2690 O.co2 551  ASP551     -0.2456
     74  N         12.0190  -55.6160   51.7200 N.3   586  GLY586     -0.1225
     75  CA        11.4820  -54.4710   50.9860 C.3   586  GLY586      0.1811
     76  C         12.3970  -53.2580   51.0360 C.2   586  GLY586      0.2280
     77  O         11.9250  -52.1230   51.0040 O.2   586  GLY586     -0.2866
@<TRIPOS>BOND
     1     7     5    1
     2    75    76    1
     3    75    74    1
     4    77    76    2
     5     5     6    1
     6     5     2    1
     7     1     2    1
     8     4     3    2
     9     2     3    1
    10    40    38    1
    11     3     8   am
    12    39    38    1
    13    73    71   ar
    14     8     9    1
    15    38    35    1
    16    72    71   ar
    17    17    16    1
    18     9    10    1
    19    71    70    1
    20    35    36    1
    21    35    34    1
    22    52    51    1
    23    12    10   am
    24    12    13    1
    25    10    11    2
    26    16    13    1
    27    49    51   ar
    28    49    47   ar
    29    51    50   ar
    30    25    23   am
    31    36    37    2
    32    29    28    2
    33    47    46   ar
    34    70    67    1
    35    23    24    2
    36    23    22    1
    37    50    48   ar
    38    34    28   am
    39    13    14    1
    40    46    48   ar
    41    46    45    1
    42    28    27    1
    43    22    19    1
    44    45    42    1
    45    15    14    2
    46    67    66    1
    47    67    68    1
    48    26    20   am
    49    26    27    1
    50    19    20    1
    51    19    18    1
    52    66    60   am
    53    20    21    2
    54    27    30    1
    55    44    43    2
    56    69    68    2
    57    42    41    1
    58    42    43    1
    59    60    61    2
    60    60    59    1
    61    43    53   am
    62    30    31    1
    63    59    58    1
    64    59    62    1
    65    58    55   am
    66    53    54    1
    67    31    33    1
    68    31    32    1
    69    64    63    2
    70    55    54    1
    71    55    56    2
    72    54    57    1
    73    62    63    1
    74    63    65   am
