@<TRIPOS>MOLECULE
tmp/5nslA12.pdb
 97 95 0 0 0
SMALL
GASTEIGER

@<TRIPOS>ATOM
      1  N         12.0650  -18.8230   49.2730 N.3    33  PRO33      -0.2116
      2  CA        13.3380  -18.5100   48.6070 C.3    33  PRO33       0.1372
      3  C         14.4740  -18.1390   49.5660 C.2    33  PRO33       0.2244
      4  O         15.6240  -18.4830   49.3110 O.2    33  PRO33      -0.2868
      5  CB        12.9740  -17.3250   47.7090 C.3    33  PRO33       0.0268
      6  CG        11.5380  -17.5590   47.3900 C.3    33  PRO33       0.0207
      7  CD        10.9560  -18.0460   48.6880 C.3    33  PRO33       0.0892
      8  N          7.4720  -20.0240   42.2720 N.3    82  ASP82      -0.1225
      9  CA         7.1650  -18.8410   43.0750 C.3    82  ASP82       0.1805
     10  C          6.2880  -17.8780   42.2970 C.2    82  ASP82       0.2598
     11  O          6.4700  -17.7100   41.0890 O.2    82  ASP82      -0.2718
     12  CB         8.4420  -18.0900   43.4530 C.3    82  ASP82       0.1424
     13  CG         9.3580  -18.8990   44.3380 C.2    82  ASP82       0.3668
     14  OD1        8.9730  -19.1990   45.4840 O.co2  82  ASP82      -0.2456
     15  OD2       10.4720  -19.2350   43.8940 O.co2  82  ASP82      -0.2456
     16  N          5.3500  -17.2350   42.9890 N.am   83  PHE83      -0.1962
     17  CA         4.7380  -16.0170   42.4640 C.3    83  PHE83       0.1771
     18  C          5.8030  -14.9160   42.4840 C.2    83  PHE83       0.2619
     19  O          6.7560  -14.9700   43.2690 O.2    83  PHE83      -0.2715
     20  CB         3.4960  -15.6040   43.2680 C.3    83  PHE83       0.0574
     21  CG         2.2980  -16.4910   43.0330 C.ar   83  PHE83      -0.0200
     22  CD1        1.4780  -16.2980   41.9260 C.ar   83  PHE83      -0.0042
     23  CD2        1.9900  -17.5220   43.9140 C.ar   83  PHE83      -0.0042
     24  CE1        0.3760  -17.1150   41.7060 C.ar   83  PHE83      -0.0003
     25  CE2        0.8920  -18.3440   43.7000 C.ar   83  PHE83      -0.0003
     26  CZ         0.0810  -18.1390   42.5940 C.ar   83  PHE83      -0.0000
     27  N          5.6500  -13.9410   41.5960 N.am   84  ASN84      -0.1972
     28  CA         6.5860  -12.8270   41.4780 C.3    84  ASN84       0.1688
     29  C          5.7780  -11.6050   41.0720 C.2    84  ASN84       0.2292
     30  O          5.2970  -11.5170   39.9520 O.2    84  ASN84      -0.2864
     31  CB         7.6880  -13.1360   40.4560 C.3    84  ASN84       0.1181
     32  CG         8.7990  -12.0900   40.4400 C.2    84  ASN84       0.2629
     33  OD1        9.1080  -11.4750   41.4600 O.2    84  ASN84      -0.2716
     34  ND2        9.4130  -11.8970   39.2760 N.am   84  ASN84      -0.0877
     35  N          7.7920   -9.1210   45.3010 N.3    88  GLY88      -0.1210
     36  CA         8.5000  -10.3770   45.0900 C.3    88  GLY88       0.1956
     37  C          7.5560  -11.5570   45.2060 C.2    88  GLY88       0.2611
     38  O          6.5360  -11.6080   44.5200 O.2    88  GLY88      -0.2717
     39  N          7.8770  -12.4760   46.1130 N.am   89  TYR89      -0.1976
     40  CA         7.0690  -13.6810   46.3230 C.3    89  TYR89       0.1639
     41  C          5.9730  -13.5210   47.3840 C.2    89  TYR89       0.2290
     42  O          5.2150  -14.4620   47.6240 O.2    89  TYR89      -0.2864
     43  CB         7.9610  -14.8910   46.6330 C.3    89  TYR89       0.0560
     44  CG         8.8280  -14.7650   47.8690 C.ar   89  TYR89      -0.0198
     45  CD1        8.3180  -15.0480   49.1330 C.ar   89  TYR89      -0.0009
     46  CD2       10.1650  -14.3770   47.7710 C.ar   89  TYR89      -0.0009
     47  CE1        9.1110  -14.9470   50.2670 C.ar   89  TYR89       0.0417
     48  CE2       10.9670  -14.2720   48.8980 C.ar   89  TYR89       0.0417
     49  CZ        10.4370  -14.5590   50.1430 C.ar   89  TYR89       0.1957
     50  OH        11.2250  -14.4630   51.2650 O.3    89  TYR89      -0.2866
     51  N         13.3200  -23.4530   38.8830 N.3   599  ALA599     -0.1231
     52  CA        13.6360  -22.1020   38.4150 C.3   599  ALA599      0.1694
     53  C         14.5690  -21.3290   39.3510 C.2   599  ALA599      0.2592
     54  O         15.1460  -20.3240   38.9350 O.2   599  ALA599     -0.2718
     55  CB        12.3620  -21.3080   38.1740 C.3   599  ALA599      0.0304
     56  N         14.7160  -21.7810   40.5980 N.am  600  ARG600     -0.1966
     57  CA        15.5860  -21.1050   41.5590 C.3   600  ARG600      0.1714
     58  C         17.0380  -21.5300   41.3770 C.2   600  ARG600      0.2458
     59  O         17.3060  -22.7210   41.2230 O.2   600  ARG600     -0.2730
     60  CB        15.1870  -21.4360   42.9950 C.3   600  ARG600      0.0347
     61  CG        13.8800  -20.8270   43.4620 C.3   600  ARG600      0.0492
     62  CD        13.6880  -21.1570   44.9290 C.3   600  ARG600      0.2205
     63  NE        12.3690  -20.7970   45.4450 N.pl3 600  ARG600     -0.0865
     64  CZ        11.8790  -21.2030   46.6180 C.cat 600  ARG600      0.5346
     65  NH1       12.5850  -22.0040   47.4160 N.pl3 600  ARG600      0.1354
     66  NH2       10.6620  -20.8260   47.0010 N.pl3 600  ARG600      0.1354
     67  N         17.9820  -20.5680   41.4360 N.am  601  PRO601     -0.2727
     68  CA        19.3850  -20.9660   41.5650 C.3   601  PRO601      0.1402
     69  C         19.6620  -21.5520   42.9510 C.2   601  PRO601      0.2269
     70  O         18.7930  -21.5090   43.8300 O.2   601  PRO601     -0.2865
     71  CB        20.1470  -19.6530   41.3600 C.3   601  PRO601      0.0296
     72  CG        19.1930  -18.5910   41.7620 C.3   601  PRO601      0.0237
     73  CD        17.8270  -19.1010   41.4090 C.3   601  PRO601      0.0939
     74  N         21.6850  -20.5090   45.3430 N.3   603  ASN603     -0.1225
     75  CA        21.6670  -19.4510   46.3490 C.3   603  ASN603      0.1785
     76  C         20.6570  -18.3670   45.9680 C.2   603  ASN603      0.2597
     77  O         20.9300  -17.5230   45.1100 O.2   603  ASN603     -0.2718
     78  CB        23.0690  -18.8510   46.5200 C.3   603  ASN603      0.1169
     79  CG        23.1380  -17.8260   47.6410 C.2   603  ASN603      0.2627
     80  OD1       22.1670  -17.6150   48.3710 O.2   603  ASN603     -0.2716
     81  ND2       24.2930  -17.1850   47.7830 N.am  603  ASN603     -0.0877
     82  N         19.4940  -18.4030   46.6190 N.am  604  THR604     -0.1953
     83  CA        18.4470  -17.3860   46.4540 C.3   604  THR604      0.1897
     84  C         18.4090  -16.3450   47.5880 C.2   604  THR604      0.2313
     85  O         17.4270  -15.6100   47.7220 O.2   604  THR604     -0.2863
     86  CB        17.0600  -18.0560   46.2950 C.3   604  THR604      0.1794
     87  OG1       16.9330  -19.1390   47.2230 O.3   604  THR604     -0.2208
     88  CG2       16.9000  -18.5980   44.8960 C.3   604  THR604      0.0378
     89  N         18.9340  -12.8490   49.3140 N.3   606  GLN606     -0.1245
     90  CA        18.9800  -11.4460   48.8990 C.3   606  GLN606      0.1566
     91  C         19.6520  -10.5960   49.9770 C.2   606  GLN606      0.2260
     92  O         19.4980   -9.3760   49.9970 O.2   606  GLN606     -0.2867
     93  CB        17.5620  -10.9340   48.6300 C.3   606  GLN606      0.0367
     94  CG        16.8460  -11.6520   47.4960 C.3   606  GLN606      0.0905
     95  CD        17.4800  -11.4090   46.1400 C.2   606  GLN606      0.2608
     96  OE1       18.0760  -10.3600   45.8900 O.2   606  GLN606     -0.2717
     97  NE2       17.3470  -12.3830   45.2490 N.am  606  GLN606     -0.0878
@<TRIPOS>BOND
     1    55    52    1
     2    52    51    1
     3    52    53    1
     4    54    53    2
     5    34    32   am
     6    53    56   am
     7    30    29    2
     8    32    31    1
     9    32    33    2
    10    31    28    1
    11    56    57    1
    12    29    28    1
    13    11    10    2
    14    59    58    2
    15    71    68    1
    16    71    72    1
    17    58    67   am
    18    58    57    1
    19    73    67    1
    20    73    72    1
    21    67    68    1
    22    28    27    1
    23    57    60    1
    24    68    69    1
    25    27    18   am
    26    24    22   ar
    27    24    26   ar
    28    22    21   ar
    29     8     9    1
    30    10    16   am
    31    10     9    1
    32    17    18    1
    33    17    16    1
    34    17    20    1
    35    18    19    2
    36    26    25   ar
    37    69    70    2
    38    60    61    1
    39    21    20    1
    40    21    23   ar
    41     9    12    1
    42    12    13    1
    43    61    62    1
    44    25    23   ar
    45    15    13   ar
    46    13    14   ar
    47    38    37    2
    48    88    86    1
    49    62    63    1
    50    36    37    1
    51    36    35    1
    52    77    76    2
    53    37    39   am
    54    97    95   am
    55    74    75    1
    56    63    64    2
    57    96    95    2
    58    76    75    1
    59    76    82   am
    60    39    40    1
    61    95    94    1
    62    86    83    1
    63    86    87    1
    64    40    43    1
    65    40    41    1
    66    75    78    1
    67    83    82    1
    68    83    84    1
    69    78    79    1
    70    64    66    1
    71    64    65    1
    72    43    44    1
    73    41    42    2
    74     6     5    1
    75     6     7    1
    76    94    93    1
    77    84    85    2
    78    79    81   am
    79    79    80    2
    80     5     2    1
    81    46    44   ar
    82    46    48   ar
    83    44    45   ar
    84     2     1    1
    85     2     3    1
    86    93    90    1
    87     7     1    1
    88    48    49   ar
    89    90    89    1
    90    90    91    1
    91    45    47   ar
    92     4     3    2
    93    91    92    2
    94    49    47   ar
    95    49    50    1
