@<TRIPOS>MOLECULE
tmp/5nspC00.pdb
 170 170 0 0 0
SMALL
GASTEIGER

@<TRIPOS>ATOM
      1  N          4.2610   -9.4700   11.8590 N.3    80  HIS80      -0.1226
      2  CA         4.4930   -9.0230   13.2100 C.3    80  HIS80       0.1752
      3  C          4.9350  -10.2260   14.0400 C.2    80  HIS80       0.2597
      4  O          4.2130  -11.2390   14.0740 O.2    80  HIS80      -0.2718
      5  CB         3.2270   -8.3950   13.8230 C.3    80  HIS80       0.0759
      6  CG         3.4110   -8.0090   15.2520 C.ar   80  HIS80       0.0818
      7  ND1        3.8330   -6.7510   15.6310 N.ar   80  HIS80      -0.2268
      8  CD2        3.3090   -8.7400   16.3910 C.ar   80  HIS80       0.1154
      9  CE1        3.9740   -6.7280   16.9510 C.ar   80  HIS80       0.1986
     10  NE2        3.6670   -7.9250   17.4340 N.ar   80  HIS80      -0.2212
     11  N          6.0830  -10.1090   14.7000 N.am   81  GLY81      -0.1942
     12  CA         6.5180  -11.0890   15.6740 C.3    81  GLY81       0.2014
     13  C          6.5820  -10.5430   17.0870 C.2    81  GLY81       0.2640
     14  O          7.1130   -9.4550   17.3260 O.2    81  GLY81      -0.2714
     15  N          6.0440  -11.2770   18.0440 N.am   82  SER82      -0.1936
     16  CA         6.2510  -10.8990   19.4460 C.3    82  SER82       0.2040
     17  C          5.8740  -12.0490   20.3170 C.2    82  SER82       0.2485
     18  O          5.1690  -12.9350   19.8600 O.2    82  SER82      -0.2729
     19  CB         5.4110   -9.6920   19.8410 C.3    82  SER82       0.2129
     20  OG         4.0430   -9.9350   19.6440 O.3    82  SER82      -0.2179
     21  N          6.2710  -12.0120   21.5940 N.am   83  PRO83      -0.2715
     22  CA         5.7690  -13.0600   22.4750 C.3    83  PRO83       0.1536
     23  C          4.2720  -12.9250   22.8160 C.2    83  PRO83       0.2598
     24  O          3.7810  -13.7440   23.5050 O.2    83  PRO83      -0.2715
     25  CB         6.6180  -12.8960   23.7480 C.3    83  PRO83       0.0310
     26  CG         7.6460  -11.8630   23.4430 C.3    83  PRO83       0.0237
     27  CD         7.0780  -11.0300   22.3390 C.3    83  PRO83       0.0939
     28  N          3.5510  -11.9300   22.3100 N.am   84  PHE84      -0.1974
     29  CA         2.2060  -11.6210   22.7950 C.3    84  PHE84       0.1639
     30  C          1.0940  -11.9780   21.7830 C.2    84  PHE84       0.2290
     31  O         -0.0450  -11.5040   21.8770 O.2    84  PHE84      -0.2864
     32  CB         2.1800  -10.1350   23.1820 C.3    84  PHE84       0.0560
     33  CG         3.3170   -9.7400   24.0910 C.ar   84  PHE84      -0.0200
     34  CD1        3.4930  -10.3810   25.3260 C.ar   84  PHE84      -0.0042
     35  CD2        4.2360   -8.7520   23.7120 C.ar   84  PHE84      -0.0042
     36  CE1        4.5350  -10.0250   26.1740 C.ar   84  PHE84      -0.0003
     37  CE2        5.2730   -8.3830   24.5650 C.ar   84  PHE84      -0.0003
     38  CZ         5.4170   -9.0160   25.7930 C.ar   84  PHE84      -0.0000
     39  N         -2.4360  -12.7180   23.2090 N.3    87  ALA87      -0.1231
     40  CA        -3.2040  -11.5470   23.5440 C.3    87  ALA87       0.1694
     41  C         -3.6420  -10.7890   22.3050 C.2    87  ALA87       0.2591
     42  O         -4.7300  -10.2230   22.2890 O.2    87  ALA87      -0.2718
     43  CB        -2.4010  -10.6250   24.4440 C.3    87  ALA87       0.0304
     44  N         -2.7960  -10.7310   21.2810 N.am   88  ILE88      -0.1980
     45  CA        -3.1070   -9.8820   20.1580 C.3    88  ILE88       0.1595
     46  C         -4.3330  -10.3920   19.3940 C.2    88  ILE88       0.2287
     47  O         -5.2380   -9.6040   18.9980 O.2    88  ILE88      -0.2864
     48  CB        -1.9150   -9.7290   19.2230 C.3    88  ILE88       0.0276
     49  CG1       -0.8220   -8.9040   19.9080 C.3    88  ILE88       0.0022
     50  CG2       -2.3220   -9.0280   17.9290 C.3    88  ILE88       0.0022
     51  CD1        0.5320   -8.9290   19.1860 C.3    88  ILE88       0.0001
     52  N         -7.5970   -9.8850   21.9790 N.3    91  LYS91      -0.1231
     53  CA        -7.9120   -8.5290   22.4860 C.3    91  LYS91       0.1693
     54  C         -7.4900   -7.3890   21.5710 C.2    91  LYS91       0.2593
     55  O         -7.8260   -6.2480   21.8420 O.2    91  LYS91      -0.2718
     56  CB        -7.3010   -8.2780   23.8660 C.3    91  LYS91       0.0285
     57  CG        -7.6110   -9.3330   24.9250 C.3    91  LYS91       0.0035
     58  CD        -7.0800   -8.8900   26.3030 C.3    91  LYS91       0.0206
     59  CE        -6.6890  -10.0580   27.2310 C.3    91  LYS91       0.1093
     60  NZ        -5.2810  -10.5790   27.0890 N.3    91  LYS91      -0.1314
     61  N         -6.7720   -7.6830   20.4910 N.am   92  GLY92      -0.1942
     62  CA        -6.4050   -6.6580   19.5050 C.3    92  GLY92       0.2014
     63  C         -5.0200   -6.1220   19.7690 C.2    92  GLY92       0.2639
     64  O         -4.4340   -6.3750   20.8420 O.2    92  GLY92      -0.2714
     65  N         -4.4700   -5.3730   18.8170 N.am   93  PHE93      -0.1959
     66  CA        -3.1880   -4.6950   19.0950 C.3    93  PHE93       0.1771
     67  C         -3.5370   -3.5640   20.0040 C.2    93  PHE93       0.2619
     68  O         -4.5880   -2.9250   19.8340 O.2    93  PHE93      -0.2715
     69  CB        -2.5310   -4.1350   17.8510 C.3    93  PHE93       0.0574
     70  CG        -1.8330   -5.1570   17.0140 C.ar   93  PHE93      -0.0200
     71  CD1       -0.5780   -5.5790   17.3470 C.ar   93  PHE93      -0.0042
     72  CD2       -2.4320   -5.6590   15.8770 C.ar   93  PHE93      -0.0042
     73  CE1        0.0770   -6.4740   16.5430 C.ar   93  PHE93      -0.0003
     74  CE2       -1.8090   -6.5780   15.1010 C.ar   93  PHE93      -0.0003
     75  CZ        -0.5490   -6.9730   15.4150 C.ar   93  PHE93      -0.0000
     76  N         -2.6600   -3.3190   20.9590 N.am   94  ASP94      -0.1971
     77  CA        -2.9180   -2.3830   22.0450 C.3    94  ASP94       0.1709
     78  C         -1.6660   -1.5230   22.2980 C.2    94  ASP94       0.2293
     79  O         -0.6750   -1.9990   22.8910 O.2    94  ASP94      -0.2864
     80  CB        -3.2680   -3.1950   23.2900 C.3    94  ASP94       0.1436
     81  CG        -3.8960   -2.3710   24.3640 C.2    94  ASP94       0.3671
     82  OD1       -3.6830   -1.1440   24.3870 O.co2  94  ASP94      -0.2456
     83  OD2       -4.6060   -2.9730   25.1980 O.co2  94  ASP94      -0.2456
     84  N          0.6260   -1.3420   25.5400 N.3    97  HIS97      -0.1226
     85  CA         1.7040   -2.3130   25.7850 C.3    97  HIS97       0.1752
     86  C          2.9040   -2.1730   24.8550 C.2    97  HIS97       0.2596
     87  O          3.8070   -3.0220   24.9000 O.2    97  HIS97      -0.2718
     88  CB         1.1980   -3.7370   25.6400 C.3    97  HIS97       0.0759
     89  CG         0.1250   -4.0930   26.6040 C.ar   97  HIS97       0.0818
     90  ND1        0.3550   -4.8860   27.7030 N.ar   97  HIS97      -0.2268
     91  CD2       -1.1950   -3.7880   26.6220 C.ar   97  HIS97       0.1154
     92  CE1       -0.7800   -5.0530   28.3610 C.ar   97  HIS97       0.1986
     93  NE2       -1.7340   -4.3940   27.7280 N.ar   97  HIS97      -0.2212
     94  N          2.9200   -1.1320   24.0190 N.am   98  ALA98      -0.1966
     95  CA         3.9790   -0.9270   23.0090 C.3    98  ALA98       0.1728
     96  C          4.9420    0.1800   23.4170 C.2    98  ALA98       0.2616
     97  O          5.1930    1.1040   22.6350 O.2    98  ALA98      -0.2715
     98  CB         3.3490   -0.6030   21.6610 C.3    98  ALA98       0.0334
     99  N          5.4870    0.0620   24.6340 N.am   99  TYR99      -0.1960
    100  CA         6.2000    1.1740   25.3100 C.3    99  TYR99       0.1771
    101  C          7.7150    1.0190   25.3140 C.2    99  TYR99       0.2619
    102  O          8.4410    1.9650   25.6650 O.2    99  TYR99      -0.2715
    103  CB         5.6780    1.3780   26.7510 C.3    99  TYR99       0.0574
    104  CG         5.9190    0.2190   27.7250 C.ar   99  TYR99      -0.0198
    105  CD1        5.0230   -0.8680   27.8000 C.ar   99  TYR99      -0.0009
    106  CD2        7.0290    0.2190   28.5900 C.ar   99  TYR99      -0.0009
    107  CE1        5.2420   -1.9180   28.6820 C.ar   99  TYR99       0.0417
    108  CE2        7.2450   -0.8300   29.4760 C.ar   99  TYR99       0.0417
    109  CZ         6.3520   -1.8850   29.5110 C.ar   99  TYR99       0.1957
    110  OH         6.5620   -2.9010   30.3780 O.3    99  TYR99      -0.2866
    111  N          8.1840   -0.1750   24.9390 N.am  100  ILE100     -0.1977
    112  CA         9.5930   -0.4030   24.7570 C.3   100  ILE100      0.1596
    113  C          9.9600    0.3680   23.4750 C.2   100  ILE100      0.2287
    114  O          9.3570    0.1660   22.3880 O.2   100  ILE100     -0.2864
    115  CB         9.9430   -1.9200   24.7810 C.3   100  ILE100      0.0276
    116  CG1        9.5400   -2.5040   26.1680 C.3   100  ILE100      0.0022
    117  CG2       11.4270   -2.1540   24.4640 C.3   100  ILE100      0.0022
    118  CD1        9.9880   -3.9280   26.4950 C.3   100  ILE100      0.0001
    119  N         11.9380    1.1150   20.4770 N.3   102  GLY102     -0.1225
    120  CA        12.8380    0.7050   19.3970 C.3   102  GLY102      0.1811
    121  C         13.5030    1.8730   18.6580 C.2   102  GLY102      0.2280
    122  O         13.4690    3.0270   19.0800 O.2   102  GLY102     -0.2866
    123  N          6.0000    2.1050   19.7540 N.3   107  GLY107     -0.1210
    124  CA         4.7470    1.8920   19.0550 C.3   107  GLY107      0.1956
    125  C          4.7900    0.4580   18.6630 C.2   107  GLY107      0.2612
    126  O          5.6060   -0.3100   19.1730 O.2   107  GLY107     -0.2717
    127  N          3.9430    0.0960   17.7300 N.am  108  ILE108     -0.1965
    128  CA         3.8150   -1.2800   17.3350 C.3   108  ILE108      0.1727
    129  C          4.5370   -1.4030   16.0250 C.2   108  ILE108      0.2616
    130  O          4.2010   -0.6940   15.0620 O.2   108  ILE108     -0.2715
    131  CB         2.3520   -1.6580   17.1790 C.3   108  ILE108      0.0290
    132  CG1        1.5870   -1.1650   18.4250 C.3   108  ILE108      0.0022
    133  CG2        2.2300   -3.1740   16.9430 C.3   108  ILE108      0.0023
    134  CD1        0.1420   -1.5560   18.4780 C.3   108  ILE108      0.0001
    135  N          5.5150   -2.3060   16.0050 N.am  109  TYR109     -0.1974
    136  CA         6.3560   -2.5220   14.8510 C.3   109  TYR109      0.1639
    137  C          5.8510   -3.6470   13.9740 C.2   109  TYR109      0.2290
    138  O          5.2790   -4.6230   14.4770 O.2   109  TYR109     -0.2864
    139  CB         7.7760   -2.8710   15.2720 C.3   109  TYR109      0.0560
    140  CG         8.5680   -1.6770   15.7390 C.ar  109  TYR109     -0.0198
    141  CD1        8.1110   -0.8830   16.7740 C.ar  109  TYR109     -0.0009
    142  CD2        9.7960   -1.3600   15.1540 C.ar  109  TYR109     -0.0009
    143  CE1        8.8400    0.1990   17.2180 C.ar  109  TYR109      0.0417
    144  CE2       10.5450   -0.2850   15.6010 C.ar  109  TYR109      0.0417
    145  CZ        10.0620    0.5070   16.6330 C.ar  109  TYR109      0.1957
    146  OH        10.7840    1.6100   17.0710 O.3   109  TYR109     -0.2866
    147  N         11.9270  -11.3210   16.8690 N.3   120  TYR120     -0.1241
    148  CA        11.1980  -10.8360   18.0460 C.3   120  TYR120      0.1605
    149  C         10.1950  -11.8450   18.6620 C.2   120  TYR120      0.2264
    150  O          9.6590  -11.6520   19.7410 O.2   120  TYR120     -0.2867
    151  CB        10.4550   -9.5210   17.6980 C.3   120  TYR120      0.0534
    152  CG        11.4240   -8.3740   17.4260 C.ar  120  TYR120     -0.0201
    153  CD1       12.0030   -8.2050   16.2030 C.ar  120  TYR120     -0.0009
    154  CD2       11.7750   -7.4910   18.4280 C.ar  120  TYR120     -0.0009
    155  CE1       12.9230   -7.1940   15.9820 C.ar  120  TYR120      0.0417
    156  CE2       12.6960   -6.4800   18.2070 C.ar  120  TYR120      0.0417
    157  CZ        13.2720   -6.3570   16.9820 C.ar  120  TYR120      0.1957
    158  OH        14.1680   -5.3550   16.7940 O.3   120  TYR120     -0.2866
    159  N         10.8680  -12.5140   22.0760 N.3   123  GLY123     -0.1210
    160  CA        11.3030  -11.3040   22.7900 C.3   123  GLY123      0.1956
    161  C         12.2060  -10.3620   22.0120 C.2   123  GLY123      0.2611
    162  O         12.6280  -10.6560   20.9140 O.2   123  GLY123     -0.2717
    163  N         12.5240   -9.2170   22.6130 N.am  124  ILE124     -0.1979
    164  CA        13.4630   -8.2730   22.0510 C.3   124  ILE124      0.1595
    165  C         14.8230   -8.9530   22.0280 C.2   124  ILE124      0.2287
    166  O         15.2340   -9.5170   23.0650 O.2   124  ILE124     -0.2864
    167  CB        13.6570   -7.0230   22.9470 C.3   124  ILE124      0.0276
    168  CG1       12.3360   -6.2760   23.2600 C.3   124  ILE124      0.0022
    169  CG2       14.7090   -6.0850   22.3260 C.3   124  ILE124      0.0022
    170  CD1       11.6750   -5.5800   22.0940 C.3   124  ILE124      0.0001
@<TRIPOS>BOND
     1     1     2    1
     2     2     5    1
     3     2     3    1
     4     5     6    1
     5   137   138    2
     6   137   136    1
     7     3     4    2
     8     3    11   am
     9    11    12    1
    10   136   139    1
    11   136   135    1
    12   130   129    2
    13    74    75   ar
    14    74    72   ar
    15   142   144   ar
    16   142   140   ar
    17     6     7   ar
    18     6     8   ar
    19   139   140    1
    20    75    73   ar
    21   144   145   ar
    22     7     9   ar
    23    12    13    1
    24   140   141   ar
    25    72    70   ar
    26   155   153   ar
    27   155   157   ar
    28   135   129   am
    29   129   128    1
    30   153   152   ar
    31     8    10   ar
    32    73    71   ar
    33   145   146    1
    34   145   143   ar
    35   141   143   ar
    36   158   157    1
    37   147   148    1
    38   133   131    1
    39     9    10   ar
    40   157   156   ar
    41    70    71   ar
    42    70    69    1
    43    13    14    2
    44    13    15   am
    45   131   128    1
    46   131   132    1
    47   128   127    1
    48   152   151    1
    49   152   154   ar
    50   151   148    1
    51   127   125   am
    52    69    66    1
    53    50    48    1
    54    15    16    1
    55   148   149    1
    56   156   154   ar
    57   132   134    1
    58   121   122    2
    59   121   120    1
    60   149   150    2
    61   125   124    1
    62   125   126    2
    63    65    66    1
    64    65    63   am
    65    47    46    2
    66   124   123    1
    67    66    67    1
    68    51    49    1
    69    48    49    1
    70    48    45    1
    71    46    45    1
    72   120   119    1
    73    16    19    1
    74    16    17    1
    75    62    63    1
    76    62    61    1
    77    20    19    1
    78    63    64    2
    79    68    67    2
    80    18    17    2
    81    67    76   am
    82    45    44    1
    83    17    21   am
    84    61    54   am
    85   162   161    2
    86    76    77    1
    87    44    41   am
    88    54    55    2
    89    54    53    1
    90    21    27    1
    91    21    22    1
    92    98    95    1
    93    30    31    2
    94    30    29    1
    95    52    53    1
    96   161   163   am
    97   161   160    1
    98   165   164    1
    99   165   166    2
   100    77    78    1
   101    77    80    1
   102   164   163    1
   103   164   167    1
   104   159   160    1
   105   170   168    1
   106    42    41    2
   107    78    79    2
   108    41    40    1
   109    28    29    1
   110    28    23   am
   111   169   167    1
   112    27    26    1
   113   114   113    2
   114    22    23    1
   115    22    25    1
   116    53    56    1
   117    97    96    2
   118    29    32    1
   119    23    24    2
   120   167   168    1
   121    95    96    1
   122    95    94    1
   123    32    33    1
   124    39    40    1
   125    80    81    1
   126    96    99   am
   127    26    25    1
   128   113   112    1
   129    40    43    1
   130    35    33   ar
   131    35    37   ar
   132    56    57    1
   133    94    86   am
   134    33    34   ar
   135    81    82   ar
   136    81    83   ar
   137   117   115    1
   138    37    38   ar
   139    99   100    1
   140   112   115    1
   141   112   111    1
   142   115   116    1
   143    86    87    2
   144    86    85    1
   145    57    58    1
   146   111   101   am
   147   100   101    1
   148   100   103    1
   149   101   102    2
   150    34    36   ar
   151    84    85    1
   152    88    85    1
   153    88    89    1
   154    38    36   ar
   155   116   118    1
   156    58    59    1
   157    89    91   ar
   158    89    90   ar
   159    91    93   ar
   160   103   104    1
   161    60    59    1
   162    90    92   ar
   163   104   105   ar
   164   104   106   ar
   165    93    92   ar
   166   105   107   ar
   167   106   108   ar
   168   107   109   ar
   169   108   109   ar
   170   109   110    1
