@<TRIPOS>MOLECULE
tmp/5nsqE00.pdb
 192 182 0 0 0
SMALL
GASTEIGER

@<TRIPOS>ATOM
      1  N        -30.5360   33.1180  154.0050 N.3   286  LYS286     -0.1197
      2  CA       -29.7060   32.0320  153.4590 C.3   286  LYS286      0.1778
      3  C        -29.3270   32.4290  152.0550 C.2   286  LYS286      0.2305
      4  O        -30.1940   32.5630  151.1880 O.2   286  LYS286     -0.2863
      5  CB       -30.4440   30.6740  153.4260 C.2   286  LYS286     -0.0042
      6  CG       -29.6790   29.5250  152.7400 C.2   286  LYS286     -0.0273
      7  CD       -30.4880   28.2310  152.5390 C.3   286  LYS286      0.0462
      8  CE       -29.6460   27.1650  151.8320 C.3   286  LYS286      0.1140
      9  NZ       -30.3270   25.9170  151.3670 N.3   286  LYS286     -0.1310
     10  N        -26.1750   25.4100  145.5430 N.3   291  ASP291     -0.1239
     11  CA       -26.1590   24.2650  146.4860 C.3   291  ASP291      0.1674
     12  C        -25.9350   23.0020  145.6570 C.2   291  ASP291      0.2266
     13  O        -26.8820   22.4020  145.1550 O.2   291  ASP291     -0.2867
     14  CB       -27.4720   24.1740  147.2970 C.3   291  ASP291      0.1410
     15  CG       -27.4000   23.1770  148.4940 C.2   291  ASP291      0.3668
     16  OD1      -26.3990   22.4350  148.5670 O.co2 291  ASP291     -0.2456
     17  OD2      -28.3730   23.1290  149.3790 O.co2 291  ASP291     -0.2456
     18  N        -25.5160   16.1010  145.3380 N.3   298  LYS298     -0.1231
     19  CA       -26.8850   15.9220  144.8650 C.3   298  LYS298      0.1678
     20  C        -26.8680   15.2070  143.5300 C.2   298  LYS298      0.2434
     21  O        -25.9180   15.3780  142.7490 O.2   298  LYS298     -0.2733
     22  CB       -27.5900   17.2460  144.6500 C.3   298  LYS298      0.0284
     23  CG       -27.7730   18.0970  145.8820 C.3   298  LYS298      0.0035
     24  CD       -28.4780   19.3780  145.4950 C.3   298  LYS298      0.0206
     25  CE       -28.8090   20.2370  146.6970 C.3   298  LYS298      0.1093
     26  NZ       -29.9450   19.6980  147.4870 N.3   298  LYS298     -0.1314
     27  N        -27.8980   14.3800  143.2720 N.am  299  PRO299     -0.2729
     28  CA       -28.0500   13.8530  141.9240 C.3   299  PRO299      0.1401
     29  C        -28.4710   14.9690  140.9930 C.2   299  PRO299      0.2269
     30  O        -29.1680   15.8710  141.4100 O.2   299  PRO299     -0.2865
     31  CB       -29.1680   12.8050  142.0680 C.3   299  PRO299      0.0296
     32  CG       -29.3170   12.5500  143.5350 C.3   299  PRO299      0.0237
     33  CD       -28.8920   13.8090  144.2060 C.3   299  PRO299      0.0939
     34  N        -32.0750   16.8190  141.1740 N.3   302  TYR302     -0.1241
     35  CA       -32.2340   17.6830  142.3480 C.3   302  TYR302      0.1605
     36  C        -31.2500   18.8750  142.3890 C.2   302  TYR302      0.2264
     37  O        -31.5220   19.8430  143.0940 O.2   302  TYR302     -0.2867
     38  CB       -32.1380   16.8540  143.6380 C.3   302  TYR302      0.0534
     39  CG       -33.2120   15.7820  143.7090 C.ar  302  TYR302     -0.0201
     40  CD1      -34.5780   16.1290  143.6390 C.ar  302  TYR302     -0.0009
     41  CD2      -32.8740   14.4200  143.7970 C.ar  302  TYR302     -0.0009
     42  CE1      -35.5610   15.1580  143.6640 C.ar  302  TYR302      0.0417
     43  CE2      -33.8540   13.4400  143.8150 C.ar  302  TYR302      0.0417
     44  CZ       -35.1880   13.8180  143.7520 C.ar  302  TYR302      0.1957
     45  OH       -36.1660   12.8620  143.7850 O.3   302  TYR302     -0.2866
     46  N        -30.7210   24.8610  141.4570 N.3   306  MET306     -0.1245
     47  CA       -30.1590   25.1900  142.7770 C.3   306  MET306      0.1570
     48  C        -29.4540   26.5500  142.8200 C.2   306  MET306      0.2261
     49  O        -28.9560   26.9640  143.8640 O.2   306  MET306     -0.2867
     50  CB       -29.2360   24.0750  143.2760 C.3   306  MET306      0.0387
     51  CG       -29.9490   22.8670  143.8590 C.3   306  MET306      0.0595
     52  SD       -30.9830   23.1560  145.3150 S.3   306  MET306     -0.1393
     53  CE       -32.6000   23.3000  144.5400 C.3   306  MET306      0.0692
     54  N        -31.0810   28.6880  145.5160 N.3   309  ASP309     -0.1239
     55  CA       -30.8350   28.5130  146.9640 C.3   309  ASP309      0.1674
     56  C        -30.4380   29.7980  147.7180 C.2   309  ASP309      0.2266
     57  O        -30.4500   29.8690  148.9470 O.2   309  ASP309     -0.2867
     58  CB       -29.8290   27.3750  147.2270 C.3   309  ASP309      0.1410
     59  CG       -30.2200   26.5150  148.4170 C.2   309  ASP309      0.3668
     60  OD1      -31.4250   26.3420  148.6730 O.co2 309  ASP309     -0.2456
     61  OD2      -29.3350   25.9520  149.0860 O.co2 309  ASP309     -0.2456
     62  N        -24.6410   15.2430  157.2070 N.3   366  ASN366     -0.1240
     63  CA       -24.8520   15.3800  155.7760 C.3   366  ASN366      0.1653
     64  C        -24.5370   16.8110  155.3180 C.2   366  ASN366      0.2266
     65  O        -25.1990   17.7690  155.7210 O.2   366  ASN366     -0.2867
     66  CB       -26.2960   14.9890  155.4550 C.3   366  ASN366      0.1155
     67  CG       -26.5660   14.9070  153.9700 C.2   366  ASN366      0.2627
     68  OD1      -26.5360   15.9120  153.2650 O.2   366  ASN366     -0.2716
     69  ND2      -26.8420   13.7160  153.4860 N.am  366  ASN366     -0.0877
     70  N        -25.2010   18.3690  152.7260 N.3   368  ASP368     -0.1225
     71  CA       -26.2360   19.0520  151.9400 C.3   368  ASP368      0.1805
     72  C        -27.2650   19.8110  152.7850 C.2   368  ASP368      0.2598
     73  O        -27.9780   20.6720  152.2360 O.2   368  ASP368     -0.2718
     74  CB       -26.9570   18.0840  151.0000 C.3   368  ASP368      0.1424
     75  CG       -27.7620   18.8120  149.9120 C.2   368  ASP368      0.3668
     76  OD1      -27.8080   20.0790  149.9090 O.co2 368  ASP368     -0.2456
     77  OD2      -28.3420   18.1040  149.0570 O.co2 368  ASP368     -0.2456
     78  N        -27.3300   19.4860  154.0840 N.am  369  ALA369     -0.1966
     79  CA       -28.0290   20.3000  155.0890 C.3   369  ALA369      0.1728
     80  C        -27.1400   21.4580  155.5170 C.2   369  ALA369      0.2616
     81  O        -26.8130   21.6160  156.6930 O.2   369  ALA369     -0.2715
     82  CB       -28.3940   19.4530  156.2850 C.3   369  ALA369      0.0334
     83  N        -26.7410   22.2540  154.5230 N.am  370  GLU370     -0.1963
     84  CA       -25.7920   23.3610  154.6680 C.3   370  GLU370      0.1733
     85  C        -26.4920   24.6400  155.1440 C.2   370  GLU370      0.2617
     86  O        -25.8770   25.4890  155.7680 O.2   370  GLU370     -0.2715
     87  CB       -25.0680   23.6230  153.3350 C.3   370  GLU370      0.0429
     88  CG       -25.7470   24.5570  152.3320 C.3   370  GLU370      0.1163
     89  CD       -27.0160   23.9880  151.6840 C.2   370  GLU370      0.3649
     90  OE1      -27.1250   22.7180  151.5520 O.co2 370  GLU370     -0.2457
     91  OE2      -27.9320   24.7870  151.2530 O.co2 370  GLU370     -0.2457
     92  N        -27.7830   24.7520  154.8450 N.am  371  GLY371     -0.1940
     93  CA       -28.5000   25.9860  155.0160 C.3   371  GLY371      0.2014
     94  C        -28.6240   26.3640  156.4560 C.2   371  GLY371      0.2638
     95  O        -28.3920   27.5070  156.8330 O.2   371  GLY371     -0.2714
     96  N        -29.0060   25.4020  157.2760 N.am  372  ARG372     -0.1977
     97  CA       -29.1740   25.6810  158.7160 C.3   372  ARG372      0.1597
     98  C        -27.8670   26.0840  159.4300 C.2   372  ARG372      0.2287
     99  O        -27.8850   26.8930  160.3460 O.2   372  ARG372     -0.2864
    100  CB       -29.8630   24.4850  159.4070 C.3   372  ARG372      0.0334
    101  CG       -29.0370   23.2290  159.4980 C.3   372  ARG372      0.0492
    102  CD       -29.9290   22.0280  159.5750 C.3   372  ARG372      0.2205
    103  NE       -30.5750   21.8090  158.2870 N.pl3 372  ARG372     -0.0865
    104  CZ       -31.4830   20.8590  158.0290 C.cat 372  ARG372      0.5346
    105  NH1      -31.9180   20.0030  158.9760 N.pl3 372  ARG372      0.1354
    106  NH2      -31.9590   20.7780  156.7850 N.pl3 372  ARG372      0.1354
    107  N        -34.3580   29.1870  151.5170 N.3   398  THR398     -0.1203
    108  CA       -34.8880   28.1450  150.6560 C.3   398  THR398      0.1994
    109  C        -34.3860   26.8360  151.2120 C.2   398  THR398      0.2618
    110  O        -33.5410   26.1850  150.6270 O.2   398  THR398     -0.2717
    111  CB       -34.3740   28.3090  149.2330 C.3   398  THR398      0.1784
    112  OG1      -32.9570   28.5280  149.2860 O.3   398  THR398     -0.2211
    113  CG2      -35.0360   29.4800  148.5610 C.3   398  THR398      0.0376
    114  N        -34.9130   26.4730  152.3650 N.am  399  LEU399     -0.1965
    115  CA       -34.2120   25.5810  153.2750 C.3   399  LEU399      0.1728
    116  C        -34.4170   24.1100  153.0600 C.2   399  LEU399      0.2617
    117  O        -33.4470   23.3520  153.0250 O.2   399  LEU399     -0.2715
    118  CB       -34.5300   25.9300  154.7320 C.3   399  LEU399      0.0311
    119  CG       -33.5640   25.3340  155.7630 C.3   399  LEU399      0.0022
    120  CD1      -32.0800   25.5730  155.4710 C.3   399  LEU399      0.0001
    121  CD2      -33.9070   25.8910  157.1390 C.3   399  LEU399      0.0001
    122  N        -35.6580   23.6860  152.9510 N.am  400  THR400     -0.1937
    123  CA       -35.9620   22.2520  152.9230 C.3   400  THR400      0.2028
    124  C        -36.9560   21.8930  151.8380 C.2   400  THR400      0.2643
    125  O        -37.8870   22.6490  151.5510 O.2   400  THR400     -0.2714
    126  CB       -36.5610   21.7570  154.2760 C.3   400  THR400      0.1808
    127  OG1      -37.8440   22.3530  154.4790 O.3   400  THR400     -0.2208
    128  CG2      -35.6730   22.1350  155.4590 C.3   400  THR400      0.0379
    129  N        -36.7720   20.7030  151.2680 N.am  401  GLY401     -0.1939
    130  CA       -37.7620   20.0960  150.3830 C.3   401  GLY401      0.2014
    131  C        -39.0470   19.7470  151.1230 C.2   401  GLY401      0.2638
    132  O        -40.1460   19.8370  150.5520 O.2   401  GLY401     -0.2714
    133  N        -38.9050   19.3710  152.3930 N.am  402  ALA402     -0.1977
    134  CA       -40.0520   19.1350  153.2600 C.3   402  ALA402      0.1597
    135  C        -41.0920   20.2600  153.2140 C.2   402  ALA402      0.2287
    136  O        -42.2960   20.0200  153.3300 O.2   402  ALA402     -0.2864
    137  CB       -39.5700   18.9240  154.6840 C.3   402  ALA402      0.0319
    138  N        -43.6940   19.7040  150.6240 N.3   405  ILE405     -0.1245
    139  CA       -44.6010   18.6220  151.0040 C.3   405  ILE405      0.1561
    140  C        -45.6490   19.0830  152.0400 C.2   405  ILE405      0.2260
    141  O        -46.7830   18.6090  152.0200 O.2   405  ILE405     -0.2867
    142  CB       -43.8070   17.4120  151.4990 C.3   405  ILE405      0.0252
    143  CG1      -42.9730   16.8470  150.3510 C.3   405  ILE405      0.0019
    144  CG2      -44.7400   16.3330  152.0480 C.3   405  ILE405      0.0019
    145  CD1      -41.9560   15.7930  150.7500 C.3   405  ILE405      0.0001
    146  N        -28.6540   17.1560  161.3140 N.3   460  LEU460     -0.1231
    147  CA       -29.7400   16.4350  160.6490 C.3   460  LEU460      0.1693
    148  C        -30.4340   15.4380  161.5590 C.2   460  LEU460      0.2591
    149  O        -29.8370   14.8150  162.4100 O.2   460  LEU460     -0.2718
    150  CB       -29.2330   15.7280  159.3990 C.3   460  LEU460      0.0284
    151  CG       -30.2810   15.0860  158.4770 C.3   460  LEU460      0.0019
    152  CD1      -31.3400   16.0720  157.9140 C.3   460  LEU460      0.0001
    153  CD2      -29.5380   14.3580  157.3710 C.3   460  LEU460      0.0001
    154  N        -31.7330   15.3060  161.3400 N.am  461  MET461     -0.1979
    155  CA       -32.5720   14.4000  162.1160 C.3   461  MET461      0.1605
    156  C        -32.1060   12.9440  162.0660 C.2   461  MET461      0.2287
    157  O        -31.7120   12.4390  161.0230 O.2   461  MET461     -0.2864
    158  CB       -34.0280   14.4520  161.6150 C.3   461  MET461      0.0413
    159  CG       -34.8170   15.7330  161.8930 C.3   461  MET461      0.0598
    160  SD       -35.9460   16.1240  160.5350 S.3   461  MET461     -0.1393
    161  CE       -34.6730   16.6750  159.3310 C.3   461  MET461      0.0692
    162  N        -36.3310   10.5630  159.5430 N.3   464  ARG464     -0.1231
    163  CA       -36.7510   11.4300  158.4270 C.3   464  ARG464      0.1694
    164  C        -38.2270   11.9690  158.4860 C.2   464  ARG464      0.2592
    165  O        -38.4770   13.1650  158.1590 O.2   464  ARG464     -0.2718
    166  CB       -36.4330   10.7310  157.0770 C.3   464  ARG464      0.0321
    167  CG       -34.9430   10.3690  156.8640 C.3   464  ARG464      0.0489
    168  CD       -33.9630   11.5460  157.1440 C.3   464  ARG464      0.2205
    169  NE       -34.3060   12.7570  156.3930 N.pl3 464  ARG464     -0.0865
    170  CZ       -33.9640   12.9970  155.1250 C.cat 464  ARG464      0.5346
    171  NH1      -33.2350   12.1220  154.4320 N.pl3 464  ARG464      0.1354
    172  NH2      -34.4360   14.0770  154.5110 N.pl3 464  ARG464      0.1354
    173  N        -39.1740   11.1140  158.8820 N.am  465  ASP465     -0.1974
    174  CA       -40.5560   11.4750  158.8330 C.3   465  ASP465      0.1709
    175  C        -41.0070   12.0230  160.2030 C.2   465  ASP465      0.2293
    176  O        -41.8820   11.4360  160.8380 O.2   465  ASP465     -0.2864
    177  CB       -41.3430   10.2380  158.3620 C.3   465  ASP465      0.1436
    178  CG       -41.0950    9.8450  156.9550 C.2   465  ASP465      0.3671
    179  OD1      -40.6170   10.6890  156.1370 O.co2 465  ASP465     -0.2456
    180  OD2      -41.4490    8.6760  156.5870 O.co2 465  ASP465     -0.2456
    181  N        -40.0140   26.6810  147.8720 N.3   495  TYR495     -0.1241
    182  CA       -40.7850   26.6110  146.6450 C.3   495  TYR495      0.1605
    183  C        -41.4240   27.9210  146.1560 C.2   495  TYR495      0.2264
    184  O        -41.3910   28.1910  144.9460 O.2   495  TYR495     -0.2867
    185  CB       -41.7870   25.4700  146.7310 C.3   495  TYR495      0.0534
    186  CG       -41.0950   24.0970  146.5570 C.ar  495  TYR495     -0.0201
    187  CD1      -40.8870   23.5360  145.2810 C.ar  495  TYR495     -0.0009
    188  CD2      -40.6610   23.3700  147.6610 C.ar  495  TYR495     -0.0009
    189  CE1      -40.3000   22.2910  145.1230 C.ar  495  TYR495      0.0417
    190  CE2      -40.0640   22.1320  147.5110 C.ar  495  TYR495      0.0417
    191  CZ       -39.8780   21.5970  146.2380 C.ar  495  TYR495      0.1957
    192  OH       -39.2810   20.3630  146.1370 O.3   495  TYR495     -0.2866
@<TRIPOS>BOND
     1    29    30    2
     2    29    28    1
     3    34    35    1
     4    46    47    1
     5    28    31    1
     6    28    27    1
     7    31    32    1
     8    35    36    1
     9    35    38    1
    10    36    37    2
    11    21    20    2
    12    47    48    1
    13    47    50    1
    14    48    49    2
    15    27    20   am
    16    27    33    1
    17    50    51    1
    18    20    19    1
    19    32    33    1
    20    38    39    1
    21    40    42   ar
    22    40    39   ar
    23    42    44   ar
    24    39    41   ar
    25    44    45    1
    26    44    43   ar
    27    41    43   ar
    28    51    52    1
    29    53    52    1
    30    22    19    1
    31    22    23    1
    32    19    18    1
    33   184   183    2
    34   189   187   ar
    35   189   191   ar
    36    13    12    2
    37   187   186   ar
    38    24    23    1
    39    24    25    1
    40    54    55    1
    41    10    11    1
    42    12    11    1
    43   192   191    1
    44   183   182    1
    45   191   190   ar
    46    11    14    1
    47   186   185    1
    48   186   188   ar
    49   182   185    1
    50   182   181    1
    51    25    26    1
    52    55    58    1
    53    55    56    1
    54    58    59    1
    55    14    15    1
    56   190   188   ar
    57    56    57    2
    58    59    60   ar
    59    59    61   ar
    60    15    16   ar
    61    15    17   ar
    62   113   111    1
    63    77    75   ar
    64   111   112    1
    65   111   108    1
    66    76    75   ar
    67    75    74    1
    68   143   145    1
    69   143   142    1
    70   130   131    1
    71   130   129    1
    72   132   131    2
    73   138   139    1
    74   110   109    2
    75   108   109    1
    76   108   107    1
    77    74    71    1
    78   139   142    1
    79   139   140    1
    80   131   133   am
    81     4     3    2
    82   109   114   am
    83    91    89   ar
    84   129   124   am
    85     9     8    1
    86   142   144    1
    87   125   124    2
    88    90    89   ar
    89    89    88    1
    90     8     7    1
    91   124   123    1
    92    71    70    1
    93    71    72    1
    94   141   140    2
    95     3     2    1
    96    73    72    2
    97    88    87    1
    98   114   115    1
    99   133   134    1
   100     7     6    1
   101     6     5    2
   102    72    78   am
   103   123   122    1
   104   123   126    1
   105   122   116   am
   106   117   116    2
   107   116   115    1
   108   135   134    1
   109   135   136    2
   110   134   137    1
   111    68    67    2
   112   115   118    1
   113    87    84    1
   114     5     2    1
   115     2     1    1
   116    69    67   am
   117    67    66    1
   118    78    79    1
   119   126   127    1
   120   126   128    1
   121   171   170    1
   122   172   170    1
   123    83    84    1
   124    83    80   am
   125    84    85    1
   126   118   119    1
   127    92    93    1
   128    92    85   am
   129    93    94    1
   130    79    80    1
   131    79    82    1
   132   170   169    2
   133    85    86    2
   134    64    65    2
   135    64    63    1
   136    66    63    1
   137   120   119    1
   138    80    81    2
   139   119   121    1
   140    63    62    1
   141   179   178   ar
   142   169   168    1
   143    94    95    2
   144    94    96   am
   145   180   178   ar
   146   106   104    1
   147   167   166    1
   148   167   168    1
   149   178   177    1
   150   166   163    1
   151    96    97    1
   152   153   151    1
   153   152   151    1
   154   104   103    2
   155   104   105    1
   156   165   164    2
   157   103   102    1
   158   177   174    1
   159   163   164    1
   160   163   162    1
   161   151   150    1
   162   164   173   am
   163    97   100    1
   164    97    98    1
   165   174   173    1
   166   174   175    1
   167   161   160    1
   168   150   147    1
   169   100   101    1
   170    98    99    2
   171   101   102    1
   172   175   176    2
   173   160   159    1
   174   147   146    1
   175   147   148    1
   176   157   156    2
   177   154   148   am
   178   154   155    1
   179   148   149    2
   180   158   159    1
   181   158   155    1
   182   156   155    1
