@<TRIPOS>MOLECULE
tmp/5nswC02.pdb
 126 120 0 0 0
SMALL
GASTEIGER

@<TRIPOS>ATOM
      1  N         27.2320   94.3190  -13.7510 N.3    57  LEU57      -0.1245
      2  CA        27.8540   93.8600  -14.9720 C.3    57  LEU57       0.1561
      3  C         29.3440   94.2580  -15.0130 C.2    57  LEU57       0.2260
      4  O         30.2100   93.4390  -15.3620 O.2    57  LEU57      -0.2867
      5  CB        27.1690   94.4520  -16.1890 C.3    57  LEU57       0.0270
      6  CG        26.0930   93.7830  -16.9690 C.3    57  LEU57       0.0019
      7  CD1       26.0660   94.4990  -18.3380 C.3    57  LEU57       0.0001
      8  CD2       26.3480   92.2960  -17.1150 C.3    57  LEU57       0.0001
      9  N         32.5890   91.6910  -15.4080 N.3    61  PHE61      -0.1241
     10  CA        33.5960   91.8650  -16.4420 C.3    61  PHE61       0.1605
     11  C         34.9430   91.8980  -15.7820 C.2    61  PHE61       0.2264
     12  O         35.8790   91.2350  -16.2180 O.2    61  PHE61      -0.2867
     13  CB        33.2840   93.1010  -17.3000 C.3    61  PHE61       0.0534
     14  CG        34.1630   93.2550  -18.5060 C.ar   61  PHE61      -0.0203
     15  CD1       34.4230   92.1940  -19.4030 C.ar   61  PHE61      -0.0042
     16  CD2       34.7720   94.4720  -18.7520 C.ar   61  PHE61      -0.0042
     17  CE1       35.3060   92.3750  -20.4710 C.ar   61  PHE61      -0.0003
     18  CE2       35.6630   94.6630  -19.8440 C.ar   61  PHE61      -0.0003
     19  CZ        35.9350   93.5920  -20.6840 C.ar   61  PHE61      -0.0000
     20  N         36.0450   88.4890  -14.7920 N.3    64  LEU64      -0.1245
     21  CA        36.4800   87.7990  -15.9740 C.3    64  LEU64       0.1561
     22  C         37.9250   88.1880  -16.3250 C.2    64  LEU64       0.2260
     23  O         38.7160   87.2970  -16.6240 O.2    64  LEU64      -0.2867
     24  CB        35.5370   88.0330  -17.1300 C.3    64  LEU64       0.0270
     25  CG        36.0560   87.6950  -18.5470 C.3    64  LEU64       0.0019
     26  CD1       36.3560   86.2310  -18.6730 C.3    64  LEU64       0.0001
     27  CD2       35.0190   88.0460  -19.5680 C.3    64  LEU64       0.0001
     28  N         41.2830   85.6650  -16.4820 N.3    68  ARG68      -0.1245
     29  CA        42.2170   85.5800  -17.6070 C.3    68  ARG68       0.1563
     30  C         43.6410   85.8750  -17.1850 C.2    68  ARG68       0.2260
     31  O         44.5860   85.2600  -17.6730 O.2    68  ARG68      -0.2867
     32  CB        41.8340   86.5600  -18.7280 C.3    68  ARG68       0.0307
     33  CG        40.5460   86.2240  -19.3960 C.3    68  ARG68       0.0489
     34  CD        40.5860   84.8190  -19.9710 C.3    68  ARG68       0.2205
     35  NE        41.5530   84.6970  -21.0620 N.pl3  68  ARG68      -0.0865
     36  CZ        42.0420   83.5420  -21.5340 C.cat  68  ARG68       0.5346
     37  NH1       41.7090   82.3340  -21.0400 N.pl3  68  ARG68       0.1354
     38  NH2       42.8940   83.5690  -22.5470 N.pl3  68  ARG68       0.1354
     39  N         38.2410   80.5070  -16.6950 N.3   135  SER135     -0.1202
     40  CA        38.0170   81.7300  -17.4600 C.3   135  SER135      0.2020
     41  C         36.7490   81.7010  -18.2720 C.2   135  SER135      0.2618
     42  O         36.0000   82.6540  -18.3170 O.2   135  SER135     -0.2717
     43  CB        39.0530   81.8920  -18.5550 C.3   135  SER135      0.2103
     44  OG        40.1040   82.4690  -18.0190 O.3   135  SER135     -0.2182
     45  N         36.5310   80.6040  -18.9780 N.am  136  GLU136     -0.1979
     46  CA        35.2950   80.4530  -19.7630 C.3   136  GLU136      0.1602
     47  C         34.0980   80.4520  -18.8390 C.2   136  GLU136      0.2287
     48  O         33.1250   81.0920  -19.1480 O.2   136  GLU136     -0.2864
     49  CB        35.3310   79.2550  -20.6860 C.3   136  GLU136      0.0415
     50  CG        36.4980   79.3710  -21.6580 C.3   136  GLU136      0.1163
     51  CD        36.6690   78.1850  -22.5530 C.2   136  GLU136      0.3649
     52  OE1       36.5160   78.5470  -23.7380 O.co2 136  GLU136     -0.2457
     53  OE2       36.9270   77.0030  -22.0930 O.co2 136  GLU136     -0.2457
     54  N         33.3340   83.9770  -18.0530 N.3   139  GLU139     -0.1245
     55  CA        32.6830   84.6240  -19.1910 C.3   139  GLU139      0.1567
     56  C         31.2030   84.2450  -19.1720 C.2   139  GLU139      0.2260
     57  O         30.3280   85.1090  -19.2980 O.2   139  GLU139     -0.2867
     58  CB        33.3430   84.2700  -20.5510 C.3   139  GLU139      0.0388
     59  CG        32.7030   85.0050  -21.7570 C.3   139  GLU139      0.1160
     60  CD        33.3260   84.8300  -23.0960 C.2   139  GLU139      0.3649
     61  OE1       33.5980   83.7530  -23.6100 O.co2 139  GLU139     -0.2457
     62  OE2       33.4260   85.7940  -23.8580 O.co2 139  GLU139     -0.2457
     63  N         29.1690   86.0670  -16.4390 N.3   142  LEU142     -0.1231
     64  CA        28.8860   87.4290  -16.8830 C.3   142  LEU142      0.1693
     65  C         27.7100   87.4270  -17.8370 C.2   142  LEU142      0.2591
     66  O         26.8250   88.2400  -17.6940 O.2   142  LEU142     -0.2718
     67  CB        30.1100   88.0550  -17.5280 C.3   142  LEU142      0.0284
     68  CG        30.0280   89.2510  -18.4650 C.3   142  LEU142      0.0019
     69  CD1       29.4850   90.4460  -17.7740 C.3   142  LEU142      0.0001
     70  CD2       31.3910   89.5970  -18.9440 C.3   142  LEU142      0.0001
     71  N         27.6980   86.5000  -18.7940 N.am  143  GLN143     -0.1979
     72  CA        26.6220   86.4430  -19.7380 C.3   143  GLN143      0.1601
     73  C         25.2850   86.0860  -19.0380 C.2   143  GLN143      0.2287
     74  O         24.2280   86.5900  -19.4330 O.2   143  GLN143     -0.2864
     75  CB        26.9230   85.4020  -20.8190 C.3   143  GLN143      0.0394
     76  CG        28.0320   85.8060  -21.7430 C.3   143  GLN143      0.0908
     77  CD        28.8430   84.6510  -22.3700 C.2   143  GLN143      0.2608
     78  OE1       28.7380   83.4590  -22.0020 O.2   143  GLN143     -0.2717
     79  NE2       29.6550   85.0210  -23.3530 N.am  143  GLN143     -0.0878
     80  N         24.0030   89.0940  -17.4530 N.3   146  GLN146     -0.1245
     81  CA        23.3600   89.9590  -18.4300 C.3   146  GLN146      0.1566
     82  C         21.9140   89.4930  -18.7140 C.2   146  GLN146      0.2260
     83  O         20.9930   90.3110  -18.8010 O.2   146  GLN146     -0.2867
     84  CB        24.1820   89.9810  -19.6930 C.3   146  GLN146      0.0367
     85  CG        23.7600   91.0170  -20.6930 C.3   146  GLN146      0.0905
     86  CD        24.6640   91.0770  -21.9080 C.2   146  GLN146      0.2608
     87  OE1       24.2360   90.7780  -23.0330 O.2   146  GLN146     -0.2717
     88  NE2       25.8950   91.5170  -21.7140 N.am  146  GLN146     -0.0878
     89  N         21.7630   87.8190  -24.7780 N.3   443  TRP443     -0.1227
     90  CA        23.2280   87.8910  -24.8850 C.3   443  TRP443      0.1737
     91  C         23.5070   87.3910  -26.2700 C.2   443  TRP443      0.2595
     92  O         22.5680   86.8890  -26.8320 O.2   443  TRP443     -0.2718
     93  CB        23.9080   87.0600  -23.7690 C.3   443  TRP443      0.0564
     94  CG        23.7520   85.6120  -23.9050 C.ar  443  TRP443      0.0003
     95  CD1       22.6260   84.8940  -23.7650 C.ar  443  TRP443      0.0946
     96  CD2       24.7550   84.7060  -24.3370 C.ar  443  TRP443      0.0152
     97  NE1       22.8380   83.6000  -24.1010 N.ar  443  TRP443     -0.2442
     98  CE2       24.1620   83.4320  -24.3800 C.ar  443  TRP443      0.0810
     99  CE3       26.1280   84.8090  -24.6020 C.ar  443  TRP443      0.0012
    100  CZ2       24.8860   82.2580  -24.6990 C.ar  443  TRP443      0.0191
    101  CZ3       26.8300   83.6370  -24.9680 C.ar  443  TRP443      0.0001
    102  CH2       26.2080   82.3870  -24.9790 C.ar  443  TRP443      0.0015
    103  N         24.7460   87.5040  -26.8010 N.am  444  GLN444     -0.1979
    104  CA        25.1450   87.0970  -28.2020 C.3   444  GLN444      0.1601
    105  C         25.9880   85.8020  -28.3270 C.2   444  GLN444      0.2287
    106  O         27.2520   85.8640  -28.2630 O.2   444  GLN444     -0.2864
    107  CB        25.7970   88.2720  -28.9300 C.3   444  GLN444      0.0394
    108  CG        24.7730   89.3980  -29.1690 C.3   444  GLN444      0.0908
    109  CD        23.5200   88.9340  -29.9270 C.2   444  GLN444      0.2608
    110  OE1       22.4190   89.4350  -29.6650 O.2   444  GLN444     -0.2717
    111  NE2       23.6810   87.9740  -30.8550 N.am  444  GLN444     -0.0878
    112  N         28.8730   85.1440  -30.8560 N.3   447  ALA447     -0.1231
    113  CA        30.0870   85.9390  -30.6530 C.3   447  ALA447      0.1694
    114  C         31.2640   85.0570  -30.1740 C.2   447  ALA447      0.2592
    115  O         31.0700   84.0380  -29.4750 O.2   447  ALA447     -0.2718
    116  CB        29.8370   87.0840  -29.6930 C.3   447  ALA447      0.0304
    117  N         32.4690   85.4570  -30.5790 N.am  448  HIS448     -0.1976
    118  CA        33.7380   84.7400  -30.2800 C.3   448  HIS448      0.1656
    119  C         33.8330   83.3260  -30.8660 C.2   448  HIS448      0.2291
    120  O         34.2210   82.3730  -30.1510 O.2   448  HIS448     -0.2864
    121  CB        34.0160   84.6540  -28.7680 C.3   448  HIS448      0.0771
    122  CG        34.1380   85.9780  -28.0910 C.ar  448  HIS448      0.0820
    123  ND1       34.0260   86.1120  -26.7160 N.ar  448  HIS448     -0.2267
    124  CD2       34.3630   87.2200  -28.5870 C.ar  448  HIS448      0.1154
    125  CE1       34.2100   87.3910  -26.4090 C.ar  448  HIS448      0.1986
    126  NE2       34.3860   88.0820  -27.5220 N.ar  448  HIS448     -0.2212
@<TRIPOS>BOND
     1   119   118    1
     2   119   120    2
     3   112   113    1
     4   111   109   am
     5   113   114    1
     6   113   116    1
     7   117   118    1
     8   117   114   am
     9   118   121    1
    10   114   115    2
    11   109   110    2
    12   109   108    1
    13   108   107    1
    14   107   104    1
    15   121   122    1
    16   124   122   ar
    17   124   126   ar
    18   105   106    2
    19   105   104    1
    20   104   103    1
    21   122   123   ar
    22   126   125   ar
    23    92    91    2
    24   103    91   am
    25   123   125   ar
    26    91    90    1
    27   102   101   ar
    28   102   100   ar
    29   101    99   ar
    30    90    89    1
    31    90    93    1
    32   100    98   ar
    33    99    96   ar
    34    98    96   ar
    35    98    97   ar
    36    96    94   ar
    37    97    95   ar
    38    94    93    1
    39    94    95   ar
    40    62    60   ar
    41    52    51   ar
    42    61    60   ar
    43    79    77   am
    44    60    59    1
    45    87    86    2
    46    51    53   ar
    47    51    50    1
    48    38    36    1
    49    77    78    2
    50    77    76    1
    51    86    88   am
    52    86    85    1
    53    59    58    1
    54    76    75    1
    55    50    49    1
    56    36    35    2
    57    36    37    1
    58    35    34    1
    59    75    72    1
    60    85    84    1
    61    49    46    1
    62    19    17   ar
    63    19    18   ar
    64    58    55    1
    65    17    15   ar
    66    34    33    1
    67    18    16   ar
    68    46    45    1
    69    46    47    1
    70    72    73    1
    71    72    71    1
    72    84    81    1
    73    27    25    1
    74    74    73    2
    75    15    14   ar
    76    33    32    1
    77    57    56    2
    78    55    56    1
    79    55    54    1
    80    48    47    2
    81    45    41   am
    82    70    68    1
    83    83    82    2
    84    71    65   am
    85    16    14   ar
    86    32    29    1
    87    82    81    1
    88    26    25    1
    89    43    44    1
    90    43    40    1
    91    25    24    1
    92    14    13    1
    93    68    69    1
    94    68    67    1
    95    81    80    1
    96     7     6    1
    97    42    41    2
    98    41    40    1
    99    65    66    2
   100    65    64    1
   101    31    30    2
   102    29    30    1
   103    29    28    1
   104    67    64    1
   105    40    39    1
   106    13    10    1
   107    24    21    1
   108     8     6    1
   109     6     5    1
   110    64    63    1
   111    23    22    2
   112    10    11    1
   113    10     9    1
   114    22    21    1
   115    12    11    2
   116     5     2    1
   117    21    20    1
   118     4     3    2
   119     3     2    1
   120     2     1    1
