@<TRIPOS>MOLECULE
tmp/5nswA00.pdb
 76 71 0 0 0
SMALL
GASTEIGER

@<TRIPOS>ATOM
      1  N         53.3060   65.0920   23.9530 N.3     1  CYS1       -0.1235
      2  CA        52.6600   66.4770   24.4720 C.3     1  CYS1        0.1677
      3  C         51.8250   67.2740   23.4270 C.2     1  CYS1        0.2270
      4  O         52.2860   67.4660   22.3310 O.2     1  CYS1       -0.2867
      5  CB        53.7570   67.3980   25.0960 C.3     1  CYS1        0.0956
      6  SG        53.4860   69.1570   25.5280 S.3     1  CYS1       -0.0801
      7  N         49.7700   70.7060   22.8480 N.3     3  VAL3       -0.1245
      8  CA        49.5750   72.0220   23.3970 C.3     3  VAL3        0.1561
      9  C         48.3280   72.6750   22.8410 C.2     3  VAL3        0.2260
     10  O         47.7330   72.2240   21.8500 O.2     3  VAL3       -0.2867
     11  CB        50.7180   73.0360   23.1640 C.3     3  VAL3        0.0252
     12  CG1       51.9910   72.6110   23.8620 C.3     3  VAL3        0.0019
     13  CG2       50.9250   73.4260   21.6860 C.3     3  VAL3        0.0019
     14  N         58.9930   66.1010   14.1660 N.3   118  LEU118     -0.1245
     15  CA        58.7210   65.3020   15.3540 C.3   118  LEU118      0.1561
     16  C         57.6770   66.0860   16.0600 C.2   118  LEU118      0.2260
     17  O         57.8280   67.2790   16.3040 O.2   118  LEU118     -0.2867
     18  CB        59.9440   65.1580   16.2470 C.3   118  LEU118      0.0270
     19  CG        60.8620   64.0060   15.8140 C.3   118  LEU118      0.0019
     20  CD1       61.7010   64.3580   14.5650 C.3   118  LEU118      0.0001
     21  CD2       61.7140   63.6230   17.0170 C.3   118  LEU118      0.0001
     22  N         56.5210   67.1540   18.7960 N.3   120  LEU120     -0.1231
     23  CA        56.7230   67.1580   20.2460 C.3   120  LEU120      0.1693
     24  C         55.6920   67.9650   20.9950 C.2   120  LEU120      0.2592
     25  O         55.4170   67.6440   22.1500 O.2   120  LEU120     -0.2718
     26  CB        58.1320   67.6250   20.6160 C.3   120  LEU120      0.0284
     27  CG        59.2470   66.7350   20.0370 C.3   120  LEU120      0.0019
     28  CD1       60.6120   67.2870   20.4680 C.3   120  LEU120      0.0001
     29  CD2       59.0600   65.2500   20.4280 C.3   120  LEU120      0.0001
     30  N         55.1210   68.9810   20.3290 N.am  121  PHE121     -0.1976
     31  CA        54.1330   69.8700   20.9000 C.3   121  PHE121      0.1639
     32  C         52.7290   69.7080   20.3020 C.2   121  PHE121      0.2290
     33  O         51.8000   70.4140   20.6980 O.2   121  PHE121     -0.2864
     34  CB        54.6500   71.2980   20.7510 C.3   121  PHE121      0.0560
     35  CG        55.9760   71.4970   21.3800 C.ar  121  PHE121     -0.0200
     36  CD1       56.0900   71.6900   22.7400 C.ar  121  PHE121     -0.0042
     37  CD2       57.1140   71.4040   20.6230 C.ar  121  PHE121     -0.0042
     38  CE1       57.3260   71.8290   23.3360 C.ar  121  PHE121     -0.0003
     39  CE2       58.3640   71.5430   21.2120 C.ar  121  PHE121     -0.0003
     40  CZ        58.4570   71.7460   22.5780 C.ar  121  PHE121     -0.0000
     41  N         61.0240   70.8590   16.0570 N.3   293  VAL293     -0.1231
     42  CA        62.0930   69.8800   15.9390 C.3   293  VAL293      0.1692
     43  C         61.8220   68.9910   14.7240 C.2   293  VAL293      0.2593
     44  O         60.8020   68.3380   14.6530 O.2   293  VAL293     -0.2718
     45  CB        62.1870   68.9840   17.2020 C.3   293  VAL293      0.0266
     46  CG1       63.3320   67.9890   17.0780 C.3   293  VAL293      0.0020
     47  CG2       62.3400   69.8160   18.4700 C.3   293  VAL293      0.0020
     48  N         62.7630   68.9500   13.7820 N.am  294  SER294     -0.1938
     49  CA        62.6430   68.1180   12.5790 C.3   294  SER294      0.2055
     50  C         63.9080   67.2950   12.3700 C.2   294  SER294      0.2642
     51  O         64.9440   67.6210   12.9260 O.2   294  SER294     -0.2714
     52  CB        62.4880   68.9850   11.3590 C.3   294  SER294      0.2130
     53  OG        62.4210   70.3340   11.7460 O.3   294  SER294     -0.2179
     54  N         63.8110   66.2410   11.5520 N.am  295  LEU295     -0.1977
     55  CA        64.9140   65.3480   11.2730 C.3   295  LEU295      0.1596
     56  C         64.8500   65.0000    9.7970 C.2   295  LEU295      0.2287
     57  O         63.9840   64.2260    9.3660 O.2   295  LEU295     -0.2864
     58  CB        64.7720   64.0760   12.1140 C.3   295  LEU295      0.0297
     59  CG        65.9290   63.0390   11.9270 C.3   295  LEU295      0.0022
     60  CD1       67.2770   63.6130   12.3690 C.3   295  LEU295      0.0001
     61  CD2       65.6990   61.7070   12.6850 C.3   295  LEU295      0.0001
     62  N         69.2870   66.7230   11.7990 N.3   321  PRO321     -0.2116
     63  CA        68.4030   67.1620   12.8860 C.3   321  PRO321      0.1372
     64  C         68.3850   68.6870   12.9270 C.2   321  PRO321      0.2244
     65  O         69.3650   69.3330   12.6160 O.2   321  PRO321     -0.2868
     66  CB        69.0320   66.5800   14.1470 C.3   321  PRO321      0.0268
     67  CG        70.4730   66.3990   13.7640 C.3   321  PRO321      0.0207
     68  CD        70.5520   66.1680   12.2770 C.3   321  PRO321      0.0892
     69  N         66.4050   72.1660   15.0210 N.3   323  ILE323     -0.1245
     70  CA        65.4720   72.7700   15.9330 C.3   323  ILE323      0.1561
     71  C         65.4410   74.2560   15.6290 C.2   323  ILE323      0.2260
     72  O         66.4840   74.9070   15.6400 O.2   323  ILE323     -0.2867
     73  CB        65.9180   72.6140   17.3620 C.3   323  ILE323      0.0252
     74  CG1       66.3080   71.1870   17.7200 C.3   323  ILE323      0.0019
     75  CG2       64.8320   73.1360   18.2930 C.3   323  ILE323      0.0019
     76  CD1       66.8960   71.1200   19.1500 C.3   323  ILE323      0.0001
@<TRIPOS>BOND
     1    57    56    2
     2    56    55    1
     3    55    54    1
     4    55    58    1
     5    52    53    1
     6    52    49    1
     7    54    50   am
     8    62    68    1
     9    62    63    1
    10    59    58    1
    11    59    60    1
    12    59    61    1
    13    68    67    1
    14    50    49    1
    15    50    51    2
    16    49    48    1
    17    65    64    2
    18    63    64    1
    19    63    66    1
    20    67    66    1
    21    48    43   am
    22    14    15    1
    23    20    19    1
    24    44    43    2
    25    43    42    1
    26    69    70    1
    27    15    16    1
    28    15    18    1
    29    71    72    2
    30    71    70    1
    31    19    18    1
    32    19    21    1
    33    70    73    1
    34    42    41    1
    35    42    45    1
    36    16    17    2
    37    46    45    1
    38    45    47    1
    39    73    74    1
    40    73    75    1
    41    74    76    1
    42    22    23    1
    43    27    29    1
    44    27    28    1
    45    27    26    1
    46    23    26    1
    47    23    24    1
    48    32    33    2
    49    32    31    1
    50    30    31    1
    51    30    24   am
    52    37    39   ar
    53    37    35   ar
    54    34    31    1
    55    34    35    1
    56    24    25    2
    57    39    40   ar
    58    35    36   ar
    59    13    11    1
    60    10     9    2
    61     4     3    2
    62    40    38   ar
    63    36    38   ar
    64     9     8    1
    65     7     8    1
    66    11     8    1
    67    11    12    1
    68     3     2    1
    69     1     2    1
    70     2     5    1
    71     5     6    1
