@<TRIPOS>MOLECULE
tmp/5nswB01.pdb
 91 90 0 0 0
SMALL
GASTEIGER

@<TRIPOS>ATOM
      1  N         61.1420  105.2120   -1.8050 N.3     1  CYS1       -0.1221
      2  CA        59.9170  105.3470   -2.6540 C.3     1  CYS1        0.1808
      3  C         58.7930  104.3020   -2.4960 C.2     1  CYS1        0.2601
      4  O         58.9920  103.1550   -2.0620 O.2     1  CYS1       -0.2717
      5  CB        60.2060  105.6120   -4.1540 C.3     1  CYS1        0.0970
      6  SG        60.8060  104.2870   -5.2010 S.3     1  CYS1       -0.0800
      7  N         57.5630  104.7280   -2.8190 N.am    2  THR2       -0.1953
      8  CA        56.3810  103.8680   -2.7130 C.3     2  THR2        0.1897
      9  C         55.6750  103.8630   -4.0420 C.2     2  THR2        0.2313
     10  O         54.9800  104.7680   -4.4160 O.2     2  THR2       -0.2863
     11  CB        55.3990  104.2960   -1.6040 C.3     2  THR2        0.1794
     12  OG1       56.0850  104.3740   -0.3620 O.3     2  THR2       -0.2208
     13  CG2       54.3030  103.2490   -1.4450 C.3     2  THR2        0.0378
     14  N         58.0430   95.0220    8.1280 N.3    78  ARG78      -0.1231
     15  CA        58.8330   96.2240    7.9480 C.3    78  ARG78       0.1694
     16  C         60.2220   96.1070    8.5470 C.2    78  ARG78       0.2592
     17  O         61.0790   96.9450    8.2650 O.2    78  ARG78      -0.2718
     18  CB        58.1220   97.4150    8.5770 C.3    78  ARG78       0.0321
     19  CG        56.8410   97.7890    7.7980 C.3    78  ARG78       0.0489
     20  CD        56.0120   98.7910    8.5690 C.3    78  ARG78       0.2205
     21  NE        55.6430   98.2330    9.8810 N.pl3  78  ARG78      -0.0865
     22  CZ        55.1530   98.9360   10.8910 C.cat  78  ARG78       0.5346
     23  NH1       54.9340  100.2310   10.7590 N.pl3  78  ARG78       0.1354
     24  NH2       54.8810   98.3390   12.0500 N.pl3  78  ARG78       0.1354
     25  N         60.4330   95.0720    9.3840 N.am   79  PHE79      -0.1963
     26  CA        61.6430   94.9350   10.1670 C.3    79  PHE79       0.1756
     27  C         62.2730   93.5940    9.8260 C.2    79  PHE79       0.2461
     28  O         61.6090   92.7190    9.2720 O.2    79  PHE79      -0.2730
     29  CB        61.3030   95.0290   11.6560 C.3    79  PHE79       0.0574
     30  CG        60.4920   96.2670   12.0230 C.ar   79  PHE79      -0.0200
     31  CD1       60.9980   97.5310   11.8580 C.ar   79  PHE79      -0.0042
     32  CD2       59.1890   96.1410   12.5090 C.ar   79  PHE79      -0.0042
     33  CE1       60.2600   98.6600   12.1960 C.ar   79  PHE79      -0.0003
     34  CE2       58.4330   97.2570   12.8530 C.ar   79  PHE79      -0.0003
     35  CZ        58.9660   98.5260   12.6760 C.ar   79  PHE79      -0.0000
     36  N         63.5650   93.4270   10.1200 N.am   80  PRO80      -0.2727
     37  CA        64.1580   92.1340    9.8930 C.3    80  PRO80       0.1402
     38  C         63.4980   91.1060   10.7640 C.2    80  PRO80       0.2269
     39  O         63.1280   91.4000   11.8890 O.2    80  PRO80      -0.2865
     40  CB        65.6220   92.3230   10.2890 C.3    80  PRO80       0.0296
     41  CG        65.7080   93.5950   10.9810 C.3    80  PRO80       0.0237
     42  CD        64.5720   94.4340   10.4830 C.3    80  PRO80       0.0939
     43  N         65.5670   89.8470    5.7410 N.3   116  TRP116     -0.1241
     44  CA        65.0340   91.2060    5.6820 C.3   116  TRP116      0.1605
     45  C         64.8320   91.6310    4.2360 C.2   116  TRP116      0.2264
     46  O         65.7850   91.6330    3.4810 O.2   116  TRP116     -0.2867
     47  CB        66.0090   92.1510    6.4270 C.3   116  TRP116      0.0550
     48  CG        65.5330   93.5570    6.6520 C.ar  116  TRP116      0.0003
     49  CD1       64.2420   93.9670    6.7510 C.ar  116  TRP116      0.0946
     50  CD2       66.3480   94.7380    6.8460 C.ar  116  TRP116      0.0152
     51  NE1       64.2010   95.3240    6.9730 N.ar  116  TRP116     -0.2442
     52  CE2       65.4730   95.8190    7.0360 C.ar  116  TRP116      0.0810
     53  CE3       67.7240   94.9840    6.8570 C.ar  116  TRP116      0.0012
     54  CZ2       65.9290   97.1360    7.2440 C.ar  116  TRP116      0.0191
     55  CZ3       68.1780   96.3190    7.0610 C.ar  116  TRP116      0.0001
     56  CH2       67.2860   97.3580    7.2570 C.ar  116  TRP116      0.0015
     57  N         64.3030   94.8520    2.1480 N.3   118  LEU118     -0.1231
     58  CA        64.5690   96.2480    2.5070 C.3   118  LEU118      0.1693
     59  C         63.4890   97.2580    2.1630 C.2   118  LEU118      0.2592
     60  O         63.4260   98.3210    2.7920 O.2   118  LEU118     -0.2718
     61  CB        65.8850   96.7780    1.9440 C.3   118  LEU118      0.0284
     62  CG        67.2690   96.1510    2.1930 C.3   118  LEU118      0.0019
     63  CD1       68.2860   97.2870    2.3150 C.3   118  LEU118      0.0001
     64  CD2       67.4010   95.2150    3.3920 C.3   118  LEU118      0.0001
     65  N         62.6300   96.9980    1.2090 N.am  119  ASP119     -0.1960
     66  CA        61.4300   97.8760    1.0380 C.3   119  ASP119      0.1840
     67  C         61.6920   99.1840    0.3190 C.2   119  ASP119      0.2621
     68  O         61.1000  100.2140    0.5630 O.2   119  ASP119     -0.2715
     69  CB        60.4670   98.1120    2.2600 C.3   119  ASP119      0.1450
     70  CG        58.9840   98.2530    1.7900 C.2   119  ASP119      0.3671
     71  OD1       58.6610   97.7280    0.7370 O.co2 119  ASP119     -0.2456
     72  OD2       58.1410   98.8570    2.4400 O.co2 119  ASP119     -0.2456
     73  N         62.5730   99.1210   -0.6690 N.am  120  LEU120     -0.1977
     74  CA        62.9780  100.3180   -1.4040 C.3   120  LEU120      0.1596
     75  C         61.8710  100.8350   -2.3150 C.2   120  LEU120      0.2287
     76  O         61.8750  102.0230   -2.6010 O.2   120  LEU120     -0.2864
     77  CB        64.2580  100.0820   -2.2050 C.3   120  LEU120      0.0297
     78  CG        65.4590   99.6890   -1.2830 C.3   120  LEU120      0.0022
     79  CD1       66.7380   99.4280   -2.0980 C.3   120  LEU120      0.0001
     80  CD2       65.7130  100.6100   -0.0420 C.3   120  LEU120      0.0001
     81  N         55.1870   98.4620    2.6710 N.3   125  ARG125     -0.1245
     82  CA        54.3420   99.6050    3.0550 C.3   125  ARG125      0.1563
     83  C         52.9130   99.4410    2.4580 C.2   125  ARG125      0.2260
     84  O         51.9070   99.6390    3.1710 O.2   125  ARG125     -0.2867
     85  CB        54.9710  100.9100    2.5800 C.3   125  ARG125      0.0307
     86  CG        54.8510  102.1900    3.3750 C.3   125  ARG125      0.0489
     87  CD        55.9110  103.2280    2.9670 C.3   125  ARG125      0.2205
     88  NE        57.2320  102.6200    3.1390 N.pl3 125  ARG125     -0.0865
     89  CZ        58.1520  102.3880    2.1930 C.cat 125  ARG125      0.5346
     90  NH1       58.0270  102.8450    0.9550 N.pl3 125  ARG125      0.1354
     91  NH2       59.2850  101.7620    2.5380 N.pl3 125  ARG125      0.1354
@<TRIPOS>BOND
     1     6     5    1
     2    10     9    2
     3     5     2    1
     4     9     8    1
     5     7     8    1
     6     7     3   am
     7     8    11    1
     8     2     3    1
     9     2     1    1
    10    76    75    2
    11     3     4    2
    12    75    74    1
    13    77    74    1
    14    77    78    1
    15    79    78    1
    16    11    13    1
    17    11    12    1
    18    74    73    1
    19    78    80    1
    20    73    67   am
    21    67    68    2
    22    67    66    1
    23    71    70   ar
    24    90    89    1
    25    66    65    1
    26    66    69    1
    27    65    59   am
    28    70    69    1
    29    70    72   ar
    30    61    62    1
    31    61    58    1
    32    57    58    1
    33    59    58    1
    34    59    60    2
    35    62    63    1
    36    62    64    1
    37    89    91    1
    38    89    88    2
    39    83    82    1
    40    83    84    2
    41    85    82    1
    42    85    86    1
    43    81    82    1
    44    87    88    1
    45    87    86    1
    46    46    45    2
    47    45    44    1
    48    44    43    1
    49    44    47    1
    50    47    48    1
    51    48    49   ar
    52    48    50   ar
    53    49    51   ar
    54    50    53   ar
    55    50    52   ar
    56    53    55   ar
    57    51    52   ar
    58    52    54   ar
    59    55    56   ar
    60    54    56   ar
    61    19    20    1
    62    19    18    1
    63    15    14    1
    64    15    16    1
    65    15    18    1
    66    17    16    2
    67    16    25   am
    68    20    21    1
    69    28    27    2
    70    25    26    1
    71    27    36   am
    72    27    26    1
    73    21    22    2
    74    37    36    1
    75    37    40    1
    76    37    38    1
    77    36    42    1
    78    26    29    1
    79    40    41    1
    80    42    41    1
    81    23    22    1
    82    38    39    2
    83    22    24    1
    84    29    30    1
    85    31    30   ar
    86    31    33   ar
    87    30    32   ar
    88    33    35   ar
    89    32    34   ar
    90    35    34   ar
