@<TRIPOS>MOLECULE
tmp/5nsxA00.pdb
 151 153 0 0 0
SMALL
GASTEIGER

@<TRIPOS>ATOM
      1  N          9.5830   41.7730   17.3800 N.3    80  HIS80      -0.1226
      2  CA         9.1930   41.5380   16.0070 C.3    80  HIS80       0.1752
      3  C         10.4320   41.2910   15.1640 C.2    80  HIS80       0.2597
      4  O         11.3610   42.1030   15.1710 O.2    80  HIS80      -0.2718
      5  CB         8.3910   42.7170   15.4630 C.3    80  HIS80       0.0759
      6  CG         7.8390   42.4780   14.0940 C.ar   80  HIS80       0.0818
      7  ND1        6.7190   41.7060   13.8600 N.ar   80  HIS80      -0.2268
      8  CD2        8.2800   42.8800   12.8750 C.ar   80  HIS80       0.1154
      9  CE1        6.4860   41.6710   12.5540 C.ar   80  HIS80       0.1986
     10  NE2        7.4080   42.3880   11.9430 N.ar   80  HIS80      -0.2212
     11  N         10.4130   40.1820   14.4340 N.am   81  GLY81      -0.1942
     12  CA        11.4560   39.8280   13.5010 C.3    81  GLY81       0.2014
     13  C         10.8740   39.8240   12.1040 C.2    81  GLY81       0.2640
     14  O          9.7440   39.3490   11.8850 O.2    81  GLY81      -0.2714
     15  N         11.6340   40.3560   11.1610 N.am   82  SER82      -0.1936
     16  CA        11.1620   40.4940    9.8070 C.3    82  SER82       0.2040
     17  C         12.2950   40.8090    8.8450 C.2    82  SER82       0.2485
     18  O         13.2020   41.5840    9.1890 O.2    82  SER82      -0.2729
     19  CB        10.1880   41.6740    9.7460 C.3    82  SER82       0.2129
     20  OG         9.7780   41.8750    8.4120 O.3    82  SER82      -0.2179
     21  N         12.2150   40.2910    7.6090 N.am   83  PRO83      -0.2715
     22  CA        13.1470   40.8310    6.5780 C.3    83  PRO83       0.1536
     23  C         12.9800   42.3210    6.2920 C.2    83  PRO83       0.2598
     24  O         13.8660   42.9000    5.6840 O.2    83  PRO83      -0.2715
     25  CB        12.8060   40.0160    5.3170 C.3    83  PRO83       0.0310
     26  CG        12.0270   38.8440    5.8050 C.3    83  PRO83       0.0237
     27  CD        11.2940   39.2870    7.0460 C.3    83  PRO83       0.0939
     28  N         11.8620   42.9340    6.6940 N.am   84  PHE84      -0.1974
     29  CA        11.5510   44.3200    6.3510 C.3    84  PHE84       0.1639
     30  C         11.7890   45.3150    7.4930 C.2    84  PHE84       0.2290
     31  O         11.1830   46.4100    7.5100 O.2    84  PHE84      -0.2864
     32  CB        10.0880   44.4030    5.8620 C.3    84  PHE84       0.0560
     33  CG         9.7580   43.3700    4.8340 C.ar   84  PHE84      -0.0200
     34  CD1       10.5560   43.2420    3.6920 C.ar   84  PHE84      -0.0042
     35  CD2        8.7020   42.4710    5.0270 C.ar   84  PHE84      -0.0042
     36  CE1       10.2940   42.2580    2.7470 C.ar   84  PHE84      -0.0003
     37  CE2        8.4270   41.4870    4.0810 C.ar   84  PHE84      -0.0003
     38  CZ         9.2270   41.3720    2.9520 C.ar   84  PHE84      -0.0000
     39  N          1.8150   45.5110    4.2890 N.3    96  ARG96      -0.1231
     40  CA         2.9950   44.8670    3.6650 C.3    96  ARG96       0.1694
     41  C          3.8370   44.0440    4.6370 C.2    96  ARG96       0.2592
     42  O          4.6570   43.2280    4.2150 O.2    96  ARG96      -0.2718
     43  CB         3.9150   45.9150    3.0400 C.3    96  ARG96       0.0321
     44  CG         3.2690   46.7490    1.9470 C.3    96  ARG96       0.0489
     45  CD         4.3000   47.6110    1.2320 C.3    96  ARG96       0.2205
     46  NE         4.7870   48.7640    1.9990 N.pl3  96  ARG96      -0.0865
     47  CZ         4.1190   49.9030    2.2120 C.cat  96  ARG96       0.5346
     48  NH1        2.8690   50.0850    1.7590 N.pl3  96  ARG96       0.1354
     49  NH2        4.7060   50.8760    2.9070 N.pl3  96  ARG96       0.1354
     50  N          3.6600   44.3050    5.9340 N.am   97  HIS97      -0.1962
     51  CA         4.3960   43.6150    7.0060 C.3    97  HIS97       0.1787
     52  C          3.5890   42.4860    7.6770 C.2    97  HIS97       0.2620
     53  O          4.0750   41.8680    8.6640 O.2    97  HIS97      -0.2715
     54  CB         4.8720   44.6940    7.9850 C.3    97  HIS97       0.0785
     55  CG         5.6680   45.7580    7.2930 C.ar   97  HIS97       0.0821
     56  ND1        5.2970   47.0840    7.2670 N.ar   97  HIS97      -0.2267
     57  CD2        6.7620   45.6650    6.5020 C.ar   97  HIS97       0.1154
     58  CE1        6.1580   47.7750    6.5400 C.ar   97  HIS97       0.1986
     59  NE2        7.0530   46.9340    6.0580 N.ar   97  HIS97      -0.2212
     60  N          2.4120   42.1650    7.1040 N.am   98  ALA98      -0.1963
     61  CA         1.5120   41.1310    7.6500 C.3    98  ALA98       0.1728
     62  C          2.0020   39.7510    7.2710 C.2    98  ALA98       0.2616
     63  O          2.6610   39.5820    6.2460 O.2    98  ALA98      -0.2715
     64  CB         0.0830   41.3250    7.1660 C.3    98  ALA98       0.0334
     65  N          1.7190   38.7860    8.1360 N.am   99  TYR99      -0.1960
     66  CA         1.9500   37.3820    7.8870 C.3    99  TYR99       0.1771
     67  C          0.6090   36.8390    7.3600 C.2    99  TYR99       0.2619
     68  O         -0.3250   36.5030    8.1250 O.2    99  TYR99      -0.2715
     69  CB         2.3570   36.6900    9.1740 C.3    99  TYR99       0.0574
     70  CG         2.7650   35.2510    9.0430 C.ar   99  TYR99      -0.0198
     71  CD1        2.6850   34.5440    7.8200 C.ar   99  TYR99      -0.0009
     72  CD2        3.1640   34.5370   10.1730 C.ar   99  TYR99      -0.0009
     73  CE1        3.0580   33.2100    7.7410 C.ar   99  TYR99       0.0417
     74  CE2        3.5330   33.2060   10.0820 C.ar   99  TYR99       0.0417
     75  CZ         3.4760   32.5520    8.8670 C.ar   99  TYR99       0.1957
     76  OH         3.8500   31.2080    8.8080 O.3    99  TYR99      -0.2866
     77  N          0.5080   36.7900    6.0290 N.am  100  ILE100     -0.1977
     78  CA        -0.7580   36.4640    5.3740 C.3   100  ILE100      0.1596
     79  C         -1.1870   35.0620    5.8120 C.2   100  ILE100      0.2287
     80  O         -2.3400   34.8530    6.1790 O.2   100  ILE100     -0.2864
     81  CB        -0.7020   36.5500    3.8150 C.3   100  ILE100      0.0276
     82  CG1       -0.0850   37.8910    3.3140 C.3   100  ILE100      0.0022
     83  CG2       -2.0930   36.3080    3.2310 C.3   100  ILE100      0.0022
     84  CD1       -0.7250   39.1530    3.8420 C.3   100  ILE100      0.0001
     85  N          2.4370   40.0320   13.4940 N.3   109  TYR109     -0.1227
     86  CA         2.6580   39.1130   14.5710 C.3   109  TYR109      0.1736
     87  C          3.8110   39.6250   15.4340 C.2   109  TYR109      0.2595
     88  O          4.8360   40.1070   14.9200 O.2   109  TYR109     -0.2718
     89  CB         3.0010   37.7330   14.0240 C.3   109  TYR109      0.0548
     90  CG         1.8030   36.9790   13.5470 C.ar  109  TYR109     -0.0200
     91  CD1        1.3930   35.8160   14.1940 C.ar  109  TYR109     -0.0009
     92  CD2        1.0510   37.4330   12.4570 C.ar  109  TYR109     -0.0009
     93  CE1        0.2670   35.1280   13.7710 C.ar  109  TYR109      0.0417
     94  CE2       -0.0830   36.7480   12.0370 C.ar  109  TYR109      0.0417
     95  CZ        -0.4800   35.6090   12.7020 C.ar  109  TYR109      0.1957
     96  OH        -1.6290   34.9340   12.2920 O.3   109  TYR109     -0.2866
     97  N          3.6440   39.4710   16.7420 N.am  110  PHE110     -0.1962
     98  CA         4.6600   39.8200   17.7170 C.3   110  PHE110      0.1771
     99  C          4.8330   38.7160   18.7480 C.2   110  PHE110      0.2619
    100  O          3.8990   37.9250   18.9850 O.2   110  PHE110     -0.2715
    101  CB         4.2640   41.0840   18.4430 C.3   110  PHE110      0.0574
    102  CG         4.1820   42.2770   17.5740 C.ar  110  PHE110     -0.0200
    103  CD1        5.2560   43.1310   17.4570 C.ar  110  PHE110     -0.0042
    104  CD2        3.0290   42.5420   16.8530 C.ar  110  PHE110     -0.0042
    105  CE1        5.1790   44.2470   16.6440 C.ar  110  PHE110     -0.0003
    106  CE2        2.9540   43.6240   16.0070 C.ar  110  PHE110     -0.0003
    107  CZ         4.0330   44.4910   15.9200 C.ar  110  PHE110     -0.0000
    108  N          6.0240   38.6340   19.3300 N.am  111  ALA111     -0.1977
    109  CA         6.3060   37.5900   20.3210 C.3   111  ALA111      0.1597
    110  C          6.8300   38.1040   21.6580 C.2   111  ALA111      0.2287
    111  O          7.6210   39.0410   21.6930 O.2   111  ALA111     -0.2864
    112  CB         7.2800   36.6050   19.7690 C.3   111  ALA111      0.0319
    113  N         11.5320   33.4150   19.3690 N.3   116  LYS116     -0.1231
    114  CA        10.4660   33.2650   18.3770 C.3   116  LYS116      0.1693
    115  C         10.5730   34.2890   17.2310 C.2   116  LYS116      0.2592
    116  O         10.5550   33.9150   16.0610 O.2   116  LYS116     -0.2718
    117  CB         9.0830   33.2920   19.0370 C.3   116  LYS116      0.0285
    118  CG         7.8940   33.3450   18.0980 C.3   116  LYS116      0.0035
    119  CD         7.8420   32.2400   17.0300 C.3   116  LYS116      0.0206
    120  CE         7.6270   30.8870   17.5590 C.3   116  LYS116      0.1093
    121  NZ         7.3580   29.9390   16.4170 N.3   116  LYS116     -0.1314
    122  N         10.6620   35.5720   17.5430 N.am  117  SER117     -0.1952
    123  CA        10.8930   36.5830   16.5080 C.3   117  SER117      0.1924
    124  C         12.1950   36.3510   15.7000 C.2   117  SER117      0.2314
    125  O         12.2330   36.6280   14.4890 O.2   117  SER117     -0.2863
    126  CB        10.8430   37.9800   17.1080 C.3   117  SER117      0.2116
    127  OG         9.5410   38.2740   17.5380 O.3   117  SER117     -0.2180
    128  N         12.1090   34.6170   12.2630 N.3   120  TYR120     -0.1241
    129  CA        11.5470   35.3200   11.1390 C.3   120  TYR120      0.1605
    130  C         12.4710   36.3530   10.5630 C.2   120  TYR120      0.2264
    131  O         12.0910   37.0290    9.6220 O.2   120  TYR120     -0.2867
    132  CB        10.2160   35.9720   11.5420 C.3   120  TYR120      0.0534
    133  CG         9.1690   34.9210   11.7770 C.ar  120  TYR120     -0.0201
    134  CD1        8.4440   34.4100   10.7260 C.ar  120  TYR120     -0.0009
    135  CD2        8.9360   34.4130   13.0550 C.ar  120  TYR120     -0.0009
    136  CE1        7.5030   33.4160   10.9290 C.ar  120  TYR120      0.0417
    137  CE2        8.0150   33.4200   13.2570 C.ar  120  TYR120      0.0417
    138  CZ         7.3050   32.9300   12.2020 C.ar  120  TYR120      0.1957
    139  OH         6.3850   31.9560   12.4150 O.3   120  TYR120     -0.2866
    140  N         13.0730   35.4980    7.0870 N.3   123  GLY123     -0.1210
    141  CA        11.8400   35.1660    6.3910 C.3   123  GLY123      0.1956
    142  C         11.1010   34.0620    7.0960 C.2   123  GLY123      0.2611
    143  O         11.5670   33.5600    8.1270 O.2   123  GLY123     -0.2717
    144  N          9.9640   33.6760    6.5220 N.am  124  ILE124     -0.1979
    145  CA         9.1410   32.6150    7.0940 C.3   124  ILE124      0.1595
    146  C          9.9740   31.3670    7.1730 C.2   124  ILE124      0.2287
    147  O         10.6300   30.9960    6.2210 O.2   124  ILE124     -0.2864
    148  CB         7.8870   32.3050    6.2540 C.3   124  ILE124      0.0276
    149  CG1        6.9660   33.5170    6.2100 C.3   124  ILE124      0.0022
    150  CG2        7.1480   31.0860    6.8350 C.3   124  ILE124      0.0022
    151  CD1        5.9540   33.4660    5.0840 C.3   124  ILE124      0.0001
@<TRIPOS>BOND
     1    45    44    1
     2    45    46    1
     3    48    47    1
     4    44    43    1
     5    46    47    2
     6    47    49    1
     7    36    38   ar
     8    36    34   ar
     9    38    37   ar
    10    43    40    1
    11    83    81    1
    12    82    81    1
    13    82    84    1
    14    40    39    1
    15    40    41    1
    16    34    33   ar
    17    81    78    1
    18    37    35   ar
    19    42    41    2
    20    41    50   am
    21    33    35   ar
    22    33    32    1
    23   151   149    1
    24    25    26    1
    25    25    22    1
    26    78    79    1
    27    78    77    1
    28    24    23    2
    29    26    27    1
    30    79    80    2
    31    32    29    1
    32    50    51    1
    33    77    67   am
    34    59    57   ar
    35    59    58   ar
    36   149   148    1
    37   147   146    2
    38    63    62    2
    39   148   150    1
    40   148   145    1
    41    23    22    1
    42    23    28   am
    43    29    28    1
    44    29    30    1
    45   141   140    1
    46   141   142    1
    47    57    55   ar
    48   144   145    1
    49   144   142   am
    50    58    56   ar
    51    22    21    1
    52    51    52    1
    53    51    54    1
    54    27    21    1
    55   145   146    1
    56   142   143    2
    57    60    61    1
    58    60    52   am
    59    64    61    1
    60    56    55   ar
    61    62    61    1
    62    62    65   am
    63    55    54    1
    64    67    66    1
    65    67    68    2
    66    30    31    2
    67    21    17   am
    68    52    53    2
    69    73    71   ar
    70    73    75   ar
    71    71    70   ar
    72    66    65    1
    73    66    69    1
    74    20    19    1
    75    76    75    1
    76    17    18    2
    77    17    16    1
    78    75    74   ar
    79    70    69    1
    80    70    72   ar
    81   131   130    2
    82    19    16    1
    83    16    15    1
    84    74    72   ar
    85   130   129    1
    86   134   136   ar
    87   134   133   ar
    88   136   138   ar
    89   129   132    1
    90   129   128    1
    91    15    13   am
    92   132   133    1
    93   133   135   ar
    94    14    13    2
    95    10     9   ar
    96    10     8   ar
    97    94    92   ar
    98    94    95   ar
    99    13    12    1
   100   138   139    1
   101   138   137   ar
   102    96    95    1
   103    92    90   ar
   104     9     7   ar
   105    95    93   ar
   106     8     6   ar
   107   135   137   ar
   108    85    86    1
   109    12    11    1
   110    90    89    1
   111    90    91   ar
   112    93    91   ar
   113     7     6   ar
   114    89    86    1
   115     6     5    1
   116    11     3   am
   117   125   124    2
   118    86    87    1
   119    88    87    2
   120     3     4    2
   121     3     2    1
   122    87    97   am
   123     5     2    1
   124   124   123    1
   125   107   106   ar
   126   107   105   ar
   127     2     1    1
   128   106   104   ar
   129   116   115    2
   130   121   120    1
   131   123   126    1
   132   123   122    1
   133   105   103   ar
   134    97    98    1
   135   104   102   ar
   136   119   120    1
   137   119   118    1
   138   126   127    1
   139   115   122   am
   140   115   114    1
   141   103   102   ar
   142   102   101    1
   143    98   101    1
   144    98    99    1
   145   118   117    1
   146   114   117    1
   147   114   113    1
   148    99   100    2
   149    99   108   am
   150   108   109    1
   151   112   109    1
   152   109   110    1
   153   110   111    2
