@<TRIPOS>MOLECULE
tmp/5nt0A00.pdb
 132 134 0 0 0
SMALL
GASTEIGER

@<TRIPOS>ATOM
      1  N         -9.5340  -41.6570   17.4340 N.3    80  HIS80      -0.1226
      2  CA        -9.1350  -41.4140   16.0730 C.3    80  HIS80       0.1752
      3  C        -10.3730  -41.1820   15.2130 C.2    80  HIS80       0.2597
      4  O        -11.2660  -42.0210   15.1900 O.2    80  HIS80      -0.2718
      5  CB        -8.3020  -42.5790   15.5610 C.3    80  HIS80       0.0759
      6  CG        -7.7600  -42.3700   14.1870 C.ar   80  HIS80       0.0818
      7  ND1       -6.6060  -41.6600   13.9390 N.ar   80  HIS80      -0.2268
      8  CD2       -8.2290  -42.7630   12.9770 C.ar   80  HIS80       0.1154
      9  CE1       -6.3710  -41.6610   12.6370 C.ar   80  HIS80       0.1986
     10  NE2       -7.3380  -42.3330   12.0360 N.ar   80  HIS80      -0.2212
     11  N        -10.4080  -40.0280   14.5410 N.am   81  GLY81      -0.1942
     12  CA       -11.4270  -39.6980   13.5540 C.3    81  GLY81       0.2014
     13  C        -10.8460  -39.7250   12.1630 C.2    81  GLY81       0.2640
     14  O         -9.7490  -39.2180   11.9410 O.2    81  GLY81      -0.2714
     15  N        -11.5940  -40.2730   11.2070 N.am   82  SER82      -0.1936
     16  CA       -11.0850  -40.4550    9.8680 C.3    82  SER82       0.2040
     17  C        -12.2010  -40.7650    8.8940 C.2    82  SER82       0.2485
     18  O        -13.1420  -41.4910    9.2550 O.2    82  SER82      -0.2729
     19  CB       -10.1540  -41.6640    9.8390 C.3    82  SER82       0.2129
     20  OG        -9.6510  -41.8950    8.5180 O.3    82  SER82      -0.2179
     21  N        -12.0760  -40.2780    7.6460 N.am   83  PRO83      -0.2715
     22  CA       -13.0000  -40.7880    6.6130 C.3    83  PRO83       0.1536
     23  C        -12.7740  -42.2450    6.2640 C.2    83  PRO83       0.2598
     24  O        -13.6170  -42.8210    5.5810 O.2    83  PRO83      -0.2715
     25  CB       -12.7000  -39.9150    5.3650 C.3    83  PRO83       0.0310
     26  CG       -11.7520  -38.8790    5.8140 C.3    83  PRO83       0.0237
     27  CD       -11.1250  -39.2970    7.1120 C.3    83  PRO83       0.0939
     28  N        -11.6580  -42.8370    6.6960 N.am   84  PHE84      -0.1974
     29  CA       -11.2970  -44.1920    6.3260 C.3    84  PHE84       0.1639
     30  C        -11.5740  -45.2250    7.4190 C.2    84  PHE84       0.2290
     31  O        -10.9740  -46.3110    7.4200 O.2    84  PHE84      -0.2864
     32  CB        -9.8090  -44.2290    5.9430 C.3    84  PHE84       0.0560
     33  CG        -9.4050  -43.1090    5.0300 C.ar   84  PHE84      -0.0200
     34  CD1      -10.1050  -42.8880    3.8500 C.ar   84  PHE84      -0.0042
     35  CD2       -8.3660  -42.2470    5.3680 C.ar   84  PHE84      -0.0042
     36  CE1       -9.7700  -41.8390    3.0020 C.ar   84  PHE84      -0.0003
     37  CE2       -8.0240  -41.1990    4.5250 C.ar   84  PHE84      -0.0003
     38  CZ        -8.7200  -40.9960    3.3430 C.ar   84  PHE84      -0.0000
     39  N         -3.5870  -44.0990    6.0060 N.3    97  HIS97      -0.1226
     40  CA        -4.3510  -43.4160    7.0570 C.3    97  HIS97       0.1752
     41  C         -3.5360  -42.3110    7.7640 C.2    97  HIS97       0.2596
     42  O         -4.0160  -41.7120    8.7480 O.2    97  HIS97      -0.2718
     43  CB        -4.8480  -44.4860    8.0220 C.3    97  HIS97       0.0759
     44  CG        -5.5390  -45.6070    7.3130 C.ar   97  HIS97       0.0818
     45  ND1       -5.2420  -46.9300    7.5310 N.ar   97  HIS97      -0.2268
     46  CD2       -6.4450  -45.5890    6.3120 C.ar   97  HIS97       0.1154
     47  CE1       -5.9740  -47.6870    6.7320 C.ar   97  HIS97       0.1986
     48  NE2       -6.7030  -46.8940    5.9730 N.ar   97  HIS97      -0.2212
     49  N         -2.3410  -42.0100    7.2370 N.am   98  ALA98      -0.1966
     50  CA        -1.4730  -40.9790    7.7930 C.3    98  ALA98       0.1728
     51  C         -1.9480  -39.5980    7.3980 C.2    98  ALA98       0.2616
     52  O         -2.6240  -39.4190    6.3900 O.2    98  ALA98      -0.2715
     53  CB        -0.0290  -41.1880    7.3700 C.3    98  ALA98       0.0334
     54  N         -1.6520  -38.6340    8.2510 N.am   99  TYR99      -0.1974
     55  CA        -1.9360  -37.2460    7.9940 C.3    99  TYR99       0.1639
     56  C         -0.6100  -36.6810    7.4810 C.2    99  TYR99       0.2290
     57  O          0.3080  -36.3510    8.2560 O.2    99  TYR99      -0.2864
     58  CB        -2.4010  -36.5780    9.2700 C.3    99  TYR99       0.0560
     59  CG        -2.7760  -35.1410    9.1390 C.ar   99  TYR99      -0.0198
     60  CD1       -3.1050  -34.4030   10.2750 C.ar   99  TYR99      -0.0009
     61  CD2       -2.7540  -34.4610    7.8910 C.ar   99  TYR99      -0.0009
     62  CE1       -3.4310  -33.0680   10.1860 C.ar   99  TYR99       0.0417
     63  CE2       -3.0840  -33.1360    7.8090 C.ar   99  TYR99       0.0417
     64  CZ        -3.4240  -32.4450    8.9490 C.ar   99  TYR99       0.1957
     65  OH        -3.7590  -31.0990    8.8900 O.3    99  TYR99      -0.2866
     66  N         -2.3570  -39.9140   13.5340 N.3   109  TYR109     -0.1227
     67  CA        -2.6040  -38.9990   14.6400 C.3   109  TYR109      0.1736
     68  C         -3.7580  -39.5160   15.4990 C.2   109  TYR109      0.2595
     69  O         -4.7740  -40.0040   14.9730 O.2   109  TYR109     -0.2718
     70  CB        -2.9700  -37.6120   14.1220 C.3   109  TYR109      0.0548
     71  CG        -1.7830  -36.8580   13.6340 C.ar  109  TYR109     -0.0200
     72  CD1       -1.3550  -35.7170   14.2880 C.ar  109  TYR109     -0.0009
     73  CD2       -1.0500  -37.3160   12.5350 C.ar  109  TYR109     -0.0009
     74  CE1       -0.2310  -35.0360   13.8460 C.ar  109  TYR109      0.0417
     75  CE2        0.0770  -36.6400   12.1020 C.ar  109  TYR109      0.0417
     76  CZ         0.4870  -35.5100   12.7670 C.ar  109  TYR109      0.1957
     77  OH         1.6400  -34.8510   12.3520 O.3   109  TYR109     -0.2866
     78  N         -3.6090  -39.3490   16.8110 N.am  110  PHE110     -0.1962
     79  CA        -4.6270  -39.7090   17.7950 C.3   110  PHE110      0.1771
     80  C         -4.8100  -38.5620   18.7850 C.2   110  PHE110      0.2619
     81  O         -3.8880  -37.7590   18.9750 O.2   110  PHE110     -0.2715
     82  CB        -4.2020  -40.9630   18.5280 C.3   110  PHE110      0.0574
     83  CG        -4.0920  -42.1640   17.6520 C.ar  110  PHE110     -0.0200
     84  CD1       -5.1610  -43.0220   17.5120 C.ar  110  PHE110     -0.0042
     85  CD2       -2.9420  -42.4110   16.9340 C.ar  110  PHE110     -0.0042
     86  CE1       -5.0860  -44.1180   16.6780 C.ar  110  PHE110     -0.0003
     87  CE2       -2.8710  -43.4680   16.0580 C.ar  110  PHE110     -0.0003
     88  CZ        -3.9490  -44.3500   15.9590 C.ar  110  PHE110     -0.0000
     89  N         -5.9710  -38.4840   19.4320 N.am  111  ALA111     -0.1977
     90  CA        -6.2210  -37.4060   20.3780 C.3   111  ALA111      0.1597
     91  C         -6.7790  -37.9230   21.7020 C.2   111  ALA111      0.2287
     92  O         -7.5700  -38.8660   21.7200 O.2   111  ALA111     -0.2864
     93  CB        -7.1760  -36.4010   19.7810 C.3   111  ALA111      0.0319
     94  N        -11.4720  -33.2840   19.3960 N.3   116  LYS116     -0.1231
     95  CA       -10.4100  -33.1080   18.4280 C.3   116  LYS116      0.1693
     96  C        -10.5050  -34.1450   17.2930 C.2   116  LYS116      0.2592
     97  O        -10.5120  -33.7790   16.1120 O.2   116  LYS116     -0.2718
     98  CB        -9.0320  -33.1280   19.1070 C.3   116  LYS116      0.0285
     99  CG        -7.8660  -33.1750   18.1620 C.3   116  LYS116      0.0035
    100  CD        -7.8050  -32.0580   17.1270 C.3   116  LYS116      0.0206
    101  CE        -7.5900  -30.7140   17.7000 C.3   116  LYS116      0.1093
    102  NZ        -7.3980  -29.7200   16.5750 N.3   116  LYS116     -0.1314
    103  N        -10.5760  -35.4340   17.6200 N.am  117  SER117     -0.1952
    104  CA       -10.8060  -36.4480   16.5730 C.3   117  SER117      0.1924
    105  C        -12.0940  -36.2040   15.7600 C.2   117  SER117      0.2314
    106  O        -12.1210  -36.4900   14.5610 O.2   117  SER117     -0.2863
    107  CB       -10.7890  -37.8560   17.1550 C.3   117  SER117      0.2116
    108  OG        -9.4870  -38.1420   17.6100 O.3   117  SER117     -0.2180
    109  N        -11.9770  -34.5090   12.3370 N.3   120  TYR120     -0.1241
    110  CA       -11.4080  -35.2210   11.2170 C.3   120  TYR120      0.1605
    111  C        -12.3130  -36.2820   10.6180 C.2   120  TYR120      0.2264
    112  O        -11.9020  -36.9400    9.6750 O.2   120  TYR120     -0.2867
    113  CB       -10.0730  -35.8530   11.6620 C.3   120  TYR120      0.0534
    114  CG        -9.0430  -34.7950   11.9150 C.ar  120  TYR120     -0.0201
    115  CD1       -8.2760  -34.3040   10.8810 C.ar  120  TYR120     -0.0009
    116  CD2       -8.8740  -34.2490   13.1670 C.ar  120  TYR120     -0.0009
    117  CE1       -7.3420  -33.3090   11.1060 C.ar  120  TYR120      0.0417
    118  CE2       -7.9590  -33.2600   13.3990 C.ar  120  TYR120      0.0417
    119  CZ        -7.2010  -32.7940   12.3690 C.ar  120  TYR120      0.1957
    120  OH        -6.2980  -31.7990   12.6050 O.3   120  TYR120     -0.2866
    121  N        -12.9580  -35.4640    7.1480 N.3   123  GLY123     -0.1210
    122  CA       -11.7380  -35.0970    6.4680 C.3   123  GLY123      0.1956
    123  C        -10.9840  -34.0260    7.2270 C.2   123  GLY123      0.2611
    124  O        -11.4280  -33.5510    8.2770 O.2   123  GLY123     -0.2717
    125  N         -9.8620  -33.6310    6.6500 N.am  124  ILE124     -0.1979
    126  CA        -8.9970  -32.6100    7.2480 C.3   124  ILE124      0.1595
    127  C         -9.7950  -31.3310    7.3140 C.2   124  ILE124      0.2287
    128  O        -10.4510  -30.9580    6.3540 O.2   124  ILE124     -0.2864
    129  CB        -7.7050  -32.3960    6.4380 C.3   124  ILE124      0.0276
    130  CG1       -6.8540  -33.6660    6.4260 C.3   124  ILE124      0.0022
    131  CG2       -6.9000  -31.2380    7.0320 C.3   124  ILE124      0.0022
    132  CD1       -5.8570  -33.7190    5.2770 C.3   124  ILE124      0.0001
@<TRIPOS>BOND
     1    36    38   ar
     2    36    34   ar
     3    38    37   ar
     4    34    33   ar
     5    37    35   ar
     6    33    35   ar
     7    33    32    1
     8   132   130    1
     9    25    26    1
    10    25    22    1
    11    24    23    2
    12    26    27    1
    13    32    29    1
    14    48    46   ar
    15    48    47   ar
    16    39    40    1
    17    23    22    1
    18    23    28   am
    19    46    44   ar
    20    29    28    1
    21    29    30    1
    22   128   127    2
    23    52    51    2
    24   130   129    1
    25   129   131    1
    26   129   126    1
    27   122   121    1
    28   122   123    1
    29    22    21    1
    30   125   123   am
    31   125   126    1
    32    47    45   ar
    33    40    41    1
    34    40    43    1
    35    27    21    1
    36   123   124    2
    37    49    41   am
    38    49    50    1
    39   126   127    1
    40    44    45   ar
    41    44    43    1
    42    53    50    1
    43    51    50    1
    44    51    54   am
    45    30    31    2
    46    56    55    1
    47    56    57    2
    48    21    17   am
    49    41    42    2
    50    63    61   ar
    51    63    64   ar
    52    61    59   ar
    53    55    54    1
    54    55    58    1
    55    20    19    1
    56    65    64    1
    57    17    18    2
    58    17    16    1
    59    64    62   ar
    60    59    58    1
    61    59    60   ar
    62   112   111    2
    63    19    16    1
    64    16    15    1
    65    62    60   ar
    66   111   110    1
    67   115   117   ar
    68   115   114   ar
    69   117   119   ar
    70    15    13   am
    71   110   113    1
    72   110   109    1
    73   113   114    1
    74   114   116   ar
    75    14    13    2
    76    10     9   ar
    77    10     8   ar
    78    75    73   ar
    79    75    76   ar
    80    13    12    1
    81    77    76    1
    82   119   120    1
    83   119   118   ar
    84    73    71   ar
    85     9     7   ar
    86    76    74   ar
    87     8     6   ar
    88   116   118   ar
    89    66    67    1
    90    12    11    1
    91    71    70    1
    92    71    72   ar
    93    74    72   ar
    94     7     6   ar
    95    70    67    1
    96     6     5    1
    97    11     3   am
    98   106   105    2
    99    67    68    1
   100    69    68    2
   101     4     3    2
   102     3     2    1
   103    68    78   am
   104     5     2    1
   105   105   104    1
   106    88    87   ar
   107    88    86   ar
   108    87    85   ar
   109     2     1    1
   110    97    96    2
   111   104   107    1
   112   104   103    1
   113   102   101    1
   114    86    84   ar
   115    78    79    1
   116    85    83   ar
   117   100   101    1
   118   100    99    1
   119   107   108    1
   120    96   103   am
   121    96    95    1
   122    84    83   ar
   123    83    82    1
   124    79    82    1
   125    79    80    1
   126    99    98    1
   127    95    98    1
   128    95    94    1
   129    80    81    2
   130    80    89   am
   131    89    90    1
   132    93    90    1
   133    90    91    1
   134    91    92    2
