@<TRIPOS>MOLECULE
tmp/5nt4A00.pdb
 151 153 0 0 0
SMALL
GASTEIGER

@<TRIPOS>ATOM
      1  N         -9.5790  -41.7800   17.3840 N.3    80  HIS80      -0.1226
      2  CA        -9.1910  -41.5240   16.0270 C.3    80  HIS80       0.1752
      3  C        -10.4130  -41.2850   15.1780 C.2    80  HIS80       0.2597
      4  O        -11.3480  -42.1010   15.1960 O.2    80  HIS80      -0.2718
      5  CB        -8.4490  -42.7100   15.4490 C.3    80  HIS80       0.0759
      6  CG        -7.9130  -42.4640   14.0840 C.ar   80  HIS80       0.0818
      7  ND1       -6.7660  -41.7250   13.8570 N.ar   80  HIS80      -0.2268
      8  CD2       -8.3550  -42.8620   12.8630 C.ar   80  HIS80       0.1154
      9  CE1       -6.5180  -41.6990   12.5590 C.ar   80  HIS80       0.1986
     10  NE2       -7.4560  -42.3960   11.9390 N.ar   80  HIS80      -0.2212
     11  N        -10.4020  -40.1690   14.4660 N.am   81  GLY81      -0.1942
     12  CA       -11.4690  -39.8510   13.5030 C.3    81  GLY81       0.2014
     13  C        -10.9130  -39.8480   12.0960 C.2    81  GLY81       0.2640
     14  O         -9.8200  -39.3370   11.8630 O.2    81  GLY81      -0.2714
     15  N        -11.6660  -40.4120   11.1460 N.am   82  SER82      -0.1936
     16  CA       -11.2000  -40.5490    9.7800 C.3    82  SER82       0.2040
     17  C        -12.3580  -40.8660    8.8490 C.2    82  SER82       0.2485
     18  O        -13.2340  -41.6280    9.2320 O.2    82  SER82      -0.2729
     19  CB       -10.2150  -41.6960    9.6780 C.3    82  SER82       0.2129
     20  OG        -9.7460  -41.8680    8.3370 O.3    82  SER82      -0.2179
     21  N        -12.3290  -40.3390    7.6070 N.am   83  PRO83      -0.2715
     22  CA       -13.2990  -40.8860    6.6310 C.3    83  PRO83       0.1536
     23  C        -13.1130  -42.3780    6.3550 C.2    83  PRO83       0.2598
     24  O        -14.0130  -42.9840    5.8180 O.2    83  PRO83      -0.2715
     25  CB       -13.0230  -40.0890    5.3430 C.3    83  PRO83       0.0310
     26  CG       -12.0970  -38.9770    5.7410 C.3    83  PRO83       0.0237
     27  CD       -11.3810  -39.4030    6.9800 C.3    83  PRO83       0.0939
     28  N        -11.9820  -42.9710    6.7260 N.am   84  PHE84      -0.1974
     29  CA       -11.6930  -44.3600    6.3940 C.3    84  PHE84       0.1639
     30  C        -11.8460  -45.3340    7.5440 C.2    84  PHE84       0.2290
     31  O        -11.2320  -46.3860    7.5270 O.2    84  PHE84      -0.2864
     32  CB       -10.3030  -44.4270    5.7730 C.3    84  PHE84       0.0560
     33  CG       -10.1480  -43.4650    4.6450 C.ar   84  PHE84      -0.0200
     34  CD1      -10.9620  -43.5860    3.5070 C.ar   84  PHE84      -0.0042
     35  CD2       -9.3060  -42.3760    4.7480 C.ar   84  PHE84      -0.0042
     36  CE1      -10.8820  -42.6670    2.4640 C.ar   84  PHE84      -0.0003
     37  CE2       -9.2180  -41.4520    3.7040 C.ar   84  PHE84      -0.0003
     38  CZ       -10.0090  -41.5970    2.5660 C.ar   84  PHE84      -0.0000
     39  N         -1.6280  -45.4720    4.3900 N.3    96  ARG96      -0.1231
     40  CA        -2.7470  -44.7670    3.7650 C.3    96  ARG96       0.1694
     41  C         -3.6780  -44.0430    4.7270 C.2    96  ARG96       0.2592
     42  O         -4.5490  -43.2970    4.2760 O.2    96  ARG96      -0.2718
     43  CB        -3.5920  -45.7330    2.9380 C.3    96  ARG96       0.0321
     44  CG        -2.8340  -46.3300    1.7610 C.3    96  ARG96       0.0489
     45  CD        -3.7460  -47.2090    0.9060 C.3    96  ARG96       0.2205
     46  NE        -4.4590  -48.2610    1.6480 N.pl3  96  ARG96      -0.0865
     47  CZ        -3.9170  -49.3970    2.1080 C.cat  96  ARG96       0.5346
     48  NH1       -2.6150  -49.6740    1.9420 N.pl3  96  ARG96       0.1354
     49  NH2       -4.6860  -50.2740    2.7500 N.pl3  96  ARG96       0.1354
     50  N         -3.5480  -44.3170    6.0230 N.am   97  HIS97      -0.1962
     51  CA        -4.3490  -43.6400    7.0690 C.3    97  HIS97       0.1787
     52  C         -3.6000  -42.4680    7.7280 C.2    97  HIS97       0.2620
     53  O         -4.1480  -41.8360    8.6620 O.2    97  HIS97      -0.2715
     54  CB        -4.8320  -44.6900    8.0810 C.3    97  HIS97       0.0785
     55  CG        -5.6220  -45.7700    7.4230 C.ar   97  HIS97       0.0821
     56  ND1       -6.7640  -45.4980    6.7120 N.ar   97  HIS97      -0.2267
     57  CD2       -5.3900  -47.0890    7.2640 C.ar   97  HIS97       0.1154
     58  CE1       -7.2230  -46.6110    6.1750 C.ar   97  HIS97       0.1986
     59  NE2       -6.4060  -47.5930    6.4930 N.ar   97  HIS97      -0.2212
     60  N         -2.4040  -42.1450    7.1880 N.am   98  ALA98      -0.1963
     61  CA        -1.5250  -41.1180    7.7370 C.3    98  ALA98       0.1728
     62  C         -1.9770  -39.7400    7.3180 C.2    98  ALA98       0.2616
     63  O         -2.5330  -39.5750    6.2330 O.2    98  ALA98      -0.2715
     64  CB        -0.0810  -41.3360    7.2950 C.3    98  ALA98       0.0334
     65  N         -1.7580  -38.7620    8.1890 N.am   99  TYR99      -0.1960
     66  CA        -2.0950  -37.3770    7.9030 C.3    99  TYR99       0.1771
     67  C         -0.8060  -36.7420    7.3940 C.2    99  TYR99       0.2619
     68  O          0.0890  -36.3940    8.1760 O.2    99  TYR99      -0.2715
     69  CB        -2.6200  -36.7150    9.1700 C.3    99  TYR99       0.0574
     70  CG        -2.9820  -35.2640    9.0570 C.ar   99  TYR99      -0.0198
     71  CD1       -3.0630  -34.6050    7.8170 C.ar   99  TYR99      -0.0009
     72  CD2       -3.2380  -34.5190   10.2110 C.ar   99  TYR99      -0.0009
     73  CE1       -3.3860  -33.2620    7.7470 C.ar   99  TYR99       0.0417
     74  CE2       -3.5820  -33.1900   10.1350 C.ar   99  TYR99       0.0417
     75  CZ        -3.6550  -32.5700    8.9050 C.ar   99  TYR99       0.1957
     76  OH        -3.9910  -31.2410    8.8360 O.3    99  TYR99      -0.2866
     77  N         -0.6900  -36.6060    6.0750 N.am  100  ILE100     -0.1977
     78  CA         0.6070  -36.2470    5.4760 C.3   100  ILE100      0.1596
     79  C          1.0190  -34.8530    5.9380 C.2   100  ILE100      0.2287
     80  O          2.1610  -34.6570    6.3320 O.2   100  ILE100     -0.2864
     81  CB         0.6400  -36.3430    3.9170 C.3   100  ILE100      0.0276
     82  CG1        0.1700  -37.7280    3.4070 C.3   100  ILE100      0.0022
     83  CG2        2.0380  -36.0110    3.3800 C.3   100  ILE100      0.0022
     84  CD1        0.8510  -38.9310    4.0310 C.3   100  ILE100      0.0001
     85  N         -2.4990  -39.9990   13.4520 N.3   109  TYR109     -0.1227
     86  CA        -2.7620  -39.0990   14.5590 C.3   109  TYR109      0.1736
     87  C         -3.9090  -39.6070   15.4310 C.2   109  TYR109      0.2595
     88  O         -4.9300  -40.1220   14.9180 O.2   109  TYR109     -0.2718
     89  CB        -3.1430  -37.7320   14.0080 C.3   109  TYR109      0.0548
     90  CG        -1.9470  -36.9510   13.5550 C.ar  109  TYR109     -0.0200
     91  CD1       -1.1570  -37.3970   12.4990 C.ar  109  TYR109     -0.0009
     92  CD2       -1.5420  -35.7810   14.2400 C.ar  109  TYR109     -0.0009
     93  CE1       -0.0250  -36.6820   12.1060 C.ar  109  TYR109      0.0417
     94  CE2       -0.4240  -35.0720   13.8190 C.ar  109  TYR109      0.0417
     95  CZ         0.3410  -35.5460   12.7640 C.ar  109  TYR109      0.1957
     96  OH         1.5040  -34.8600   12.4060 O.3   109  TYR109     -0.2866
     97  N         -3.7430  -39.4240   16.7300 N.am  110  PHE110     -0.1962
     98  CA        -4.7310  -39.8150   17.7410 C.3   110  PHE110      0.1771
     99  C         -4.8860  -38.7020   18.7230 C.2   110  PHE110      0.2619
    100  O         -3.9310  -37.9040   18.9110 O.2   110  PHE110     -0.2715
    101  CB        -4.2500  -41.0560   18.4690 C.3   110  PHE110      0.0574
    102  CG        -4.2130  -42.2630   17.6020 C.ar  110  PHE110     -0.0200
    103  CD1       -3.0980  -42.5400   16.8460 C.ar  110  PHE110     -0.0042
    104  CD2       -5.3210  -43.1000   17.5090 C.ar  110  PHE110     -0.0042
    105  CE1       -3.0680  -43.6220   15.9930 C.ar  110  PHE110     -0.0003
    106  CE2       -5.2930  -44.2140   16.6820 C.ar  110  PHE110     -0.0003
    107  CZ        -4.1650  -44.4720   15.9130 C.ar  110  PHE110     -0.0000
    108  N         -6.0530  -38.6360   19.3660 N.am  111  ALA111     -0.1977
    109  CA        -6.3210  -37.5850   20.3310 C.3   111  ALA111      0.1597
    110  C         -6.8560  -38.1140   21.6430 C.2   111  ALA111      0.2287
    111  O         -7.6370  -39.0920   21.6880 O.2   111  ALA111     -0.2864
    112  CB        -7.3310  -36.5860   19.7770 C.3   111  ALA111      0.0319
    113  N        -11.6370  -33.4330   19.3460 N.3   116  LYS116     -0.1231
    114  CA       -10.5640  -33.2290   18.3480 C.3   116  LYS116      0.1693
    115  C        -10.6660  -34.2630   17.2170 C.2   116  LYS116      0.2592
    116  O        -10.7020  -33.8970   16.0410 O.2   116  LYS116     -0.2718
    117  CB        -9.1910  -33.2900   19.0050 C.3   116  LYS116      0.0285
    118  CG        -7.9820  -33.3160   18.0890 C.3   116  LYS116      0.0035
    119  CD        -7.9270  -32.2250   17.0190 C.3   116  LYS116      0.0206
    120  CE        -7.7610  -30.8630   17.5670 C.3   116  LYS116      0.1093
    121  NZ        -7.5700  -29.8630   16.4550 N.3   116  LYS116     -0.1314
    122  N        -10.7060  -35.5460   17.5570 N.am  117  SER117     -0.1952
    123  CA       -10.9280  -36.5710   16.5290 C.3   117  SER117      0.1924
    124  C        -12.2200  -36.3500   15.7320 C.2   117  SER117      0.2314
    125  O        -12.2550  -36.6310   14.5460 O.2   117  SER117     -0.2863
    126  CB       -10.9110  -37.9640   17.1280 C.3   117  SER117      0.2116
    127  OG        -9.5990  -38.3110   17.5250 O.3   117  SER117     -0.2180
    128  N        -12.1720  -34.6870   12.2870 N.3   120  TYR120     -0.1241
    129  CA       -11.6160  -35.4010   11.1530 C.3   120  TYR120      0.1605
    130  C        -12.5080  -36.4850   10.5590 C.2   120  TYR120      0.2264
    131  O        -12.1460  -37.1280    9.5890 O.2   120  TYR120     -0.2867
    132  CB       -10.2660  -36.0110   11.5380 C.3   120  TYR120      0.0534
    133  CG        -9.2450  -34.9530   11.8050 C.ar  120  TYR120     -0.0201
    134  CD1       -8.4780  -34.4430   10.7770 C.ar  120  TYR120     -0.0009
    135  CD2       -9.1090  -34.4010   13.0680 C.ar  120  TYR120     -0.0009
    136  CE1       -7.5400  -33.4450   11.0130 C.ar  120  TYR120      0.0417
    137  CE2       -8.1940  -33.4000   13.3040 C.ar  120  TYR120      0.0417
    138  CZ        -7.4110  -32.9380   12.2870 C.ar  120  TYR120      0.1957
    139  OH        -6.5060  -31.9370   12.5460 O.3   120  TYR120     -0.2866
    140  N        -13.0800  -35.6970    7.0910 N.3   123  GLY123     -0.1210
    141  CA       -11.8580  -35.3110    6.4110 C.3   123  GLY123      0.1956
    142  C        -11.0990  -34.2160    7.1300 C.2   123  GLY123      0.2611
    143  O        -11.5530  -33.6940    8.1760 O.2   123  GLY123     -0.2717
    144  N         -9.9550  -33.8450    6.5510 N.am  124  ILE124     -0.1979
    145  CA        -9.0910  -32.8120    7.1310 C.3   124  ILE124      0.1595
    146  C         -9.9200  -31.5330    7.1740 C.2   124  ILE124      0.2287
    147  O        -10.5650  -31.1870    6.1930 O.2   124  ILE124     -0.2864
    148  CB        -7.8000  -32.5660    6.3010 C.3   124  ILE124      0.0276
    149  CG1       -6.8810  -33.7900    6.3460 C.3   124  ILE124      0.0022
    150  CG2       -7.0410  -31.3280    6.8140 C.3   124  ILE124      0.0022
    151  CD1       -5.9020  -33.8800    5.1830 C.3   124  ILE124      0.0001
@<TRIPOS>BOND
     1    45    46    1
     2    45    44    1
     3    46    47    2
     4    44    43    1
     5    48    47    1
     6    47    49    1
     7    36    38   ar
     8    36    34   ar
     9    38    37   ar
    10    43    40    1
    11    83    81    1
    12    82    81    1
    13    82    84    1
    14    34    33   ar
    15    37    35   ar
    16    40    39    1
    17    40    41    1
    18    81    78    1
    19    42    41    2
    20    33    35   ar
    21    33    32    1
    22    41    50   am
    23   151   149    1
    24    25    26    1
    25    25    22    1
    26    78    79    1
    27    78    77    1
    28    26    27    1
    29    32    29    1
    30    24    23    2
    31    79    80    2
    32    50    51    1
    33    77    67   am
    34    58    59   ar
    35    58    56   ar
    36   147   146    2
    37    63    62    2
    38   148   149    1
    39   148   150    1
    40   148   145    1
    41    23    22    1
    42    23    28   am
    43    29    28    1
    44    29    30    1
    45   141   140    1
    46   141   142    1
    47    59    57   ar
    48   144   142   am
    49   144   145    1
    50    22    21    1
    51    56    55   ar
    52    27    21    1
    53    51    52    1
    54    51    54    1
    55   142   143    2
    56   145   146    1
    57    60    52   am
    58    60    61    1
    59    57    55   ar
    60    64    61    1
    61    62    61    1
    62    62    65   am
    63    67    66    1
    64    67    68    2
    65    55    54    1
    66    31    30    2
    67    21    17   am
    68    52    53    2
    69    73    71   ar
    70    73    75   ar
    71    71    70   ar
    72    66    65    1
    73    66    69    1
    74    20    19    1
    75    76    75    1
    76    17    18    2
    77    17    16    1
    78    75    74   ar
    79    70    69    1
    80    70    72   ar
    81   131   130    2
    82    19    16    1
    83    16    15    1
    84    74    72   ar
    85   130   129    1
    86   134   136   ar
    87   134   133   ar
    88   136   138   ar
    89    15    13   am
    90   129   132    1
    91   129   128    1
    92   132   133    1
    93   133   135   ar
    94    14    13    2
    95    10     9   ar
    96    10     8   ar
    97    13    12    1
    98    93    91   ar
    99    93    95   ar
   100   138   139    1
   101   138   137   ar
   102    96    95    1
   103    91    90   ar
   104     9     7   ar
   105    95    94   ar
   106     8     6   ar
   107   135   137   ar
   108    85    86    1
   109    12    11    1
   110    90    89    1
   111    90    92   ar
   112    94    92   ar
   113     7     6   ar
   114    89    86    1
   115     6     5    1
   116    11     3   am
   117   125   124    2
   118    86    87    1
   119    88    87    2
   120     3     4    2
   121     3     2    1
   122    87    97   am
   123     5     2    1
   124   124   123    1
   125   107   105   ar
   126   107   106   ar
   127   105   103   ar
   128     2     1    1
   129   116   115    2
   130   121   120    1
   131   123   126    1
   132   123   122    1
   133   106   104   ar
   134    97    98    1
   135   103   102   ar
   136   119   120    1
   137   119   118    1
   138   126   127    1
   139   115   122   am
   140   115   114    1
   141   104   102   ar
   142   102   101    1
   143    98   101    1
   144    98    99    1
   145   118   117    1
   146   114   117    1
   147   114   113    1
   148    99   100    2
   149    99   108   am
   150   108   109    1
   151   112   109    1
   152   109   110    1
   153   110   111    2
