@<TRIPOS>MOLECULE
tmp/5ntcD01.pdb
 127 121 0 0 0
SMALL
GASTEIGER

@<TRIPOS>ATOM
      1  N         46.6310   32.5870  191.1100 N.3     2  ALA2       -0.1245
      2  CA        47.4450   31.6910  191.9230 C.3     2  ALA2        0.1562
      3  C         46.4720   30.9280  192.8230 C.2     2  ALA2        0.2260
      4  O         46.6050   29.7110  193.0800 O.2     2  ALA2       -0.2867
      5  CB        48.4710   32.4770  192.7400 C.3     2  ALA2        0.0290
      6  N         44.8900   28.2330  190.7630 N.3     5  TYR5       -0.1227
      7  CA        45.8360   27.1360  190.6140 C.3     5  TYR5        0.1736
      8  C         45.7880   26.2410  191.8530 C.2     5  TYR5        0.2595
      9  O         45.5560   25.0010  191.7860 O.2     5  TYR5       -0.2718
     10  CB        47.2450   27.7000  190.3970 C.3     5  TYR5        0.0548
     11  CG        48.3440   26.6690  190.3580 C.ar    5  TYR5       -0.0200
     12  CD1       48.9700   26.2470  191.5210 C.ar    5  TYR5       -0.0009
     13  CD2       48.7650   26.1280  189.1530 C.ar    5  TYR5       -0.0009
     14  CE1       49.9770   25.3040  191.4850 C.ar    5  TYR5        0.0417
     15  CE2       49.7720   25.1880  189.1050 C.ar    5  TYR5        0.0417
     16  CZ        50.3740   24.7780  190.2730 C.ar    5  TYR5        0.1957
     17  OH        51.3790   23.8390  190.2270 O.3     5  TYR5       -0.2866
     18  N         45.9410   26.8730  193.0090 N.am    6  PHE6       -0.1976
     19  CA        45.9720   26.0970  194.2380 C.3     6  PHE6        0.1639
     20  C         44.6000   25.5200  194.5950 C.2     6  PHE6        0.2290
     21  O         44.5270   24.4700  195.2320 O.2     6  PHE6       -0.2864
     22  CB        46.5620   26.9480  195.3640 C.3     6  PHE6        0.0560
     23  CG        48.0350   27.2160  195.1800 C.ar    6  PHE6       -0.0200
     24  CD1       48.9200   26.1560  195.0680 C.ar    6  PHE6       -0.0042
     25  CD2       48.5310   28.5060  195.0840 C.ar    6  PHE6       -0.0042
     26  CE1       50.2670   26.3690  194.8790 C.ar    6  PHE6       -0.0003
     27  CE2       49.8890   28.7270  194.8970 C.ar    6  PHE6       -0.0003
     28  CZ        50.7550   27.6530  194.7960 C.ar    6  PHE6       -0.0000
     29  N         53.6620   28.2340  200.4340 N.3    97  LYS97      -0.1245
     30  CA        54.4050   28.3540  199.1880 C.3    97  LYS97       0.1561
     31  C         55.8940   28.1840  199.4620 C.2    97  LYS97       0.2260
     32  O         56.4070   28.6940  200.4570 O.2    97  LYS97      -0.2867
     33  CB        54.1160   29.7010  198.5230 C.3    97  LYS97       0.0271
     34  CG        52.6480   29.8750  198.1640 C.3    97  LYS97       0.0035
     35  CD        52.3110   31.2890  197.7250 C.3    97  LYS97       0.0206
     36  CE        50.8100   31.4400  197.5210 C.3    97  LYS97       0.1093
     37  NZ        50.4700   32.5270  196.5600 N.3    97  LYS97      -0.1314
     38  N         58.2200   29.5760  198.2100 N.3    99  GLU99      -0.1245
     39  CA        58.8460   30.8890  198.1830 C.3    99  GLU99       0.1567
     40  C         58.7760   31.5960  199.5440 C.2    99  GLU99       0.2260
     41  O         59.5510   32.5180  199.8050 O.2    99  GLU99      -0.2867
     42  CB        58.1920   31.7630  197.1010 C.3    99  GLU99       0.0388
     43  CG        58.4530   31.3160  195.6530 C.3    99  GLU99       0.1160
     44  CD        57.4650   30.2760  195.1450 C.2    99  GLU99       0.3649
     45  OE1       56.6620   29.7580  195.9520 O.co2  99  GLU99      -0.2457
     46  OE2       57.4890   29.9880  193.9260 O.co2  99  GLU99      -0.2457
     47  N         52.1330   26.1930  183.3270 N.3   122  GLU122     -0.1231
     48  CA        51.7830   26.2500  184.7570 C.3   122  GLU122      0.1699
     49  C         52.8630   26.9590  185.5850 C.2   122  GLU122      0.2592
     50  O         52.6110   27.3710  186.7200 O.2   122  GLU122     -0.2718
     51  CB        51.5120   24.8520  185.3410 C.3   122  GLU122      0.0402
     52  CG        50.3510   24.1050  184.6820 C.3   122  GLU122      0.1161
     53  CD        50.0640   22.7660  185.3370 C.2   122  GLU122      0.3649
     54  OE1       49.9650   22.7190  186.5820 O.co2 122  GLU122     -0.2457
     55  OE2       49.9590   21.7560  184.6090 O.co2 122  GLU122     -0.2457
     56  N         54.0580   27.0930  185.0140 N.am  123  ARG123     -0.1966
     57  CA        55.1560   27.8430  185.6290 C.3   123  ARG123      0.1729
     58  C         55.4810   27.4020  187.0500 C.2   123  ARG123      0.2616
     59  O         55.6420   28.2260  187.9500 O.2   123  ARG123     -0.2715
     60  CB        54.8590   29.3410  185.6150 C.3   123  ARG123      0.0348
     61  CG        55.0290   29.9400  184.2400 C.3   123  ARG123      0.0492
     62  CD        54.6170   31.3870  184.2060 C.3   123  ARG123      0.2205
     63  NE        55.5010   32.2070  185.0300 N.pl3 123  ARG123     -0.0865
     64  CZ        55.3000   33.4930  185.2880 C.cat 123  ARG123      0.5346
     65  NH1       54.2390   34.1130  184.7900 N.pl3 123  ARG123      0.1354
     66  NH2       56.1620   34.1610  186.0430 N.pl3 123  ARG123      0.1354
     67  N         55.5610   26.0940  187.2490 N.am  124  MET124     -0.1977
     68  CA        56.0400   25.5550  188.5090 C.3   124  MET124      0.1605
     69  C         57.5570   25.4010  188.5000 C.2   124  MET124      0.2287
     70  O         58.1830   25.3130  189.5570 O.2   124  MET124     -0.2864
     71  CB        55.3870   24.2050  188.7970 C.3   124  MET124      0.0413
     72  CG        55.8170   23.6130  190.1200 C.3   124  MET124      0.0598
     73  SD        54.8170   22.2100  190.6160 S.3   124  MET124     -0.1393
     74  CE        55.6870   21.6960  192.1010 C.3   124  MET124      0.0692
     75  N         59.9090   27.5350  187.8050 N.3   126  GLU126     -0.1231
     76  CA        60.5760   28.6390  188.4880 C.3   126  GLU126      0.1699
     77  C         60.5180   28.4710  190.0120 C.2   126  GLU126      0.2592
     78  O         61.4620   28.8360  190.6990 O.2   126  GLU126     -0.2718
     79  CB        60.0090   29.9910  188.0420 C.3   126  GLU126      0.0402
     80  CG        58.5600   30.2540  188.3490 C.3   126  GLU126      0.1161
     81  CD        57.9770   31.3040  187.4200 C.2   126  GLU126      0.3649
     82  OE1       57.5670   32.3750  187.9100 O.co2 126  GLU126     -0.2457
     83  OE2       57.9410   31.0590  186.1950 O.co2 126  GLU126     -0.2457
     84  N         59.4070   27.9670  190.5450 N.am  127  SER127     -0.1952
     85  CA        59.3200   27.6980  191.9820 C.3   127  SER127      0.1924
     86  C         60.3370   26.6140  192.3600 C.2   127  SER127      0.2314
     87  O         61.0810   26.7330  193.3530 O.2   127  SER127     -0.2863
     88  CB        57.9030   27.2610  192.3680 C.3   127  SER127      0.2116
     89  OG        56.9450   28.2350  191.9940 O.3   127  SER127     -0.2180
     90  N         63.5400   28.2350  192.3890 N.3   130  HIS130     -0.1241
     91  CA        63.5850   29.0930  193.5690 C.3   130  HIS130      0.1621
     92  C         64.0010   28.2880  194.7870 C.2   130  HIS130      0.2264
     93  O         64.7940   28.7440  195.6090 O.2   130  HIS130     -0.2867
     94  CB        62.2280   29.7430  193.8310 C.3   130  HIS130      0.0745
     95  CG        62.2180   30.6520  195.0180 C.ar  130  HIS130      0.0817
     96  ND1       62.4830   32.0020  194.9270 N.ar  130  HIS130     -0.2268
     97  CD2       62.0010   30.3990  196.3300 C.ar  130  HIS130      0.1154
     98  CE1       62.4110   32.5440  196.1290 C.ar  130  HIS130      0.1986
     99  NE2       62.1190   31.5920  196.9980 N.ar  130  HIS130     -0.2212
    100  N         66.0880   31.0520  188.4240 N.3   220  GLU220     -0.1245
    101  CA        64.6540   31.3160  188.3820 C.3   220  GLU220      0.1567
    102  C         64.2700   32.3110  187.2820 C.2   220  GLU220      0.2260
    103  O         63.4290   32.0200  186.4170 O.2   220  GLU220     -0.2867
    104  CB        64.2190   31.8330  189.7570 C.3   220  GLU220      0.0388
    105  CG        62.7310   32.0190  189.9580 C.3   220  GLU220      0.1160
    106  CD        62.4000   32.3950  191.3910 C.2   220  GLU220      0.3649
    107  OE1       63.3230   32.4240  192.2310 O.co2 220  GLU220     -0.2457
    108  OE2       61.2160   32.6470  191.6830 O.co2 220  GLU220     -0.2457
    109  N         61.6070   33.5060  182.9450 N.3   224  HIS224     -0.1241
    110  CA        60.7190   34.6210  182.6410 C.3   224  HIS224      0.1621
    111  C         60.8040   34.9820  181.1530 C.2   224  HIS224      0.2264
    112  O         59.8610   35.5350  180.5880 O.2   224  HIS224     -0.2867
    113  CB        61.0450   35.8150  183.5360 C.3   224  HIS224      0.0745
    114  CG        60.8410   35.5350  184.9920 C.ar  224  HIS224      0.0817
    115  ND1       61.5030   36.2210  185.9880 N.ar  224  HIS224     -0.2268
    116  CD2       60.0520   34.6300  185.6190 C.ar  224  HIS224      0.1154
    117  CE1       61.1250   35.7550  187.1650 C.ar  224  HIS224      0.1986
    118  NE2       60.2460   34.7890  186.9700 N.ar  224  HIS224     -0.2212
    119  N         50.1040   33.9820  185.3510 N.3   302  GLN302     -0.1245
    120  CA        50.6280   32.6270  185.5980 C.3   302  GLN302      0.1566
    121  C         50.8260   31.7680  184.3490 C.2   302  GLN302      0.2260
    122  O         50.7210   30.5440  184.4030 O.2   302  GLN302     -0.2867
    123  CB        49.7280   31.8940  186.6010 C.3   302  GLN302      0.0367
    124  CG        50.0790   32.2440  188.0350 C.3   302  GLN302      0.0905
    125  CD        49.4360   33.5200  188.5160 C.2   302  GLN302      0.2608
    126  OE1       48.4510   33.9900  187.9480 O.2   302  GLN302     -0.2717
    127  NE2       50.0380   34.1300  189.5280 N.am  302  GLN302     -0.0878
@<TRIPOS>BOND
     1   112   111    2
     2   111   110    1
     3   110   109    1
     4   110   113    1
     5    47    48    1
     6   113   114    1
     7    62    61    1
     8    62    63    1
     9    61    60    1
    10   121   122    2
    11   121   120    1
    12    55    53   ar
    13    52    53    1
    14    52    51    1
    15    48    51    1
    16    48    49    1
    17    65    64    1
    18   114   116   ar
    19   114   115   ar
    20    56    49   am
    21    56    57    1
    22    63    64    2
    23    64    66    1
    24    53    54   ar
    25   119   120    1
    26    49    50    2
    27   120   123    1
    28    60    57    1
    29   116   118   ar
    30    57    58    1
    31   115   117   ar
    32    83    81   ar
    33   103   102    2
    34   123   124    1
    35   118   117   ar
    36    58    67   am
    37    58    59    2
    38    67    68    1
    39   102   101    1
    40    81    82   ar
    41    81    80    1
    42    75    76    1
    43   126   125    2
    44   124   125    1
    45    79    80    1
    46    79    76    1
    47   101   100    1
    48   101   104    1
    49    76    77    1
    50    69    68    1
    51    69    70    2
    52    68    71    1
    53   125   127   am
    54    71    72    1
    55    15    13   ar
    56    15    16   ar
    57    13    11   ar
    58   104   105    1
    59   105   106    1
    60    77    84   am
    61    77    78    2
    62    72    73    1
    63    17    16    1
    64    16    14   ar
    65    11    10    1
    66    11    12   ar
    67    10     7    1
    68    84    85    1
    69     7     6    1
    70     7     8    1
    71    73    74    1
    72     1     2    1
    73   106   108   ar
    74   106   107   ar
    75    14    12   ar
    76     9     8    2
    77     8    18   am
    78     2     5    1
    79     2     3    1
    80    85    86    1
    81    85    88    1
    82    89    88    1
    83    86    87    2
    84    90    91    1
    85     3     4    2
    86    18    19    1
    87    91    94    1
    88    91    92    1
    89    94    95    1
    90    46    44   ar
    91    19    20    1
    92    19    22    1
    93    20    21    2
    94    92    93    2
    95    28    26   ar
    96    28    27   ar
    97    26    24   ar
    98    27    25   ar
    99    96    95   ar
   100    96    98   ar
   101    95    97   ar
   102    24    23   ar
   103    25    23   ar
   104    44    43    1
   105    44    45   ar
   106    23    22    1
   107    43    42    1
   108    98    99   ar
   109    97    99   ar
   110    37    36    1
   111    42    39    1
   112    36    35    1
   113    35    34    1
   114    34    33    1
   115    39    38    1
   116    39    40    1
   117    33    30    1
   118    30    31    1
   119    30    29    1
   120    31    32    2
   121    40    41    2
