@<TRIPOS>MOLECULE
tmp/5ntdL00.pdb
 90 85 0 0 0
SMALL
GASTEIGER

@<TRIPOS>ATOM
      1  N        -15.2150  -16.7630  -74.0440 N.3    18  VAL18      -0.1231
      2  CA       -14.7070  -16.9980  -72.6520 C.3    18  VAL18       0.1692
      3  C        -14.7380  -15.6900  -71.8430 C.2    18  VAL18       0.2592
      4  O        -14.9870  -15.6930  -70.6470 O.2    18  VAL18      -0.2718
      5  CB       -13.3060  -17.6100  -72.6760 C.3    18  VAL18       0.0266
      6  CG1      -12.6830  -17.6290  -71.2900 C.3    18  VAL18       0.0020
      7  CG2      -13.3580  -19.0240  -73.2310 C.3    18  VAL18       0.0020
      8  N        -14.4580  -14.5880  -72.5240 N.am   19  GLU19      -0.1966
      9  CA       -14.3220  -13.2560  -71.8760 C.3    19  GLU19       0.1733
     10  C        -15.5600  -12.3990  -72.0330 C.2    19  GLU19       0.2616
     11  O        -15.5710  -11.2290  -71.6610 O.2    19  GLU19      -0.2715
     12  CB       -13.1210  -12.5020  -72.4430 C.3    19  GLU19       0.0429
     13  CG       -11.8230  -13.2600  -72.2070 C.3    19  GLU19       0.1163
     14  CD       -10.6410  -12.5460  -72.7940 C.2    19  GLU19       0.3649
     15  OE1      -10.7890  -11.4040  -73.3110 O.co2  19  GLU19      -0.2457
     16  OE2       -9.5070  -13.1050  -72.6590 O.co2  19  GLU19      -0.2457
     17  N        -16.6280  -13.0050  -72.5490 N.am   20  TYR20      -0.1960
     18  CA       -17.8710  -12.2480  -72.7820 C.3    20  TYR20       0.1771
     19  C        -18.3270  -11.5520  -71.5010 C.2    20  TYR20       0.2619
     20  O        -18.4810  -12.1750  -70.4540 O.2    20  TYR20      -0.2715
     21  CB       -19.0100  -13.1200  -73.3730 C.3    20  TYR20       0.0574
     22  CG       -20.2080  -12.2590  -73.6500 C.ar   20  TYR20      -0.0198
     23  CD1      -20.2200  -11.3890  -74.7270 C.ar   20  TYR20      -0.0009
     24  CD2      -21.2540  -12.2200  -72.7850 C.ar   20  TYR20      -0.0009
     25  CE1      -21.2750  -10.5090  -74.9240 C.ar   20  TYR20       0.0417
     26  CE2      -22.3190  -11.3370  -72.9770 C.ar   20  TYR20       0.0417
     27  CZ       -22.3180  -10.5050  -74.0280 C.ar   20  TYR20       0.1957
     28  OH       -23.3730   -9.6500  -74.2350 O.3    20  TYR20      -0.2866
     29  N        -18.5990  -10.2650  -71.6360 N.am   21  LYS21      -0.1963
     30  CA       -19.1980   -9.4270  -70.5750 C.3    21  LYS21       0.1728
     31  C        -20.4930   -8.7960  -71.1100 C.2    21  LYS21       0.2616
     32  O        -20.5330   -8.3520  -72.2460 O.2    21  LYS21      -0.2715
     33  CB       -18.1770   -8.3060  -70.1120 C.3    21  LYS21       0.0311
     34  CG       -17.0810   -8.8080  -69.2050 C.3    21  LYS21       0.0038
     35  CD       -17.6520   -9.2350  -67.8710 C.3    21  LYS21       0.0206
     36  CE       -16.5960   -9.8670  -66.9940 C.3    21  LYS21       0.1093
     37  NZ       -16.0770  -11.1140  -67.6100 N.3    21  LYS21      -0.1314
     38  N        -21.5160   -8.6910  -70.2580 N.am   22  THR22      -0.1951
     39  CA       -22.7960   -8.1490  -70.6850 C.3    22  THR22       0.1897
     40  C        -22.7710   -6.6600  -70.8480 C.2    22  THR22       0.2313
     41  O        -21.9380   -5.9610  -70.2960 O.2    22  THR22      -0.2863
     42  CB       -23.9310   -8.4770  -69.7380 C.3    22  THR22       0.1794
     43  OG1      -25.1680   -7.9140  -70.2500 O.3    22  THR22      -0.2208
     44  CG2      -23.6660   -7.8650  -68.3370 C.3    22  THR22       0.0378
     45  N        -25.6320   -7.0840  -59.3040 N.3   195  LYS195     -0.1245
     46  CA       -24.5170   -7.9130  -59.8230 C.3   195  LYS195      0.1561
     47  C        -25.0300   -9.3350  -60.1800 C.2   195  LYS195      0.2260
     48  O        -24.5120  -10.0070  -61.0790 O.2   195  LYS195     -0.2867
     49  CB       -23.3210   -7.9740  -58.8260 C.3   195  LYS195      0.0271
     50  CG       -22.6070   -6.6450  -58.6540 C.3   195  LYS195      0.0035
     51  CD       -21.6320   -6.4030  -59.8040 C.3   195  LYS195      0.0206
     52  CE       -21.1450   -4.9590  -59.8860 C.3   195  LYS195      0.1093
     53  NZ       -22.1640   -4.0540  -60.5180 N.3   195  LYS195     -0.1314
     54  N        -26.8180   -9.0670  -63.3450 N.3   198  GLU198     -0.1231
     55  CA       -25.8310   -9.0090  -64.4200 C.3   198  GLU198      0.1699
     56  C        -25.3740  -10.3950  -64.8230 C.2   198  GLU198      0.2592
     57  O        -25.1770  -10.6720  -66.0020 O.2   198  GLU198     -0.2718
     58  CB       -24.6060   -8.2100  -64.0080 C.3   198  GLU198      0.0402
     59  CG       -24.8010   -6.7210  -64.1940 C.3   198  GLU198      0.1161
     60  CD       -23.5300   -5.9170  -63.9430 C.2   198  GLU198      0.3649
     61  OE1      -22.4110   -6.4280  -64.1980 O.co2 198  GLU198     -0.2457
     62  OE2      -23.6700   -4.7500  -63.5210 O.co2 198  GLU198     -0.2457
     63  N        -25.1510  -11.2430  -63.8310 N.am  199  ALA199     -0.1980
     64  CA       -24.6970  -12.6020  -64.1100 C.3   199  ALA199      0.1597
     65  C        -25.7380  -13.3730  -64.9920 C.2   199  ALA199      0.2287
     66  O        -25.3690  -14.0950  -65.9040 O.2   199  ALA199     -0.2864
     67  CB       -24.4130  -13.3590  -62.8390 C.3   199  ALA199      0.0319
     68  N        -25.7390  -11.9170  -68.4310 N.3   202  THR202     -0.1218
     69  CA       -24.5160  -12.3690  -69.0970 C.3   202  THR202      0.1862
     70  C        -24.7230  -13.7820  -69.6830 C.2   202  THR202      0.2287
     71  O        -24.3330  -14.0640  -70.8030 O.2   202  THR202     -0.2866
     72  CB       -23.3260  -12.3480  -68.1380 C.3   202  THR202      0.1770
     73  OG1      -23.1800  -11.0040  -67.6570 O.3   202  THR202     -0.2211
     74  CG2      -22.0550  -12.7800  -68.8150 C.3   202  THR202      0.0375
     75  N        -10.9360  -20.3560  -65.4960 N.3   233  ALA233     -0.1245
     76  CA       -11.2780  -19.0630  -64.8720 C.3   233  ALA233      0.1562
     77  C        -12.0640  -19.1980  -63.5830 C.2   233  ALA233      0.2260
     78  O        -11.8280  -18.4630  -62.6280 O.2   233  ALA233     -0.2867
     79  CB       -12.0550  -18.1890  -65.8400 C.3   233  ALA233      0.0290
     80  N        -21.2240  -18.9080  -60.8540 N.3   326  ARG326     -0.1245
     81  CA       -20.9610  -17.4850  -60.5900 C.3   326  ARG326      0.1563
     82  C        -21.7250  -16.9440  -59.4040 C.2   326  ARG326      0.2260
     83  O        -21.1710  -16.1870  -58.6110 O.2   326  ARG326     -0.2867
     84  CB       -21.2490  -16.6370  -61.7950 C.3   326  ARG326      0.0307
     85  CG       -20.1150  -16.6810  -62.7930 C.3   326  ARG326      0.0489
     86  CD       -20.5190  -16.0250  -64.1100 C.3   326  ARG326      0.2205
     87  NE       -19.3410  -15.6840  -64.8950 N.pl3 326  ARG326     -0.0865
     88  CZ       -19.3540  -15.3220  -66.1770 C.cat 326  ARG326      0.5346
     89  NH1      -20.5000  -15.3010  -66.8940 N.pl3 326  ARG326      0.1354
     90  NH2      -18.1960  -14.9950  -66.7610 N.pl3 326  ARG326      0.1354
@<TRIPOS>BOND
     1    25    23   ar
     2    25    27   ar
     3    23    22   ar
     4    28    27    1
     5     1     2    1
     6    27    26   ar
     7    22    21    1
     8    22    24   ar
     9    21    18    1
    10    15    14   ar
    11     7     5    1
    12    26    24   ar
    13    14    16   ar
    14    14    13    1
    15    18    17    1
    16    18    19    1
    17     5     2    1
    18     5     6    1
    19     2     3    1
    20    17    10   am
    21     8     9    1
    22     8     3   am
    23    12    13    1
    24    12     9    1
    25    32    31    2
    26    10     9    1
    27    10    11    2
    28     3     4    2
    29    29    19   am
    30    29    30    1
    31    19    20    2
    32    31    30    1
    33    31    38   am
    34    40    39    1
    35    40    41    2
    36    71    70    2
    37    39    38    1
    38    39    42    1
    39    30    33    1
    40    43    42    1
    41    33    34    1
    42    42    44    1
    43    70    69    1
    44    34    35    1
    45    69    68    1
    46    69    72    1
    47    74    72    1
    48    72    73    1
    49    35    36    1
    50    37    36    1
    51    89    88    1
    52    90    88    1
    53    88    87    2
    54    57    56    2
    55    66    65    2
    56    79    76    1
    57    75    76    1
    58    65    64    1
    59    87    86    1
    60    76    77    1
    61    56    55    1
    62    56    63   am
    63    55    58    1
    64    55    54    1
    65    61    60   ar
    66    59    58    1
    67    59    60    1
    68    64    63    1
    69    64    67    1
    70    86    85    1
    71    60    62   ar
    72    77    78    2
    73    85    84    1
    74    84    81    1
    75    48    47    2
    76    80    81    1
    77    81    82    1
    78    53    52    1
    79    47    46    1
    80    52    51    1
    81    46    45    1
    82    46    49    1
    83    51    50    1
    84    82    83    2
    85    49    50    1
