@<TRIPOS>MOLECULE
tmp/5ntdG00.pdb
 195 186 0 0 0
SMALL
GASTEIGER

@<TRIPOS>ATOM
      1  N         24.9700  -51.2080 -121.3430 N.3   288  LYS288     -0.1245
      2  CA        24.9920  -50.0120 -120.4570 C.3   288  LYS288      0.1561
      3  C         24.7980  -48.8110 -121.3640 C.2   288  LYS288      0.2260
      4  O         25.6700  -48.4650 -122.1630 O.2   288  LYS288     -0.2867
      5  CB        26.3020  -49.8990 -119.6490 C.3   288  LYS288      0.0271
      6  CG        26.4140  -48.6360 -118.7970 C.3   288  LYS288      0.0035
      7  CD        27.8100  -48.4450 -118.1560 C.3   288  LYS288      0.0206
      8  CE        27.9410  -47.1070 -117.4100 C.3   288  LYS288      0.1093
      9  NZ        29.2820  -46.7370 -116.8740 N.3   288  LYS288     -0.1314
     10  N         27.4070  -39.6720 -117.9030 N.3   293  ASP293     -0.1239
     11  CA        27.7720  -40.1170 -116.5300 C.3   293  ASP293      0.1674
     12  C         28.4610  -38.9080 -115.8910 C.2   293  ASP293      0.2266
     13  O         29.6750  -38.7690 -115.9620 O.2   293  ASP293     -0.2867
     14  CB        28.7260  -41.3590 -116.5430 C.3   293  ASP293      0.1410
     15  CG        28.8980  -42.0340 -115.1480 C.2   293  ASP293      0.3668
     16  OD1       28.2640  -41.4890 -114.2240 O.co2 293  ASP293     -0.2456
     17  OD2       29.5970  -43.1490 -114.9980 O.co2 293  ASP293     -0.2456
     18  N         31.9050  -36.4330 -110.6280 N.3   300  LYS300     -0.1245
     19  CA        33.2280  -36.5230 -111.2440 C.3   300  LYS300      0.1561
     20  C         33.8750  -35.1500 -111.3980 C.2   300  LYS300      0.2260
     21  O         33.1980  -34.1870 -111.6960 O.2   300  LYS300     -0.2867
     22  CB        33.1720  -37.1240 -112.6430 C.3   300  LYS300      0.0271
     23  CG        32.6730  -38.5310 -112.6960 C.3   300  LYS300      0.0035
     24  CD        32.6930  -39.0330 -114.1330 C.3   300  LYS300      0.0206
     25  CE        32.1240  -40.4270 -114.1940 C.3   300  LYS300      0.1093
     26  NZ        33.0020  -41.4070 -113.4960 N.3   300  LYS300     -0.1314
     27  N         37.7350  -35.9810 -115.7890 N.3   304  TYR304     -0.1241
     28  CA        37.1700  -37.3510 -115.8780 C.3   304  TYR304      0.1605
     29  C         35.7760  -37.3620 -116.5020 C.2   304  TYR304      0.2264
     30  O         35.3930  -38.3160 -117.1240 O.2   304  TYR304     -0.2867
     31  CB        37.1170  -38.0480 -114.5160 C.3   304  TYR304      0.0534
     32  CG        38.4740  -38.3450 -113.9110 C.ar  304  TYR304     -0.0201
     33  CD1       39.2600  -39.3940 -114.3750 C.ar  304  TYR304     -0.0009
     34  CD2       38.9660  -37.5700 -112.8430 C.ar  304  TYR304     -0.0009
     35  CE1       40.5070  -39.6600 -113.8020 C.ar  304  TYR304      0.0417
     36  CE2       40.1960  -37.8340 -112.2580 C.ar  304  TYR304      0.0417
     37  CZ        40.9630  -38.8770 -112.7400 C.ar  304  TYR304      0.1957
     38  OH        42.1640  -39.1240 -112.1550 O.3   304  TYR304     -0.2866
     39  N         34.1880  -36.7080 -122.0260 N.3   307  LEU307     -0.1231
     40  CA        34.1000  -38.0360 -122.6950 C.3   307  LEU307      0.1693
     41  C         33.1820  -39.0880 -122.0340 C.2   307  LEU307      0.2591
     42  O         33.0800  -40.1990 -122.5310 O.2   307  LEU307     -0.2718
     43  CB        35.5090  -38.6070 -122.9580 C.3   307  LEU307      0.0284
     44  CG        36.4240  -37.6770 -123.8190 C.3   307  LEU307      0.0019
     45  CD1       37.7400  -38.3840 -124.1480 C.3   307  LEU307      0.0001
     46  CD2       35.7620  -37.1020 -125.1010 C.3   307  LEU307      0.0001
     47  N         32.4440  -38.7220 -120.9990 N.am  308  MET308     -0.1979
     48  CA        31.3900  -39.6170 -120.4770 C.3   308  MET308      0.1605
     49  C         30.1240  -39.6830 -121.3730 C.2   308  MET308      0.2287
     50  O         29.1880  -40.4180 -121.0840 O.2   308  MET308     -0.2864
     51  CB        31.0340  -39.2940 -119.0320 C.3   308  MET308      0.0413
     52  CG        32.1780  -39.6260 -118.0800 C.3   308  MET308      0.0598
     53  SD        32.5560  -41.3910 -118.0260 S.3   308  MET308     -0.1393
     54  CE        34.3280  -41.3970 -118.1010 C.3   308  MET308      0.0692
     55  N         30.5880  -41.0250 -124.0020 N.3   310  HIS310     -0.1226
     56  CA        30.9380  -42.3750 -124.4350 C.3   310  HIS310      0.1752
     57  C         30.3550  -43.4870 -123.5520 C.2   310  HIS310      0.2596
     58  O         30.4890  -44.6730 -123.8870 O.2   310  HIS310     -0.2718
     59  CB        32.4390  -42.5900 -124.5160 C.3   310  HIS310      0.0759
     60  CG        33.1390  -41.6940 -125.4820 C.ar  310  HIS310      0.0818
     61  ND1       34.4840  -41.4540 -125.4050 N.ar  310  HIS310     -0.2268
     62  CD2       32.7000  -40.9750 -126.5440 C.ar  310  HIS310      0.1154
     63  CE1       34.8480  -40.6150 -126.3620 C.ar  310  HIS310      0.1986
     64  NE2       33.7820  -40.3050 -127.0630 N.ar  310  HIS310     -0.2212
     65  N         29.6670  -43.1120 -122.4780 N.am  311  ASP311     -0.1974
     66  CA        29.2530  -44.0870 -121.4530 C.3   311  ASP311      0.1709
     67  C         28.0460  -44.9220 -121.8890 C.2   311  ASP311      0.2293
     68  O         27.5590  -45.7850 -121.1510 O.2   311  ASP311     -0.2864
     69  CB        28.9870  -43.4170 -120.0890 C.3   311  ASP311      0.1436
     70  CG        29.3720  -44.2830 -118.9370 C.2   311  ASP311      0.3671
     71  OD1       30.2830  -45.1430 -119.1110 O.co2 311  ASP311     -0.2456
     72  OD2       28.8410  -44.1580 -117.7710 O.co2 311  ASP311     -0.2456
     73  N         28.4080  -45.5080 -103.5390 N.3   368  ASN368     -0.1240
     74  CA        28.8870  -44.4940 -104.4810 C.3   368  ASN368      0.1653
     75  C         28.0150  -44.4590 -105.7280 C.2   368  ASN368      0.2266
     76  O         27.9270  -45.4220 -106.4620 O.2   368  ASN368     -0.2867
     77  CB        30.3340  -44.7730 -104.8480 C.3   368  ASN368      0.1155
     78  CG        30.9830  -43.6300 -105.5910 C.2   368  ASN368      0.2627
     79  OD1       30.4840  -43.1750 -106.6160 O.2   368  ASN368     -0.2716
     80  ND2       32.1270  -43.1880 -105.1080 N.am  368  ASN368     -0.0877
     81  N         28.4590  -43.0480 -108.4710 N.3   370  ASP370     -0.1225
     82  CA        29.2470  -43.0840 -109.7310 C.3   370  ASP370      0.1805
     83  C         29.5720  -44.4980 -110.2090 C.2   370  ASP370      0.2598
     84  O         30.0620  -44.6960 -111.3660 O.2   370  ASP370     -0.2718
     85  CB        30.5250  -42.2690 -109.6290 C.3   370  ASP370      0.1424
     86  CG        31.0960  -41.9220 -110.9680 C.2   370  ASP370      0.3668
     87  OD1       30.4480  -42.1680 -112.0650 O.co2 370  ASP370     -0.2456
     88  OD2       32.2500  -41.4760 -110.9420 O.co2 370  ASP370     -0.2456
     89  N         29.2300  -45.4540 -109.3530 N.am  371  ALA371     -0.1966
     90  CA        29.1410  -46.8860 -109.7350 C.3   371  ALA371      0.1728
     91  C         27.6970  -47.2620 -110.1410 C.2   371  ALA371      0.2616
     92  O         27.0550  -48.1400 -109.5540 O.2   371  ALA371     -0.2715
     93  CB        29.6470  -47.7880 -108.6250 C.3   371  ALA371      0.0334
     94  N         27.2320  -46.5470 -111.1420 N.am  372  GLU372     -0.1963
     95  CA        25.8320  -46.6100 -111.6170 C.3   372  GLU372      0.1733
     96  C         25.5950  -47.7350 -112.6200 C.2   372  GLU372      0.2617
     97  O         24.5130  -48.2770 -112.7230 O.2   372  GLU372     -0.2715
     98  CB        25.4260  -45.2770 -112.2340 C.3   372  GLU372      0.0429
     99  CG        25.8260  -44.9940 -113.7040 C.3   372  GLU372      0.1163
    100  CD        27.3070  -44.7970 -114.0020 C.2   372  GLU372      0.3649
    101  OE1       27.7290  -45.0160 -115.1980 O.co2 372  GLU372     -0.2457
    102  OE2       28.0910  -44.3770 -113.0630 O.co2 372  GLU372     -0.2457
    103  N         26.6290  -48.0430 -113.3650 N.am  373  GLY373     -0.1940
    104  CA        26.5280  -48.9300 -114.5050 C.3   373  GLY373      0.2014
    105  C         26.1350  -50.3100 -114.0790 C.2   373  GLY373      0.2638
    106  O         25.2510  -50.9300 -114.6550 O.2   373  GLY373     -0.2714
    107  N         26.7880  -50.7930 -113.0470 N.am  374  ARG374     -0.1977
    108  CA        26.5350  -52.1310 -112.5820 C.3   374  ARG374      0.1597
    109  C         25.1100  -52.2740 -112.0690 C.2   374  ARG374      0.2287
    110  O         24.5030  -53.3420 -112.1440 O.2   374  ARG374     -0.2864
    111  CB        27.5630  -52.5380 -111.5220 C.3   374  ARG374      0.0334
    112  CG        27.3900  -51.8350 -110.2000 C.3   374  ARG374      0.0492
    113  CD        28.6310  -52.0130 -109.3460 C.3   374  ARG374      0.2205
    114  NE        29.7710  -51.2840 -109.9170 N.pl3 374  ARG374     -0.0865
    115  CZ        31.0190  -51.4090 -109.4940 C.cat 374  ARG374      0.5346
    116  NH1       31.3060  -52.2410 -108.4990 N.pl3 374  ARG374      0.1354
    117  NH2       31.9700  -50.7500 -110.0790 N.pl3 374  ARG374      0.1354
    118  N         30.7820  -49.7840 -120.7010 N.3   400  THR400     -0.1203
    119  CA        31.9550  -48.9210 -120.4110 C.3   400  THR400      0.1994
    120  C         32.0700  -48.7550 -118.8930 C.2   400  THR400      0.2618
    121  O         31.7260  -47.7280 -118.3300 O.2   400  THR400     -0.2717
    122  CB        31.8160  -47.5600 -121.0880 C.3   400  THR400      0.1784
    123  OG1       30.5010  -47.0420 -120.8290 O.3   400  THR400     -0.2211
    124  CG2       31.9950  -47.7120 -122.5740 C.3   400  THR400      0.0376
    125  N         32.4740  -49.8080 -118.2360 N.am  401  LEU401     -0.1965
    126  CA        32.1130  -49.9750 -116.8370 C.3   401  LEU401      0.1728
    127  C         33.1290  -49.4450 -115.7990 C.2   401  LEU401      0.2617
    128  O         32.7030  -48.9050 -114.7920 O.2   401  LEU401     -0.2715
    129  CB        31.7410  -51.4340 -116.5110 C.3   401  LEU401      0.0311
    130  CG        30.9100  -51.6250 -115.2350 C.3   401  LEU401      0.0022
    131  CD1       29.6030  -50.8400 -115.2770 C.3   401  LEU401      0.0001
    132  CD2       30.6260  -53.0890 -115.0090 C.3   401  LEU401      0.0001
    133  N         34.4140  -49.6730 -116.0130 N.am  402  THR402     -0.1937
    134  CA        35.4100  -49.3510 -114.9960 C.3   402  THR402      0.2028
    135  C         36.6390  -48.7040 -115.5770 C.2   402  THR402      0.2643
    136  O         37.1370  -49.1290 -116.6170 O.2   402  THR402     -0.2714
    137  CB        35.8720  -50.5920 -114.1850 C.3   402  THR402      0.1808
    138  OG1       36.5820  -51.4960 -115.0340 O.3   402  THR402     -0.2208
    139  CG2       34.7120  -51.3390 -113.5470 C.3   402  THR402      0.0379
    140  N         37.1930  -47.7430 -114.8380 N.am  403  GLY403     -0.1939
    141  CA        38.5490  -47.2580 -115.0820 C.3   403  GLY403      0.2014
    142  C         39.6000  -48.3640 -114.8900 C.2   403  GLY403      0.2638
    143  O         40.6050  -48.4280 -115.5920 O.2   403  GLY403     -0.2714
    144  N         39.3280  -49.2750 -113.9830 N.am  404  ALA404     -0.1977
    145  CA        40.1680  -50.4670 -113.7870 C.3   404  ALA404      0.1597
    146  C         40.4200  -51.2650 -115.0850 C.2   404  ALA404      0.2287
    147  O         41.4740  -51.8450 -115.2670 O.2   404  ALA404     -0.2864
    148  CB        39.5450  -51.3970 -112.7310 C.3   404  ALA404      0.0319
    149  N         29.6220  -51.1690 -104.2610 N.3   462  LEU462     -0.1245
    150  CA        31.0310  -50.8490 -104.3730 C.3   462  LEU462      0.1561
    151  C         31.8510  -51.6510 -103.4140 C.2   462  LEU462      0.2260
    152  O         31.5220  -51.8110 -102.2610 O.2   462  LEU462     -0.2867
    153  CB        31.2870  -49.3660 -104.1290 C.3   462  LEU462      0.0270
    154  CG        32.7060  -48.8580 -104.4690 C.3   462  LEU462      0.0019
    155  CD1       32.9100  -48.8300 -105.9670 C.3   462  LEU462      0.0001
    156  CD2       32.9830  -47.4790 -103.9170 C.3   462  LEU462      0.0001
    157  N         39.1930  -51.4530 -103.1360 N.3   466  ARG466     -0.1245
    158  CA        39.1590  -51.1880 -104.5870 C.3   466  ARG466      0.1563
    159  C         40.3780  -51.7540 -105.3310 C.2   466  ARG466      0.2260
    160  O         40.4090  -51.8300 -106.5580 O.2   466  ARG466     -0.2867
    161  CB        38.9970  -49.6970 -104.8510 C.3   466  ARG466      0.0307
    162  CG        37.7170  -49.1140 -104.2110 C.3   466  ARG466      0.0489
    163  CD        36.8670  -48.1680 -105.0730 C.3   466  ARG466      0.2205
    164  NE        36.9270  -46.7090 -104.8300 N.pl3 466  ARG466     -0.0865
    165  CZ        36.8820  -45.7540 -105.7630 C.cat 466  ARG466      0.5346
    166  NH1       36.8950  -46.0400 -107.0670 N.pl3 466  ARG466      0.1354
    167  NH2       36.8940  -44.4760 -105.3730 N.pl3 466  ARG466      0.1354
    168  N         35.2920  -50.0650 -121.4980 N.3   496  ALA496     -0.1231
    169  CA        35.4640  -48.6440 -121.1130 C.3   496  ALA496      0.1694
    170  C         36.3540  -47.8810 -122.0770 C.2   496  ALA496      0.2592
    171  O         36.0150  -46.8190 -122.5500 O.2   496  ALA496     -0.2718
    172  CB        35.9810  -48.5230 -119.6810 C.3   496  ALA496      0.0304
    173  N         37.5060  -48.4410 -122.3570 N.am  497  TYR497     -0.1976
    174  CA        38.5150  -47.7770 -123.2130 C.3   497  TYR497      0.1639
    175  C         38.5150  -48.1360 -124.7180 C.2   497  TYR497      0.2290
    176  O         38.7400  -47.2660 -125.5430 O.2   497  TYR497     -0.2864
    177  CB        39.9150  -47.9260 -122.6200 C.3   497  TYR497      0.0560
    178  CG        40.1010  -47.1010 -121.3710 C.ar  497  TYR497     -0.0198
    179  CD1       39.7210  -47.5930 -120.1340 C.ar  497  TYR497     -0.0009
    180  CD2       40.6310  -45.8140 -121.4400 C.ar  497  TYR497     -0.0009
    181  CE1       39.8710  -46.8380 -118.9920 C.ar  497  TYR497      0.0417
    182  CE2       40.7950  -45.0560 -120.3060 C.ar  497  TYR497      0.0417
    183  CZ        40.4090  -45.5760 -119.0840 C.ar  497  TYR497      0.1957
    184  OH        40.5520  -44.8080 -117.9480 O.3   497  TYR497     -0.2866
    185  N         36.7900  -45.9040 -127.6810 N.3   500  PHE500     -0.1241
    186  CA        37.2720  -44.5840 -128.1350 C.3   500  PHE500      0.1605
    187  C         38.7950  -44.5180 -128.2660 C.2   500  PHE500      0.2264
    188  O         39.5130  -45.3010 -127.7090 O.2   500  PHE500     -0.2867
    189  CB        36.7530  -43.4420 -127.2350 C.3   500  PHE500      0.0534
    190  CG        37.5010  -43.2840 -125.9260 C.ar  500  PHE500     -0.0203
    191  CD1       37.1950  -44.0620 -124.8320 C.ar  500  PHE500     -0.0042
    192  CD2       38.5360  -42.3530 -125.8100 C.ar  500  PHE500     -0.0042
    193  CE1       37.9090  -43.9530 -123.6510 C.ar  500  PHE500     -0.0003
    194  CE2       39.2490  -42.2330 -124.6250 C.ar  500  PHE500     -0.0003
    195  CZ        38.9240  -43.0270 -123.5390 C.ar  500  PHE500     -0.0000
@<TRIPOS>BOND
     1   187   186    1
     2   187   188    2
     3   186   185    1
     4   186   189    1
     5   189   190    1
     6    64    62   ar
     7    64    63   ar
     8    62    60   ar
     9    63    61   ar
    10   190   192   ar
    11   190   191   ar
    12   192   194   ar
    13   176   175    2
    14    60    61   ar
    15    60    59    1
    16    46    44    1
    17   191   193   ar
    18   175   174    1
    19   194   195   ar
    20    59    56    1
    21    56    55    1
    22    56    57    1
    23    45    44    1
    24    58    57    2
    25    44    43    1
    26   193   195   ar
    27    57    65   am
    28   174   177    1
    29   174   173    1
    30    43    40    1
    31    40    41    1
    32    40    39    1
    33   177   178    1
    34   124   122    1
    35   171   170    2
    36    42    41    2
    37    65    66    1
    38   173   170   am
    39     4     3    2
    40   170   169    1
    41    41    47   am
    42    67    66    1
    43    67    68    2
    44   168   169    1
    45    66    69    1
    46   180   178   ar
    47   180   182   ar
    48    49    50    2
    49    49    48    1
    50   178   179   ar
    51     3     2    1
    52     1     2    1
    53   169   172    1
    54   122   123    1
    55   122   119    1
    56    47    48    1
    57   118   119    1
    58    48    51    1
    59     2     5    1
    60   119   120    1
    61   182   183   ar
    62   179   181   ar
    63    69    70    1
    64     5     6    1
    65    71    70   ar
    66   183   181   ar
    67   183   184    1
    68    51    52    1
    69    70    72   ar
    70   120   121    2
    71   120   125   am
    72     6     7    1
    73   125   126    1
    74     7     8    1
    75    54    53    1
    76    52    53    1
    77    10    11    1
    78     8     9    1
    79    30    29    2
    80   126   129    1
    81   126   127    1
    82   136   135    2
    83    14    11    1
    84    14    15    1
    85    11    12    1
    86   129   130    1
    87    29    28    1
    88   133   127   am
    89   133   134    1
    90    13    12    2
    91    28    27    1
    92    28    31    1
    93   127   128    2
    94   143   142    2
    95   135   134    1
    96   135   140   am
    97   131   130    1
    98   147   146    2
    99   130   132    1
   100   101   100   ar
   101    15    17   ar
   102    15    16   ar
   103   146   145    1
   104   141   142    1
   105   141   140    1
   106   138   137    1
   107   134   137    1
   108   142   144   am
   109   106   105    2
   110    31    32    1
   111   104   105    1
   112   104   103    1
   113    33    32   ar
   114    33    35   ar
   115    25    24    1
   116    25    26    1
   117   137   139    1
   118    24    23    1
   119   105   107   am
   120   100    99    1
   121   100   102   ar
   122   144   145    1
   123    32    34   ar
   124    35    37   ar
   125   145   148    1
   126    99    98    1
   127   103    96   am
   128   107   108    1
   129    34    36   ar
   130    37    36   ar
   131    37    38    1
   132    97    96    2
   133    23    22    1
   134    22    19    1
   135    96    95    1
   136   108   109    1
   137   108   111    1
   138    98    95    1
   139   110   109    2
   140    87    86   ar
   141    21    20    2
   142    95    94    1
   143   111   112    1
   144    20    19    1
   145    84    83    2
   146    19    18    1
   147    94    91   am
   148    86    88   ar
   149    86    85    1
   150    83    82    1
   151    83    89   am
   152   112   113    1
   153    91    90    1
   154    91    92    2
   155   117   115    1
   156   114   115    2
   157   114   113    1
   158    90    89    1
   159    90    93    1
   160    82    85    1
   161    82    81    1
   162   115   116    1
   163   166   165    1
   164    79    78    2
   165   160   159    2
   166    76    75    2
   167   155   154    1
   168   165   167    1
   169   165   164    2
   170    75    74    1
   171    78    80   am
   172    78    77    1
   173   159   158    1
   174   163   164    1
   175   163   162    1
   176   161   158    1
   177   161   162    1
   178    77    74    1
   179   158   157    1
   180    74    73    1
   181   154   153    1
   182   154   156    1
   183   150   149    1
   184   150   153    1
   185   150   151    1
   186   151   152    2
