@<TRIPOS>MOLECULE
tmp/5ntgA00.pdb
 132 125 0 0 0
SMALL
GASTEIGER

@<TRIPOS>ATOM
      1  N          4.1530   24.1730   35.3140 N.3   279  LYS279     -0.1245
      2  CA         3.9480   22.7350   35.3400 C.3   279  LYS279      0.1561
      3  C          2.5680   22.3640   34.8300 C.2   279  LYS279      0.2260
      4  O          1.5560   22.6300   35.4850 O.2   279  LYS279     -0.2867
      5  CB         4.1260   22.2110   36.7670 C.3   279  LYS279      0.0271
      6  CG         4.0250   20.6910   36.8700 C.3   279  LYS279      0.0035
      7  CD         3.8460   20.2790   38.3090 C.3   279  LYS279      0.0206
      8  CE         3.3910   18.8420   38.3810 C.3   279  LYS279      0.1093
      9  NZ         3.4100   18.3730   39.8110 N.3   279  LYS279     -0.1314
     10  N         -1.7170   13.2510   36.5380 N.3   284  ASP284     -0.1239
     11  CA        -0.6120   12.5500   37.2300 C.3   284  ASP284      0.1674
     12  C         -1.0970   11.2380   37.8460 C.2   284  ASP284      0.2266
     13  O         -1.6310   11.2100   38.9520 O.2   284  ASP284     -0.2867
     14  CB         0.0570   13.4570   38.2900 C.3   284  ASP284      0.1410
     15  CG         1.3490   12.8810   38.8270 C.2   284  ASP284      0.3668
     16  OD1        1.8050   11.8770   38.2560 O.co2 284  ASP284     -0.2456
     17  OD2        1.9300   13.4130   39.8150 O.co2 284  ASP284     -0.2456
     18  N          0.1890    6.2450   42.1830 N.3   291  LYS291     -0.1245
     19  CA        -0.4710    6.7780   43.3530 C.3   291  LYS291      0.1561
     20  C         -1.6240    5.8470   43.7860 C.2   291  LYS291      0.2260
     21  O         -2.3120    5.2970   42.9330 O.2   291  LYS291     -0.2867
     22  CB        -1.0630    8.1400   43.0430 C.3   291  LYS291      0.0271
     23  CG        -0.0390    9.1610   42.6570 C.3   291  LYS291      0.0035
     24  CD        -0.7770   10.4290   42.2650 C.3   291  LYS291      0.0206
     25  CE         0.1680   11.4970   41.8130 C.3   291  LYS291      0.1093
     26  NZ         0.9020   12.0470   42.9800 N.3   291  LYS291     -0.1314
     27  N         -4.9210    9.4730   46.7670 N.3   295  PHE295     -0.1241
     28  CA        -3.9320   10.4600   46.2870 C.3   295  PHE295      0.1605
     29  C         -3.9650   10.7080   44.7810 C.2   295  PHE295      0.2264
     30  O         -3.4520   11.7180   44.3180 O.2   295  PHE295     -0.2867
     31  CB        -2.5180   10.0950   46.7530 C.3   295  PHE295      0.0534
     32  CG        -2.3700   10.1770   48.2430 C.ar  295  PHE295     -0.0203
     33  CD1       -2.8600   11.2950   48.9400 C.ar  295  PHE295     -0.0042
     34  CD2       -1.8040    9.1330   48.9720 C.ar  295  PHE295     -0.0042
     35  CE1       -2.7650   11.3730   50.3230 C.ar  295  PHE295     -0.0003
     36  CE2       -1.6920    9.2030   50.3500 C.ar  295  PHE295     -0.0003
     37  CZ        -2.1720   10.3240   51.0270 C.ar  295  PHE295     -0.0000
     38  N         -5.9000   14.8160   40.6540 N.3   299  MET299     -0.1245
     39  CA        -4.6640   15.0130   39.8720 C.3   299  MET299      0.1570
     40  C         -4.9090   15.5580   38.4510 C.2   299  MET299      0.2261
     41  O         -3.9470   15.9080   37.7640 O.2   299  MET299     -0.2867
     42  CB        -3.8240   13.7510   39.8180 C.3   299  MET299      0.0387
     43  CG        -3.2770   13.3070   41.1710 C.3   299  MET299      0.0595
     44  SD        -2.1680   14.4680   41.9580 S.3   299  MET299     -0.1393
     45  CE        -3.2860   15.3050   43.0920 C.3   299  MET299      0.0692
     46  N         -3.0770   18.8060   38.4350 N.3   302  ASP302     -0.1239
     47  CA        -1.6080   18.8750   38.4200 C.3   302  ASP302      0.1674
     48  C         -1.0920   19.7950   37.2770 C.2   302  ASP302      0.2266
     49  O          0.1410   19.9680   37.1170 O.2   302  ASP302     -0.2867
     50  CB        -0.9640   17.4760   38.3800 C.3   302  ASP302      0.1410
     51  CG         0.1550   17.3080   39.4350 C.2   302  ASP302      0.3668
     52  OD1       -0.0790   17.7660   40.5880 O.co2 302  ASP302     -0.2456
     53  OD2        1.2480   16.7030   39.1360 O.co2 302  ASP302     -0.2456
     54  N          6.8830    9.4990   40.3090 N.3   361  ASP361     -0.1225
     55  CA         5.8320   10.4380   40.7310 C.3   361  ASP361      0.1805
     56  C          6.3520   11.8360   41.1650 C.2   361  ASP361      0.2598
     57  O          5.5440   12.7850   41.3500 O.2   361  ASP361     -0.2718
     58  CB         4.9510    9.8370   41.8070 C.3   361  ASP361      0.1424
     59  CG         3.6470   10.6350   42.0130 C.2   361  ASP361      0.3668
     60  OD1        3.2320   11.4340   41.0960 O.co2 361  ASP361     -0.2456
     61  OD2        3.0830   10.4920   43.1210 O.co2 361  ASP361     -0.2456
     62  N          7.6800   11.9500   41.2350 N.am  362  ALA362     -0.1966
     63  CA         8.3700   13.2600   41.2630 C.3   362  ALA362      0.1728
     64  C          8.6860   13.7530   39.8440 C.2   362  ALA362      0.2616
     65  O          9.8300   14.0430   39.5040 O.2   362  ALA362     -0.2715
     66  CB         9.6250   13.1980   42.1070 C.3   362  ALA362      0.0334
     67  N          7.6320   13.8500   39.0240 N.am  363  GLU363     -0.1963
     68  CA         7.7680   14.1200   37.5680 C.3   363  GLU363      0.1733
     69  C          7.7010   15.6240   37.2450 C.2   363  GLU363      0.2616
     70  O          8.2630   16.0650   36.2470 O.2   363  GLU363     -0.2715
     71  CB         6.7110   13.3660   36.7670 C.3   363  GLU363      0.0429
     72  CG         5.3430   14.0260   36.6170 C.3   363  GLU363      0.1163
     73  CD         4.5740   14.2420   37.9290 C.2   363  GLU363      0.3649
     74  OE1        4.7490   13.5070   38.9410 O.co2 363  GLU363     -0.2457
     75  OE2        3.7360   15.1850   37.9670 O.co2 363  GLU363     -0.2457
     76  N          7.0190   16.3990   38.0710 N.am  364  GLY364     -0.1955
     77  CA         6.8290   17.8250   37.7830 C.3   364  GLY364      0.1869
     78  C          8.1580   18.5770   37.7300 C.2   364  GLY364      0.2309
     79  O          8.3740   19.4040   36.8460 O.2   364  GLY364     -0.2863
     80  N          1.9980   22.9260   41.0700 N.3   391  THR391     -0.1203
     81  CA         1.4070   22.1050   42.1250 C.3   391  THR391      0.1994
     82  C          2.3880   20.9470   42.4050 C.2   391  THR391      0.2618
     83  O          2.2230   19.8530   41.8730 O.2   391  THR391     -0.2717
     84  CB         0.0360   21.5640   41.6960 C.3   391  THR391      0.1784
     85  OG1        0.1150   21.0120   40.3800 O.3   391  THR391     -0.2211
     86  CG2       -0.9590   22.6740   41.6420 C.3   391  THR391      0.0376
     87  N          3.4060   21.2070   43.2310 N.am  392  LEU392     -0.1965
     88  CA         4.5510   20.2800   43.3720 C.3   392  LEU392      0.1728
     89  C          4.5340   19.2150   44.4310 C.2   392  LEU392      0.2617
     90  O          4.8640   18.0830   44.1380 O.2   392  LEU392     -0.2715
     91  CB         5.8310   21.0500   43.6250 C.3   392  LEU392      0.0311
     92  CG         6.5110   21.5870   42.3880 C.3   392  LEU392      0.0022
     93  CD1        6.6700   23.0830   42.6190 C.3   392  LEU392      0.0001
     94  CD2        7.8480   20.9260   42.1310 C.3   392  LEU392      0.0001
     95  N          4.2660   19.5900   45.6660 N.am  393  THR393     -0.1937
     96  CA         4.4510   18.6700   46.7990 C.3   393  THR393      0.2028
     97  C          3.2650   18.6790   47.7750 C.2   393  THR393      0.2642
     98  O          2.6810   19.7380   48.0230 O.2   393  THR393     -0.2714
     99  CB         5.7360   18.9990   47.6070 C.3   393  THR393      0.1808
    100  OG1        5.6180   20.2920   48.2170 O.3   393  THR393     -0.2208
    101  CG2        6.9720   18.9660   46.7280 C.3   393  THR393      0.0379
    102  N          2.9100   17.4990   48.3060 N.am  394  GLY394     -0.1954
    103  CA         2.0200   17.3810   49.4640 C.3   394  GLY394      0.1869
    104  C          2.6020   18.1150   50.6680 C.2   394  GLY394      0.2309
    105  O          1.8780   18.7020   51.4870 O.2   394  GLY394     -0.2863
    106  N          0.3850   23.7110   45.4070 N.3   487  ALA487     -0.1231
    107  CA        -0.3680   22.4440   45.3920 C.3   487  ALA487      0.1694
    108  C         -1.7640   22.5520   46.0430 C.2   487  ALA487      0.2592
    109  O         -2.7640   22.2110   45.4270 O.2   487  ALA487     -0.2718
    110  CB         0.4390   21.3560   46.0830 C.3   487  ALA487      0.0304
    111  N         -1.8060   23.0510   47.2810 N.am  488  PHE488     -0.1976
    112  CA        -3.0560   23.2160   48.0240 C.3   488  PHE488      0.1639
    113  C         -3.8880   24.4980   47.7320 C.2   488  PHE488      0.2290
    114  O         -5.1080   24.4380   47.6710 O.2   488  PHE488     -0.2864
    115  CB        -2.8110   23.0360   49.5340 C.3   488  PHE488      0.0560
    116  CG        -2.6310   21.6130   49.9130 C.ar  488  PHE488     -0.0200
    117  CD1       -3.7290   20.8240   50.2340 C.ar  488  PHE488     -0.0042
    118  CD2       -1.3740   21.0230   49.8290 C.ar  488  PHE488     -0.0042
    119  CE1       -3.5600   19.4800   50.5350 C.ar  488  PHE488     -0.0003
    120  CE2       -1.2030   19.6680   50.0910 C.ar  488  PHE488     -0.0003
    121  CZ        -2.2940   18.9070   50.4460 C.ar  488  PHE488     -0.0000
    122  N         -6.9220   24.7460   45.1310 N.3   491  PHE491     -0.1241
    123  CA        -8.2710   24.2500   45.3690 C.3   491  PHE491      0.1605
    124  C         -8.7580   24.4580   46.8020 C.2   491  PHE491      0.2264
    125  O         -7.9880   24.6070   47.7380 O.2   491  PHE491     -0.2867
    126  CB        -8.4100   22.7770   44.9360 C.3   491  PHE491      0.0534
    127  CG        -7.6950   21.8190   45.8250 C.ar  491  PHE491     -0.0203
    128  CD1       -6.3410   21.5290   45.6140 C.ar  491  PHE491     -0.0042
    129  CD2       -8.3630   21.1930   46.8920 C.ar  491  PHE491     -0.0042
    130  CE1       -5.6680   20.6190   46.4530 C.ar  491  PHE491     -0.0003
    131  CE2       -7.6960   20.2970   47.7370 C.ar  491  PHE491     -0.0003
    132  CZ        -6.3510   20.0050   47.5170 C.ar  491  PHE491     -0.0000
@<TRIPOS>BOND
     1     3     2    1
     2     3     4    2
     3     1     2    1
     4     2     5    1
     5    70    69    2
     6    10    11    1
     7    72    71    1
     8    72    73    1
     9     5     6    1
    10    71    68    1
    11    79    78    2
    12     6     7    1
    13    49    48    2
    14    11    12    1
    15    11    14    1
    16    69    68    1
    17    69    76   am
    18    48    47    1
    19    68    67    1
    20    78    77    1
    21    41    40    2
    22    77    76    1
    23    12    13    2
    24    73    75   ar
    25    73    74   ar
    26    16    15   ar
    27    14    15    1
    28     7     8    1
    29    50    47    1
    30    50    51    1
    31     8     9    1
    32    47    46    1
    33    40    39    1
    34    15    17   ar
    35    67    64   am
    36    53    51   ar
    37    51    52   ar
    38    65    64    2
    39    42    39    1
    40    42    43    1
    41    64    63    1
    42    39    38    1
    43    54    55    1
    44    85    84    1
    45    55    56    1
    46    55    58    1
    47    80    81    1
    48    60    59   ar
    49    56    62   am
    50    56    57    2
    51    43    44    1
    52    62    63    1
    53    63    66    1
    54    86    84    1
    55    84    81    1
    56    58    59    1
    57    25    24    1
    58    25    26    1
    59    83    82    2
    60    44    45    1
    61    59    61   ar
    62    81    82    1
    63    94    92    1
    64    18    19    1
    65    24    23    1
    66    92    93    1
    67    92    91    1
    68    82    87   am
    69    23    22    1
    70    21    20    2
    71    22    19    1
    72    87    88    1
    73    19    20    1
    74    88    91    1
    75    88    89    1
    76    90    89    2
    77    30    29    2
    78    89    95   am
    79    29    28    1
    80   126   123    1
    81   126   127    1
    82   122   123    1
    83   123   124    1
    84   107   106    1
    85   107   108    1
    86   107   110    1
    87   109   108    2
    88   128   127   ar
    89   128   130   ar
    90    95    96    1
    91   127   129   ar
    92   108   111   am
    93    28    31    1
    94    28    27    1
    95   130   132   ar
    96   101    99    1
    97    31    32    1
    98    96    99    1
    99    96    97    1
   100   124   125    2
   101   129   131   ar
   102   111   112    1
   103   132   131   ar
   104    99   100    1
   105   114   113    2
   106   113   112    1
   107    97    98    2
   108    97   102   am
   109   112   115    1
   110    32    33   ar
   111    32    34   ar
   112   102   103    1
   113    33    35   ar
   114    34    36   ar
   115   103   104    1
   116   115   116    1
   117   118   116   ar
   118   118   120   ar
   119   116   117   ar
   120   120   121   ar
   121   117   119   ar
   122    35    37   ar
   123    36    37   ar
   124   121   119   ar
   125   104   105    2
