@<TRIPOS>MOLECULE
tmp/5nthA00.pdb
 155 147 0 0 0
SMALL
GASTEIGER

@<TRIPOS>ATOM
      1  N        -43.4080   81.5080   25.3520 N.3   297  LYS297     -0.1245
      2  CA       -44.3070   82.6480   25.2810 C.3   297  LYS297      0.1561
      3  C        -43.5520   83.8210   24.6740 C.2   297  LYS297      0.2260
      4  O        -42.6350   84.3570   25.2980 O.2   297  LYS297     -0.2867
      5  CB       -44.8520   82.9900   26.6850 C.3   297  LYS297      0.0271
      6  CG       -45.7410   84.2390   26.8000 C.3   297  LYS297      0.0035
      7  CD       -46.2930   84.4010   28.2160 C.3   297  LYS297      0.0206
      8  CE       -46.5350   85.8580   28.6020 C.3   297  LYS297      0.1093
      9  NZ       -47.5720   86.1250   29.6520 N.3   297  LYS297     -0.1314
     10  N        -47.3770   92.9820   26.6590 N.3   302  ASP302     -0.1239
     11  CA       -48.6220   92.6110   27.3300 C.3   302  ASP302      0.1674
     12  C        -49.2220   93.8210   27.9890 C.2   302  ASP302      0.2266
     13  O        -48.8500   94.1720   29.1060 O.2   302  ASP302     -0.2867
     14  CB       -48.4100   91.4980   28.3750 C.3   302  ASP302      0.1410
     15  CG       -49.7230   90.9540   28.9020 C.2   302  ASP302      0.3668
     16  OD1      -50.7440   91.3100   28.2740 O.co2 302  ASP302     -0.2456
     17  OD2      -49.7720   90.1710   29.9100 O.co2 302  ASP302     -0.2456
     18  N        -53.9080   96.3610   32.4030 N.3   309  LYS309     -0.1231
     19  CA       -53.0720   96.4860   33.5710 C.3   309  LYS309      0.1678
     20  C        -52.9320   97.9490   33.9590 C.2   309  LYS309      0.2434
     21  O        -52.9360   98.8380   33.0810 O.2   309  LYS309     -0.2733
     22  CB       -51.6610   95.9750   33.2610 C.3   309  LYS309      0.0284
     23  CG       -51.4950   94.4760   33.0440 C.3   309  LYS309      0.0035
     24  CD       -50.0140   94.1940   32.8010 C.3   309  LYS309      0.0206
     25  CE       -49.5620   92.8710   33.3740 C.3   309  LYS309      0.1093
     26  NZ       -49.9520   91.8050   32.4320 N.3   309  LYS309     -0.1314
     27  N        -52.7570   98.2020   35.2720 N.am  310  PRO310     -0.2729
     28  CA       -52.3290   99.5250   35.7220 C.3   310  PRO310      0.1401
     29  C        -50.9010   99.8370   35.2780 C.2   310  PRO310      0.2269
     30  O        -50.1410   98.9180   34.9270 O.2   310  PRO310     -0.2865
     31  CB       -52.4140   99.4380   37.2560 C.3   310  PRO310      0.0296
     32  CG       -53.2220   98.2320   37.5520 C.3   310  PRO310      0.0237
     33  CD       -53.0010   97.2940   36.4080 C.3   310  PRO310      0.0939
     34  N        -47.8210   97.8420   36.9970 N.3   313  HIS313     -0.1241
     35  CA       -47.7220   96.4300   36.5690 C.3   313  HIS313      0.1621
     36  C        -47.4200   96.2790   35.0550 C.2   313  HIS313      0.2264
     37  O        -46.8920   95.2590   34.6110 O.2   313  HIS313     -0.2867
     38  CB       -49.0030   95.6560   36.9280 C.3   313  HIS313      0.0745
     39  CG       -49.2860   95.6030   38.3980 C.ar  313  HIS313      0.0817
     40  ND1      -50.5670   95.5940   38.9090 N.ar  313  HIS313     -0.2268
     41  CD2      -48.4540   95.5750   39.4690 C.ar  313  HIS313      0.1154
     42  CE1      -50.5130   95.5470   40.2290 C.ar  313  HIS313      0.1986
     43  NE2      -49.2420   95.5320   40.5940 N.ar  313  HIS313     -0.2212
     44  N        -43.2650   94.9100   30.5110 N.3   317  MET317     -0.1245
     45  CA       -43.9440   93.8980   29.7290 C.3   317  MET317      0.1570
     46  C        -43.4160   93.8000   28.3180 C.2   317  MET317      0.2261
     47  O        -43.9180   93.0920   27.5130 O.2   317  MET317     -0.2867
     48  CB       -45.4280   94.1590   29.7370 C.3   317  MET317      0.0387
     49  CG       -46.0470   94.0240   31.1000 C.3   317  MET317      0.0595
     50  SD       -46.1090   92.3830   31.7480 S.3   317  MET317     -0.1393
     51  CE       -44.7180   92.3330   32.8070 C.3   317  MET317      0.0692
     52  N        -42.2040   90.3420   28.5030 N.3   320  ASP320     -0.1239
     53  CA       -43.1400   89.2620   28.4500 C.3   320  ASP320      0.1674
     54  C        -42.8940   88.2990   27.2550 C.2   320  ASP320      0.2266
     55  O        -43.6520   87.3280   27.0800 O.2   320  ASP320     -0.2867
     56  CB       -44.5670   89.8160   28.4580 C.3   320  ASP320      0.1410
     57  CG       -45.5340   88.9710   29.3170 C.2   320  ASP320      0.3668
     58  OD1      -45.1510   88.5420   30.4310 O.co2 320  ASP320     -0.2456
     59  OD2      -46.6900   88.7600   28.8810 O.co2 320  ASP320     -0.2456
     60  N        -60.4420   86.5110   31.8870 N.3   385  ASN385     -0.1240
     61  CA       -59.5050   87.5950   32.0320 C.3   385  ASN385      0.1653
     62  C        -58.5830   87.5860   30.8680 C.2   385  ASN385      0.2266
     63  O        -57.8230   86.6230   30.7190 O.2   385  ASN385     -0.2867
     64  CB       -58.6870   87.4730   33.3020 C.3   385  ASN385      0.1155
     65  CG       -57.9070   88.7410   33.5830 C.2   385  ASN385      0.2627
     66  OD1      -57.0120   89.0750   32.8250 O.2   385  ASN385     -0.2716
     67  ND2      -58.2720   89.4790   34.6300 N.am  385  ASN385     -0.0877
     68  N        -55.9490   89.2490   30.4610 N.3   387  ASP387     -0.1225
     69  CA       -54.5500   89.3480   30.8500 C.3   387  ASP387      0.1805
     70  C        -53.8400   88.0080   31.1240 C.2   387  ASP387      0.2598
     71  O        -52.5910   87.9900   31.2790 O.2   387  ASP387     -0.2718
     72  CB       -54.3920   90.2750   32.0450 C.3   387  ASP387      0.1424
     73  CG       -52.9810   90.7310   32.2250 C.2   387  ASP387      0.3668
     74  OD1      -52.0830   90.4390   31.3600 O.co2 387  ASP387     -0.2456
     75  OD2      -52.7530   91.3470   33.2730 O.co2 387  ASP387     -0.2456
     76  N        -54.6060   86.9140   31.1710 N.am  388  ALA388     -0.1966
     77  CA       -54.0460   85.5720   31.1060 C.3   388  ALA388      0.1728
     78  C        -54.0310   85.1030   29.6620 C.2   388  ALA388      0.2616
     79  O        -54.7070   84.1820   29.2570 O.2   388  ALA388     -0.2715
     80  CB       -54.7970   84.6180   31.9960 C.3   388  ALA388      0.0334
     81  N        -53.2110   85.7830   28.8950 N.am  389  GLU389     -0.1963
     82  CA       -53.0240   85.5500   27.4790 C.3   389  GLU389      0.1733
     83  C        -51.9130   84.5200   27.1720 C.2   389  GLU389      0.2617
     84  O        -51.8520   83.9720   26.0800 O.2   389  GLU389     -0.2715
     85  CB       -52.6890   86.9030   26.8370 C.3   389  GLU389      0.0429
     86  CG       -51.2170   87.3620   26.9080 C.3   389  GLU389      0.1163
     87  CD       -50.6390   87.6230   28.3140 C.2   389  GLU389      0.3649
     88  OE1      -51.4020   87.9040   29.2760 O.co2 389  GLU389     -0.2457
     89  OE2      -49.3780   87.5750   28.4720 O.co2 389  GLU389     -0.2457
     90  N        -51.0070   84.3140   28.1270 N.am  390  GLY390     -0.1940
     91  CA       -49.8560   83.4230   27.9480 C.3   390  GLY390      0.2014
     92  C        -50.2720   81.9790   27.8000 C.2   390  GLY390      0.2638
     93  O        -49.9510   81.3470   26.8080 O.2   390  GLY390     -0.2714
     94  N        -50.9860   81.4710   28.8030 N.am  391  ARG391     -0.1977
     95  CA       -51.7610   80.2310   28.7390 C.3   391  ARG391      0.1597
     96  C        -52.3090   79.8990   27.3590 C.2   391  ARG391      0.2287
     97  O        -52.2050   78.7680   26.9040 O.2   391  ARG391     -0.2864
     98  CB       -53.0250   80.4250   29.5810 C.3   391  ARG391      0.0334
     99  CG       -52.8690   80.2210   31.0570 C.3   391  ARG391      0.0492
    100  CD       -53.9550   80.9220   31.8170 C.3   391  ARG391      0.2205
    101  NE       -53.2690   81.5910   32.9000 N.pl3 391  ARG391     -0.0865
    102  CZ       -53.3800   81.3200   34.2010 C.cat 391  ARG391      0.5346
    103  NH1      -52.6230   82.0090   35.0610 N.pl3 391  ARG391      0.1354
    104  NH2      -54.2490   80.4050   34.6760 N.pl3 391  ARG391      0.1354
    105  N        -42.8460   83.6730   30.7910 N.3   417  THR417     -0.1203
    106  CA       -43.0120   84.6690   31.8730 C.3   417  THR417      0.1994
    107  C        -44.5060   84.7180   32.1670 C.2   417  THR417      0.2618
    108  O        -45.2350   85.5470   31.6350 O.2   417  THR417     -0.2717
    109  CB       -42.5430   86.0840   31.4540 C.3   417  THR417      0.1784
    110  OG1      -43.1420   86.4250   30.2060 O.3   417  THR417     -0.2211
    111  CG2      -41.0430   86.1450   31.2690 C.3   417  THR417      0.0376
    112  N        -44.9880   83.7960   32.9630 N.am  418  LEU418     -0.1965
    113  CA       -46.3910   83.5210   32.8710 C.3   418  LEU418      0.1728
    114  C        -47.2160   84.3070   33.8700 C.2   418  LEU418      0.2617
    115  O        -48.2210   84.8800   33.4720 O.2   418  LEU418     -0.2715
    116  CB       -46.6790   82.0240   32.9540 C.3   418  LEU418      0.0311
    117  CG       -48.0560   81.6990   32.3630 C.3   418  LEU418      0.0022
    118  CD1      -48.1670   82.0520   30.8820 C.3   418  LEU418      0.0001
    119  CD2      -48.3820   80.2310   32.5440 C.3   418  LEU418      0.0001
    120  N        -46.7910   84.3290   35.1390 N.am  419  THR419     -0.1937
    121  CA       -47.6340   84.7570   36.2640 C.3   419  THR419      0.2028
    122  C        -46.8550   85.4590   37.3550 C.2   419  THR419      0.2643
    123  O        -45.6990   85.1290   37.6050 O.2   419  THR419     -0.2714
    124  CB       -48.3680   83.5520   36.9620 C.3   419  THR419      0.1808
    125  OG1      -47.4290   82.6650   37.6030 O.3   419  THR419     -0.2208
    126  CG2      -49.2460   82.7490   35.9780 C.3   419  THR419      0.0379
    127  N        -47.5210   86.3740   38.0480 N.am  420  GLY420     -0.1939
    128  CA       -47.0210   86.9390   39.3010 C.3   420  GLY420      0.2014
    129  C        -47.1030   85.9920   40.4920 C.2   420  GLY420      0.2638
    130  O        -46.4000   86.1700   41.4930 O.2   420  GLY420     -0.2714
    131  N        -47.9620   84.9860   40.4050 N.am  421  ALA421     -0.1977
    132  CA       -48.0620   83.9900   41.4490 C.3   421  ALA421      0.1597
    133  C        -46.7140   83.2910   41.6230 C.2   421  ALA421      0.2287
    134  O        -46.2810   82.9690   42.7560 O.2   421  ALA421     -0.2864
    135  CB       -49.1580   82.9990   41.1120 C.3   421  ALA421      0.0319
    136  N        -58.6830   81.3320   33.7000 N.3   479  ILE479     -0.1245
    137  CA       -58.1850   81.8220   35.0100 C.3   479  ILE479      0.1561
    138  C        -59.0130   81.0360   36.0310 C.2   479  ILE479      0.2260
    139  O        -60.0870   80.5680   35.7100 O.2   479  ILE479     -0.2867
    140  CB       -58.3540   83.3610   35.1910 C.3   479  ILE479      0.0252
    141  CG1      -57.4500   83.8890   36.3070 C.3   479  ILE479      0.0019
    142  CG2      -59.8290   83.7590   35.2710 C.3   479  ILE479      0.0019
    143  CD1      -57.2550   85.3660   36.2640 C.3   479  ILE479      0.0001
    144  N        -40.3410   86.4810   37.0820 N.3   514  TYR514     -0.1241
    145  CA       -39.3900   87.3270   37.8160 C.3   514  TYR514      0.1605
    146  C        -37.8860   87.0830   37.5100 C.2   514  TYR514      0.2264
    147  O        -37.1420   88.0350   37.3740 O.2   514  TYR514     -0.2867
    148  CB       -39.6960   87.3140   39.3290 C.3   514  TYR514      0.0534
    149  CG       -40.9970   88.0170   39.5690 C.ar  514  TYR514     -0.0201
    150  CD1      -42.2200   87.3600   39.3700 C.ar  514  TYR514     -0.0009
    151  CD2      -41.0310   89.3730   39.8630 C.ar  514  TYR514     -0.0009
    152  CE1      -43.4210   88.0330   39.5030 C.ar  514  TYR514      0.0417
    153  CE2      -42.2410   90.0460   39.9990 C.ar  514  TYR514      0.0417
    154  CZ       -43.4330   89.3750   39.8160 C.ar  514  TYR514      0.1957
    155  OH       -44.6280   90.0520   39.9620 O.3   514  TYR514     -0.2866
@<TRIPOS>BOND
     1     3     2    1
     2     3     4    2
     3     2     1    1
     4     2     5    1
     5    84    83    2
     6    10    11    1
     7     5     6    1
     8     6     7    1
     9    93    92    2
    10    85    86    1
    11    85    82    1
    12    97    96    2
    13    86    87    1
    14    55    54    2
    15    83    82    1
    16    83    90   am
    17    54    53    1
    18    11    12    1
    19    11    14    1
    20    96    95    1
    21    82    81    1
    22    47    46    2
    23    92    91    1
    24    92    94   am
    25    91    90    1
    26    12    13    2
    27     7     8    1
    28    16    15   ar
    29    87    89   ar
    30    87    88   ar
    31    46    45    1
    32    14    15    1
    33    53    56    1
    34    53    52    1
    35    56    57    1
    36     8     9    1
    37    95    94    1
    38    95    98    1
    39    59    57   ar
    40    81    78   am
    41    15    17   ar
    42    79    78    2
    43    57    58   ar
    44    98    99    1
    45    78    77    1
    46    45    48    1
    47    45    44    1
    48    48    49    1
    49   110   109    1
    50    68    69    1
    51    63    62    2
    52   105   106    1
    53    69    70    1
    54    69    72    1
    55    62    61    1
    56   118   117    1
    57    99   100    1
    58    49    50    1
    59    77    76    1
    60    77    80    1
    61    70    76   am
    62    70    71    2
    63   111   109    1
    64    74    73   ar
    65   109   106    1
    66   108   107    2
    67    50    51    1
    68   100   101    1
    69   106   107    1
    70    60    61    1
    71    61    64    1
    72    72    73    1
    73   107   112   am
    74    73    75   ar
    75   117   119    1
    76   117   116    1
    77    18    19    1
    78    26    25    1
    79    24    23    1
    80    24    25    1
    81    66    65    2
    82   113   116    1
    83   113   112    1
    84   113   114    1
    85   101   102    2
    86    23    22    1
    87    21    20    2
    88    22    19    1
    89    64    65    1
    90   115   114    2
    91    19    20    1
    92    65    67   am
    93   136   137    1
    94   114   120   am
    95    20    27   am
    96   102   104    1
    97   102   103    1
    98    37    36    2
    99    30    29    2
   100   137   140    1
   101   137   138    1
   102    36    35    1
   103   120   121    1
   104   140   142    1
   105   140   141    1
   106    27    28    1
   107    27    33    1
   108    29    28    1
   109   139   138    2
   110    28    31    1
   111   126   124    1
   112   143   141    1
   113   121   124    1
   114   121   122    1
   115    33    32    1
   116    35    38    1
   117    35    34    1
   118    38    39    1
   119   124   125    1
   120   144   145    1
   121    31    32    1
   122   122   123    2
   123   122   127   am
   124   147   146    2
   125   146   145    1
   126   145   148    1
   127   127   128    1
   128    39    40   ar
   129    39    41   ar
   130    40    42   ar
   131   128   129    1
   132   148   149    1
   133   150   152   ar
   134   150   149   ar
   135    41    43   ar
   136   152   154   ar
   137   149   151   ar
   138   154   155    1
   139   154   153   ar
   140   151   153   ar
   141    42    43   ar
   142   131   129   am
   143   131   132    1
   144   129   130    2
   145   135   132    1
   146   132   133    1
   147   133   134    2
