@<TRIPOS>MOLECULE
tmp/5ntnC00.pdb
 69 64 0 0 0
SMALL
GASTEIGER

@<TRIPOS>ATOM
      1  N          9.2310   14.8690   83.7070 N.3    69  VAL69      -0.1245
      2  CA         9.4500   15.6980   84.8960 C.3    69  VAL69       0.1561
      3  C         10.0160   14.8550   86.0430 C.2    69  VAL69       0.2260
      4  O         10.9650   15.2720   86.7180 O.2    69  VAL69      -0.2867
      5  CB         8.1620   16.4180   85.3490 C.3    69  VAL69       0.0252
      6  CG1        8.3640   17.0950   86.7170 C.3    69  VAL69       0.0019
      7  CG2        7.7360   17.4380   84.3030 C.3    69  VAL69       0.0019
      8  N         13.6140   15.0870   87.9560 N.3    73  LYS73      -0.1245
      9  CA        13.7050   15.1990   89.4120 C.3    73  LYS73       0.1561
     10  C         14.6760   14.1830   90.0160 C.2    73  LYS73       0.2260
     11  O         15.3070   14.4650   91.0320 O.2    73  LYS73      -0.2867
     12  CB        12.3210   15.0630   90.0610 C.3    73  LYS73       0.0271
     13  CG        11.4110   16.2720   89.8580 C.3    73  LYS73       0.0035
     14  CD        10.0650   16.0970   90.5570 C.3    73  LYS73       0.0206
     15  CE        10.1480   16.4340   92.0440 C.3    73  LYS73       0.1093
     16  NZ         8.8170   16.3180   92.7050 N.3    73  LYS73      -0.1314
     17  N         20.5720   17.6950   88.2980 N.3    78  PHE78      -0.1227
     18  CA        19.4610   18.5510   87.8640 C.3    78  PHE78       0.1736
     19  C         18.8420   19.3530   89.0080 C.2    78  PHE78       0.2595
     20  O         18.6370   20.5590   88.8820 O.2    78  PHE78      -0.2718
     21  CB        18.3840   17.7300   87.1330 C.3    78  PHE78       0.0547
     22  CG        17.2340   18.5570   86.6050 C.ar   78  PHE78      -0.0202
     23  CD1       17.3120   19.1680   85.3560 C.ar   78  PHE78      -0.0042
     24  CD2       16.0670   18.7190   87.3570 C.ar   78  PHE78      -0.0042
     25  CE1       16.2510   19.9340   84.8650 C.ar   78  PHE78      -0.0003
     26  CE2       15.0000   19.4780   86.8720 C.ar   78  PHE78      -0.0003
     27  CZ        15.0930   20.0840   85.6220 C.ar   78  PHE78      -0.0000
     28  N         18.5460   18.6840   90.1180 N.am   79  MET79      -0.1979
     29  CA        17.9020   19.3460   91.2540 C.3    79  MET79       0.1605
     30  C         18.8680   20.2530   92.0180 C.2    79  MET79       0.2287
     31  O         18.4460   21.0770   92.8320 O.2    79  MET79      -0.2864
     32  CB        17.2520   18.3240   92.1880 C.3    79  MET79       0.0413
     33  CG        16.0960   17.5490   91.5570 C.3    79  MET79       0.0598
     34  SD        14.7680   18.6050   90.9460 S.3    79  MET79      -0.1393
     35  CE        13.9740   19.0860   92.4810 C.3    79  MET79       0.0692
     36  N         16.3190   26.9730   90.6460 N.3    83  GLN83      -0.1245
     37  CA        14.9290   26.7660   90.2430 C.3    83  GLN83       0.1566
     38  C         14.6030   27.2980   88.8500 C.2    83  GLN83       0.2260
     39  O         13.9210   26.6250   88.0790 O.2    83  GLN83      -0.2867
     40  CB        13.9700   27.3490   91.2840 C.3    83  GLN83       0.0367
     41  CG        13.9260   26.5540   92.5840 C.3    83  GLN83       0.0905
     42  CD        12.8510   27.0350   93.5490 C.2    83  GLN83       0.2608
     43  OE1       12.0200   27.8810   93.2120 O.2    83  GLN83      -0.2717
     44  NE2       12.8620   26.4860   94.7570 N.am   83  GLN83      -0.0878
     45  N         16.0590   24.9120   86.0970 N.3    86  GLN86      -0.1231
     46  CA        15.2700   23.6810   86.0710 C.3    86  GLN86       0.1698
     47  C         14.0520   23.8420   85.1720 C.2    86  GLN86       0.2592
     48  O         13.7690   22.9760   84.3440 O.2    86  GLN86      -0.2718
     49  CB        14.8010   23.3070   87.4760 C.3    86  GLN86       0.0381
     50  CG        15.8940   22.8900   88.4450 C.3    86  GLN86       0.0905
     51  CD        15.3510   22.6150   89.8390 C.2    86  GLN86       0.2608
     52  OE1       14.1630   22.3420   90.0140 O.2    86  GLN86      -0.2717
     53  NE2       16.2220   22.6840   90.8380 N.am   86  GLN86      -0.0878
     54  N         13.3460   24.9600   85.3530 N.am   87  ILE87      -0.1980
     55  CA        12.1630   25.3120   84.5660 C.3    87  ILE87       0.1595
     56  C         12.5080   25.5020   83.0920 C.2    87  ILE87       0.2287
     57  O         11.8270   24.9550   82.2250 O.2    87  ILE87      -0.2864
     58  CB        11.4610   26.6030   85.1090 C.3    87  ILE87       0.0276
     59  CG1       11.0530   26.4420   86.5820 C.3    87  ILE87       0.0022
     60  CG2       10.2630   27.0110   84.2280 C.3    87  ILE87       0.0022
     61  CD1        9.9580   25.4240   86.8420 C.3    87  ILE87       0.0001
     62  N         13.3760   22.1150   81.3980 N.3    90  LEU90      -0.1245
     63  CA        12.2030   21.2580   81.2350 C.3    90  LEU90       0.1561
     64  C         11.2110   21.8050   80.2110 C.2    90  LEU90       0.2260
     65  O         10.6610   21.0390   79.4230 O.2    90  LEU90      -0.2867
     66  CB        11.5210   20.9670   82.5790 C.3    90  LEU90       0.0270
     67  CG        11.9900   19.6970   83.3040 C.3    90  LEU90       0.0019
     68  CD1       11.3820   19.6190   84.6900 C.3    90  LEU90       0.0001
     69  CD2       11.6550   18.4250   82.5040 C.3    90  LEU90       0.0001
@<TRIPOS>BOND
     1    65    64    2
     2    64    63    1
     3    63    62    1
     4    63    66    1
     5    57    56    2
     6    69    67    1
     7    66    67    1
     8    56    55    1
     9    67    68    1
    10     1     2    1
    11    60    58    1
    12     7     5    1
    13    48    47    2
    14    55    58    1
    15    55    54    1
    16    25    23   ar
    17    25    27   ar
    18     2     5    1
    19     2     3    1
    20    58    59    1
    21    47    54   am
    22    47    46    1
    23     5     6    1
    24    23    22   ar
    25    27    26   ar
    26     3     4    2
    27    46    45    1
    28    46    49    1
    29    59    61    1
    30    22    21    1
    31    22    24   ar
    32    26    24   ar
    33    21    18    1
    34    49    50    1
    35    18    17    1
    36    18    19    1
    37     8     9    1
    38    39    38    2
    39    50    51    1
    40    38    37    1
    41    20    19    2
    42    19    28   am
    43     9    10    1
    44     9    12    1
    45    51    52    2
    46    51    53   am
    47    13    12    1
    48    13    14    1
    49    10    11    2
    50    28    29    1
    51    37    36    1
    52    37    40    1
    53    14    15    1
    54    34    33    1
    55    34    35    1
    56    29    30    1
    57    29    32    1
    58    40    41    1
    59    33    32    1
    60    30    31    2
    61    15    16    1
    62    41    42    1
    63    43    42    2
    64    42    44   am
