@<TRIPOS>MOLECULE
tmp/5ntpA00.pdb
 254 247 0 0 0
SMALL
GASTEIGER

@<TRIPOS>ATOM
      1  N         14.1010    6.3230    8.7570 N.3    24  GLN24      -0.1231
      2  CA        14.0470    5.0600    9.4860 C.3    24  GLN24       0.1698
      3  C         12.6030    4.6490    9.7680 C.2    24  GLN24       0.2592
      4  O         12.0740    3.7310    9.1350 O.2    24  GLN24      -0.2718
      5  CB        14.8440    5.1650   10.7980 C.3    24  GLN24       0.0381
      6  CG        16.2460    5.7660   10.6550 C.3    24  GLN24       0.0905
      7  CD        16.9570    5.9710   11.9880 C.2    24  GLN24       0.2608
      8  OE1       17.3310    7.0920   12.3370 O.2    24  GLN24      -0.2717
      9  NE2       17.1520    4.8880   12.7330 N.am   24  GLN24      -0.0878
     10  N         11.9700    5.3460   10.7070 N.am   25  LEU25      -0.1980
     11  CA        10.6120    5.0240   11.1230 C.3    25  LEU25       0.1596
     12  C          9.5960    5.9400   10.4630 C.2    25  LEU25       0.2287
     13  O          9.8360    7.1370   10.3140 O.2    25  LEU25      -0.2864
     14  CB        10.4830    5.1200   12.6450 C.3    25  LEU25       0.0297
     15  CG        11.3150    4.1730   13.5140 C.3    25  LEU25       0.0022
     16  CD1       10.9020    4.3200   14.9660 C.3    25  LEU25       0.0001
     17  CD2       11.1490    2.7330   13.0590 C.3    25  LEU25       0.0001
     18  N          5.5180    6.6180   14.7360 N.3    30  LEU30      -0.1245
     19  CA         5.9790    7.4420   15.8550 C.3    30  LEU30       0.1561
     20  C          4.7970    8.0890   16.5680 C.2    30  LEU30       0.2260
     21  O          4.7500    8.1200   17.8000 O.2    30  LEU30      -0.2867
     22  CB         6.9790    8.5060   15.3870 C.3    30  LEU30       0.0270
     23  CG         8.4080    8.0350   15.1020 C.3    30  LEU30       0.0019
     24  CD1        9.1750    9.0790   14.2990 C.3    30  LEU30       0.0001
     25  CD2        9.1580    7.7110   16.3810 C.3    30  LEU30       0.0001
     26  N         26.4290    7.0350   26.1090 N.3    55  TRP55      -0.1241
     27  CA        27.0950    7.6280   24.9510 C.3    55  TRP55       0.1605
     28  C         27.0730    6.6920   23.7430 C.2    55  TRP55       0.2264
     29  O         26.7400    7.1210   22.6350 O.2    55  TRP55      -0.2867
     30  CB        28.5190    8.0630   25.3040 C.3    55  TRP55       0.0550
     31  CG        29.4420    8.2500   24.1190 C.ar   55  TRP55       0.0003
     32  CD1       30.6120    7.5880   23.8920 C.ar   55  TRP55       0.0946
     33  CD2       29.2680    9.1500   23.0100 C.ar   55  TRP55       0.0152
     34  NE1       31.1880    8.0250   22.7220 N.ar   55  TRP55      -0.2442
     35  CE2       30.3800    8.9770   22.1560 C.ar   55  TRP55       0.0810
     36  CE3       28.2820   10.0860   22.6580 C.ar   55  TRP55       0.0012
     37  CZ2       30.5410    9.7100   20.9680 C.ar   55  TRP55       0.0191
     38  CZ3       28.4420   10.8150   21.4750 C.ar   55  TRP55       0.0001
     39  CH2       29.5630   10.6200   20.6470 C.ar   55  TRP55       0.0015
     40  N         23.5650    6.5540   22.2430 N.3    58  CYS58      -0.1235
     41  CA        23.2340    7.7850   21.5270 C.3    58  CYS58       0.1677
     42  C         24.0580    7.9360   20.2550 C.2    58  CYS58       0.2270
     43  O         23.5270    8.3230   19.2160 O.2    58  CYS58      -0.2867
     44  CB        23.3950    9.0040   22.4400 C.3    58  CYS58       0.0956
     45  SG        22.2740    8.9730   23.8410 S.3    58  CYS58      -0.0801
     46  N         22.8300    5.6880   17.5090 N.3    61  HIS61      -0.1226
     47  CA        21.6210    6.2790   16.9270 C.3    61  HIS61       0.1752
     48  C         21.9640    7.4140   15.9600 C.2    61  HIS61       0.2595
     49  O         21.4220    7.4850   14.8500 O.2    61  HIS61      -0.2718
     50  CB        20.6430    6.8110   17.9680 C.3    61  HIS61       0.0759
     51  CG        19.5380    7.6110   17.3530 C.ar   61  HIS61       0.0818
     52  ND1       18.6260    7.0560   16.4800 N.ar   61  HIS61      -0.2268
     53  CD2       19.2580    8.9340   17.3990 C.ar   61  HIS61       0.1154
     54  CE1       17.8030    7.9960   16.0510 C.ar   61  HIS61       0.1986
     55  NE2       18.1640    9.1450   16.5950 N.ar   61  HIS61      -0.2212
     56  N         22.8490    8.3060   16.3950 N.am   62  LEU62      -0.1980
     57  CA        23.2630    9.4310   15.5570 C.3    62  LEU62       0.1596
     58  C         23.9850    8.9910   14.2930 C.2    62  LEU62       0.2287
     59  O         23.8000    9.5950   13.2420 O.2    62  LEU62      -0.2864
     60  CB        24.1400   10.4020   16.3430 C.3    62  LEU62       0.0297
     61  CG        23.4170   11.1710   17.4470 C.3    62  LEU62       0.0022
     62  CD1       24.4360   11.8660   18.3100 C.3    62  LEU62       0.0001
     63  CD2       22.4080   12.1790   16.8940 C.3    62  LEU62       0.0001
     64  N         15.0900   16.5740   11.9240 N.3   102  ARG102     -0.1231
     65  CA        14.3790   15.2900   11.8350 C.3   102  ARG102      0.1694
     66  C         13.9700   14.7490   13.2110 C.2   102  ARG102      0.2591
     67  O         12.9940   14.0140   13.3220 O.2   102  ARG102     -0.2718
     68  CB        15.1960   14.2450   11.0710 C.3   102  ARG102      0.0321
     69  CG        15.2100   14.4130    9.5410 C.3   102  ARG102      0.0489
     70  CD        16.0670   13.3090    8.9000 C.3   102  ARG102      0.2205
     71  NE        15.8450   13.1480    7.4570 N.pl3 102  ARG102     -0.0865
     72  CZ        16.1100   12.0360    6.7700 C.cat 102  ARG102      0.5346
     73  NH1       16.6070   10.9630    7.3770 N.pl3 102  ARG102      0.1354
     74  NH2       15.8710   11.9870    5.4670 N.pl3 102  ARG102      0.1354
     75  N         14.7150   15.1150   14.2490 N.am  103  MET103     -0.1979
     76  CA        14.3630   14.7330   15.6220 C.3   103  MET103      0.1605
     77  C         12.9520   15.1370   16.0640 C.2   103  MET103      0.2287
     78  O         12.3490   14.4410   16.8800 O.2   103  MET103     -0.2864
     79  CB        15.3870   15.2830   16.6190 C.3   103  MET103      0.0413
     80  CG        16.6980   14.5360   16.6330 C.3   103  MET103      0.0598
     81  SD        17.8090   15.2650   17.8550 S.3   103  MET103     -0.1393
     82  CE        19.3260   14.3950   17.4680 C.3   103  MET103      0.0692
     83  N         10.1880   14.8410   14.6790 N.3   105  ARG105     -0.1231
     84  CA         9.2440   13.7680   14.3320 C.3   105  ARG105      0.1694
     85  C          8.9990   12.8450   15.5150 C.2   105  ARG105      0.2592
     86  O          7.9060   12.2960   15.6740 O.2   105  ARG105     -0.2718
     87  CB         9.7860   12.9340   13.1750 C.3   105  ARG105      0.0321
     88  CG         9.9100   13.7060   11.8720 C.3   105  ARG105      0.0489
     89  CD        10.7770   12.9600   10.8920 C.3   105  ARG105      0.2205
     90  NE        10.0460   11.8940   10.2080 N.pl3 105  ARG105     -0.0865
     91  CZ        10.2170   10.5930   10.4160 C.cat 105  ARG105      0.5346
     92  NH1       11.1030   10.1500   11.3050 N.pl3 105  ARG105      0.1354
     93  NH2        9.4950    9.7290    9.7260 N.pl3 105  ARG105      0.1354
     94  N         10.0280   12.7080   16.3430 N.am  106  ALA106     -0.1966
     95  CA        10.0320   11.8060   17.4820 C.3   106  ALA106      0.1728
     96  C          9.8290   12.5500   18.8080 C.2   106  ALA106      0.2616
     97  O         10.0430   11.9880   19.8780 O.2   106  ALA106     -0.2715
     98  CB        11.3440   11.0210   17.4960 C.3   106  ALA106      0.0334
     99  N          9.3980   13.8080   18.7360 N.am  107  TYR107     -0.1974
    100  CA         9.1830   14.6250   19.9290 C.3   107  TYR107      0.1639
    101  C          7.6870   14.8190   20.1910 C.2   107  TYR107      0.2290
    102  O          6.9260   15.1620   19.2740 O.2   107  TYR107     -0.2864
    103  CB         9.8840   15.9890   19.7830 C.3   107  TYR107      0.0560
    104  CG         9.6210   16.9170   20.9450 C.ar  107  TYR107     -0.0198
    105  CD1       10.4410   16.8990   22.0740 C.ar  107  TYR107     -0.0009
    106  CD2        8.5420   17.8010   20.9300 C.ar  107  TYR107     -0.0009
    107  CE1       10.1990   17.7370   23.1540 C.ar  107  TYR107      0.0417
    108  CE2        8.2920   18.6420   22.0060 C.ar  107  TYR107      0.0417
    109  CZ         9.1290   18.6050   23.1160 C.ar  107  TYR107      0.1957
    110  OH         8.8890   19.4230   24.1910 O.3   107  TYR107     -0.2866
    111  N         10.4780   12.0800   24.1870 N.3   114  VAL114     -0.1231
    112  CA        11.0380   11.7440   22.8860 C.3   114  VAL114      0.1692
    113  C         11.1420   10.2270   22.7420 C.2   114  VAL114      0.2592
    114  O         11.2770    9.5040   23.7410 O.2   114  VAL114     -0.2718
    115  CB        12.4340   12.3870   22.6740 C.3   114  VAL114      0.0266
    116  CG1       12.3340   13.9150   22.7270 C.3   114  VAL114      0.0020
    117  CG2       13.4560   11.8680   23.7090 C.3   114  VAL114      0.0020
    118  N         11.0850    9.7540   21.5010 N.am  115  PHE115     -0.1962
    119  CA        11.2250    8.3350   21.2240 C.3   115  PHE115      0.1771
    120  C         12.6960    7.9640   21.3440 C.2   115  PHE115      0.2620
    121  O         13.5620    8.6170   20.7620 O.2   115  PHE115     -0.2715
    122  CB        10.6990    8.0050   19.8260 C.3   115  PHE115      0.0574
    123  CG        10.6150    6.5220   19.5350 C.ar  115  PHE115     -0.0200
    124  CD1        9.4910    5.7860   19.9190 C.ar  115  PHE115     -0.0042
    125  CD2       11.6480    5.8690   18.8720 C.ar  115  PHE115     -0.0042
    126  CE1        9.4030    4.4210   19.6430 C.ar  115  PHE115     -0.0003
    127  CE2       11.5700    4.5010   18.5860 C.ar  115  PHE115     -0.0003
    128  CZ        10.4450    3.7790   18.9790 C.ar  115  PHE115     -0.0000
    129  N         12.9760    6.9250   22.1210 N.am  116  PHE116     -0.1960
    130  CA        14.3390    6.4290   22.2570 C.3   116  PHE116      0.1771
    131  C         14.2720    4.9640   22.6410 C.2   116  PHE116      0.2619
    132  O         13.7040    4.6080   23.6730 O.2   116  PHE116     -0.2715
    133  CB        15.1250    7.2150   23.3120 C.3   116  PHE116      0.0574
    134  CG        16.5920    6.8540   23.3730 C.ar  116  PHE116     -0.0200
    135  CD1       17.4650    7.2690   22.3700 C.ar  116  PHE116     -0.0042
    136  CD2       17.0990    6.1040   24.4310 C.ar  116  PHE116     -0.0042
    137  CE1       18.8270    6.9390   22.4120 C.ar  116  PHE116     -0.0003
    138  CE2       18.4710    5.7720   24.4850 C.ar  116  PHE116     -0.0003
    139  CZ        19.3240    6.1900   23.4770 C.ar  116  PHE116     -0.0000
    140  N         14.8460    4.1260   21.7890 N.am  117  GLU117     -0.1977
    141  CA        14.9620    2.6950   22.0680 C.3   117  GLU117      0.1602
    142  C         13.6150    2.0850   22.4550 C.2   117  GLU117      0.2287
    143  O         13.4690    1.4540   23.5110 O.2   117  GLU117     -0.2864
    144  CB        16.0680    2.4320   23.1060 C.3   117  GLU117      0.0415
    145  CG        17.4340    2.8420   22.5660 C.3   117  GLU117      0.1163
    146  CD        18.6040    2.4030   23.4150 C.2   117  GLU117      0.3649
    147  OE1       18.4230    2.0890   24.6050 O.co2 117  GLU117     -0.2457
    148  OE2       19.7250    2.3910   22.8750 O.co2 117  GLU117     -0.2457
    149  N         18.2360   10.5980   30.0510 N.3   126  PHE126     -0.1241
    150  CA        19.6090   10.7570   29.5740 C.3   126  PHE126      0.1605
    151  C         20.5690   11.2880   30.6330 C.2   126  PHE126      0.2264
    152  O         21.6650   11.7500   30.3050 O.2   126  PHE126     -0.2867
    153  CB        19.6210   11.6610   28.3260 C.3   126  PHE126      0.0534
    154  CG        18.7240   11.1610   27.2230 C.ar  126  PHE126     -0.0203
    155  CD1       17.4320   11.6580   27.0750 C.ar  126  PHE126     -0.0042
    156  CD2       19.1640   10.1630   26.3600 C.ar  126  PHE126     -0.0042
    157  CE1       16.5890   11.1680   26.0810 C.ar  126  PHE126     -0.0003
    158  CE2       18.3290    9.6720   25.3580 C.ar  126  PHE126     -0.0003
    159  CZ        17.0400   10.1740   25.2240 C.ar  126  PHE126     -0.0000
    160  N         24.4850   10.9190   30.8230 N.3   129  LEU129     -0.1245
    161  CA        25.3070   11.7030   29.8930 C.3   129  LEU129      0.1561
    162  C         25.8810   12.9790   30.5010 C.2   129  LEU129      0.2260
    163  O         26.9270   13.4560   30.0620 O.2   129  LEU129     -0.2867
    164  CB        24.5150   12.0600   28.6290 C.3   129  LEU129      0.0270
    165  CG        24.1680   10.9050   27.6890 C.3   129  LEU129      0.0019
    166  CD1       23.2780   11.3930   26.5590 C.3   129  LEU129      0.0001
    167  CD2       25.4250   10.2500   27.1310 C.3   129  LEU129      0.0001
    168  N         24.5570   15.9840   30.3230 N.3   131  CYS131     -0.1235
    169  CA        24.3960   17.0390   29.3180 C.3   131  CYS131      0.1677
    170  C         23.0290   17.7130   29.4000 C.2   131  CYS131      0.2270
    171  O         22.3900   17.9560   28.3700 O.2   131  CYS131     -0.2867
    172  CB        24.5800   16.4520   27.9130 C.3   131  CYS131      0.0956
    173  SG        26.2410   15.9190   27.5430 S.3   131  CYS131     -0.0801
    174  N         22.3780   21.0400   27.2020 N.3   134  LEU134     -0.1231
    175  CA        22.3570   20.7890   25.7620 C.3   134  LEU134      0.1693
    176  C         21.0950   20.0400   25.3550 C.2   134  LEU134      0.2591
    177  O         20.4350   20.4040   24.3690 O.2   134  LEU134     -0.2718
    178  CB        23.5950   20.0020   25.3200 C.3   134  LEU134      0.0284
    179  CG        23.5860   19.4430   23.8900 C.3   134  LEU134      0.0019
    180  CD1       23.5590   20.5470   22.8280 C.3   134  LEU134      0.0001
    181  CD2       24.7780   18.5270   23.6740 C.3   134  LEU134      0.0001
    182  N         20.7660   18.9980   26.1160 N.am  135  ILE135     -0.1980
    183  CA        19.5820   18.1900   25.8300 C.3   135  ILE135      0.1595
    184  C         18.3200   19.0350   25.9860 C.2   135  ILE135      0.2287
    185  O         17.4040   18.9190   25.1760 O.2   135  ILE135     -0.2864
    186  CB        19.5470   16.8890   26.6690 C.3   135  ILE135      0.0276
    187  CG1       20.7010   15.9680   26.2340 C.3   135  ILE135      0.0022
    188  CG2       18.1990   16.1660   26.5140 C.3   135  ILE135      0.0022
    189  CD1       20.7860   14.6480   26.9850 C.3   135  ILE135      0.0001
    190  N         17.9840   20.9870   22.8630 N.3   138  ILE138     -0.1231
    191  CA        17.4510   20.1430   21.7880 C.3   138  ILE138      0.1692
    192  C         15.9370   19.9570   21.9490 C.2   138  ILE138      0.2592
    193  O         15.1980   20.0530   20.9700 O.2   138  ILE138     -0.2718
    194  CB        18.1750   18.7750   21.7020 C.3   138  ILE138      0.0266
    195  CG1       19.6280   18.9850   21.2530 C.3   138  ILE138      0.0019
    196  CG2       17.4530   17.8200   20.7240 C.3   138  ILE138      0.0020
    197  CD1       20.5280   17.7790   21.4410 C.3   138  ILE138      0.0001
    198  N         15.4810   19.7110   23.1780 N.am  139  PHE139     -0.1976
    199  CA        14.0420   19.5690   23.4390 C.3   139  PHE139      0.1639
    200  C         13.3030   20.8670   23.1110 C.2   139  PHE139      0.2290
    201  O         12.2310   20.8380   22.4990 O.2   139  PHE139     -0.2864
    202  CB        13.7820   19.1630   24.8970 C.3   139  PHE139      0.0560
    203  CG        13.8320   17.6690   25.1530 C.ar  139  PHE139     -0.0200
    204  CD1       14.9440   16.9060   24.7890 C.ar  139  PHE139     -0.0042
    205  CD2       12.7740   17.0360   25.8100 C.ar  139  PHE139     -0.0042
    206  CE1       14.9890   15.5350   25.0450 C.ar  139  PHE139     -0.0003
    207  CE2       12.8060   15.6720   26.0730 C.ar  139  PHE139     -0.0003
    208  CZ        13.9180   14.9170   25.6960 C.ar  139  PHE139     -0.0000
    209  N         13.0860   21.3820   19.3230 N.3   142  SER142     -0.1217
    210  CA        12.1360   20.4010   18.8120 C.3   142  SER142      0.1889
    211  C         10.7080   20.7890   19.1410 C.2   142  SER142      0.2288
    212  O          9.8120   20.5720   18.3330 O.2   142  SER142     -0.2866
    213  CB        12.4490   19.0090   19.3620 C.3   142  SER142      0.2089
    214  OG        13.7850   18.6530   19.0320 O.3   142  SER142     -0.2183
    215  N         25.8460   21.2000   19.7770 N.3   217  HIS217     -0.1241
    216  CA        25.6950   19.7480   19.7540 C.3   217  HIS217      0.1621
    217  C         27.0020   19.0650   19.3520 C.2   217  HIS217      0.2264
    218  O         27.4880   18.1720   20.0580 O.2   217  HIS217     -0.2867
    219  CB        24.5490   19.3570   18.8060 C.3   217  HIS217      0.0745
    220  CG        24.1180   17.9260   18.9210 C.ar  217  HIS217      0.0817
    221  ND1       23.4890   17.2560   17.8920 N.ar  217  HIS217     -0.2268
    222  CD2       24.2260   17.0380   19.9370 C.ar  217  HIS217      0.1154
    223  CE1       23.2250   16.0190   18.2720 C.ar  217  HIS217      0.1986
    224  NE2       23.6600   15.8610   19.5110 N.ar  217  HIS217     -0.2212
    225  N         29.9190   19.0910   21.9340 N.3   220  ARG220     -0.1231
    226  CA        29.7860   18.0670   22.9660 C.3   220  ARG220      0.1694
    227  C         30.0230   16.6610   22.4180 C.2   220  ARG220      0.2591
    228  O         30.6290   15.8350   23.0970 O.2   220  ARG220     -0.2718
    229  CB        28.4200   18.1690   23.6530 C.3   220  ARG220      0.0321
    230  CG        28.2150   17.2500   24.8520 C.3   220  ARG220      0.0489
    231  CD        29.3230   17.3820   25.9120 C.3   220  ARG220      0.2205
    232  NE        29.5000   18.7500   26.3980 N.pl3 220  ARG220     -0.0865
    233  CZ        30.4370   19.1180   27.2720 C.cat 220  ARG220      0.5346
    234  NH1       31.2840   18.2210   27.7650 N.pl3 220  ARG220      0.1354
    235  NH2       30.5320   20.3850   27.6540 N.pl3 220  ARG220      0.1354
    236  N         29.5520   16.3900   21.1970 N.am  221  LEU221     -0.1980
    237  CA        29.8180   15.1020   20.5430 C.3   221  LEU221      0.1596
    238  C         31.3110   14.8260   20.3810 C.2   221  LEU221      0.2287
    239  O         31.7600   13.6940   20.5550 O.2   221  LEU221     -0.2864
    240  CB        29.1380   15.0090   19.1720 C.3   221  LEU221      0.0297
    241  CG        27.6090   15.0330   19.1560 C.3   221  LEU221      0.0022
    242  CD1       27.0860   15.1410   17.7260 C.3   221  LEU221      0.0001
    243  CD2       27.0320   13.8080   19.8620 C.3   221  LEU221      0.0001
    244  N         32.8020   13.6490   23.7820 N.3   224  PHE224     -0.1241
    245  CA        32.5210   12.2330   24.0340 C.3   224  PHE224      0.1605
    246  C         33.3420   11.3060   23.1420 C.2   224  PHE224      0.2264
    247  O         33.8530   10.2810   23.6020 O.2   224  PHE224     -0.2867
    248  CB        31.0320   11.9310   23.8340 C.3   224  PHE224      0.0534
    249  CG        30.1700   12.2750   25.0160 C.ar  224  PHE224     -0.0203
    250  CD1       30.2140   11.5050   26.1800 C.ar  224  PHE224     -0.0042
    251  CD2       29.2970   13.3540   24.9600 C.ar  224  PHE224     -0.0042
    252  CE1       29.4030   11.8170   27.2700 C.ar  224  PHE224     -0.0003
    253  CE2       28.4880   13.6750   26.0420 C.ar  224  PHE224     -0.0003
    254  CZ        28.5370   12.9040   27.2010 C.ar  224  PHE224     -0.0000
@<TRIPOS>BOND
     1    74    72    1
     2    72    73    1
     3    72    71    2
     4    71    70    1
     5     1     2    1
     6    70    69    1
     7     4     3    2
     8     2     3    1
     9     2     5    1
    10    69    68    1
    11    93    91    1
    12     3    10   am
    13    90    91    2
    14    90    89    1
    15    13    12    2
    16    91    92    1
    17    12    11    1
    18     6     5    1
    19     6     7    1
    20    10    11    1
    21    89    88    1
    22    68    65    1
    23    11    14    1
    24    65    64    1
    25    65    66    1
    26    88    87    1
    27     7     8    2
    28     7     9   am
    29    14    15    1
    30    17    15    1
    31    87    84    1
    32    66    67    2
    33    66    75   am
    34    59    58    2
    35    15    16    1
    36    75    76    1
    37    58    57    1
    38    24    23    1
    39    84    83    1
    40    84    85    1
    41    18    19    1
    42    49    48    2
    43    23    22    1
    44    23    25    1
    45    22    19    1
    46    85    86    2
    47    85    94   am
    48    57    60    1
    49    57    56    1
    50    76    77    1
    51    76    79    1
    52    19    20    1
    53    48    56   am
    54    48    47    1
    55    54    52   ar
    56    54    55   ar
    57    77    78    2
    58    60    61    1
    59    94    95    1
    60    52    51   ar
    61    20    21    2
    62    55    53   ar
    63    79    80    1
    64    80    81    1
    65    63    61    1
    66    47    46    1
    67    47    50    1
    68    51    53   ar
    69    51    50    1
    70    61    62    1
    71    82    81    1
    72    95    98    1
    73    95    96    1
    74   242   241    1
    75   221   223   ar
    76   221   220   ar
    77   223   224   ar
    78   212   211    2
    79   127   125   ar
    80   127   128   ar
    81    99    96   am
    82    99   100    1
    83   219   220    1
    84   219   216    1
    85    96    97    2
    86   210   211    1
    87   210   209    1
    88   210   213    1
    89   125   123   ar
    90   220   222   ar
    91   128   126   ar
    92   214   213    1
    93   241   240    1
    94   241   243    1
    95   240   237    1
    96    43    42    2
    97   102   101    2
    98   217   216    1
    99   217   218    2
   100   224   222   ar
   101   123   122    1
   102   123   124   ar
   103   126   124   ar
   104   216   215    1
   105   103   100    1
   106   103   104    1
   107   122   119    1
   108   100   101    1
   109    42    41    1
   110   238   237    1
   111   238   239    2
   112   237   236    1
   113    39    37   ar
   114    39    38   ar
   115   196   194    1
   116   121   120    2
   117   106   104   ar
   118   106   108   ar
   119   104   105   ar
   120    37    35   ar
   121   193   192    2
   122   236   227   am
   123   119   120    1
   124   119   118    1
   125   195   197    1
   126   195   194    1
   127   120   129   am
   128    38    36   ar
   129   118   113   am
   130    41    40    1
   131    41    44    1
   132   194   191    1
   133   191   192    1
   134   191   190    1
   135   140   141    1
   136   140   131   am
   137   225   226    1
   138   192   198   am
   139   108   109   ar
   140   141   142    1
   141   141   144    1
   142   105   107   ar
   143   129   130    1
   144    35    34   ar
   145    35    33   ar
   146   130   131    1
   147   130   133    1
   148   135   137   ar
   149   135   134   ar
   150   137   139   ar
   151   227   226    1
   152   227   228    2
   153    44    45    1
   154   142   143    2
   155   201   200    2
   156   145   144    1
   157   145   146    1
   158    29    28    2
   159   131   132    2
   160    36    33   ar
   161   115   116    1
   162   115   112    1
   163   115   117    1
   164    34    32   ar
   165   113   112    1
   166   113   114    2
   167   180   179    1
   168   148   146   ar
   169   112   111    1
   170   226   229    1
   171    33    31   ar
   172   200   199    1
   173   109   107   ar
   174   109   110    1
   175   246   247    2
   176   246   245    1
   177   198   199    1
   178   133   134    1
   179   134   136   ar
   180   146   147   ar
   181   199   202    1
   182   139   138   ar
   183   229   230    1
   184   181   179    1
   185    28    27    1
   186   244   245    1
   187   248   245    1
   188   248   249    1
   189   179   178    1
   190    32    31   ar
   191    31    30    1
   192   177   176    2
   193   136   138   ar
   194   204   206   ar
   195   204   203   ar
   196   230   231    1
   197   202   203    1
   198    27    30    1
   199    27    26    1
   200   251   249   ar
   201   251   253   ar
   202   249   250   ar
   203   206   208   ar
   204   203   205   ar
   205   185   184    2
   206   159   158   ar
   207   159   157   ar
   208   178   175    1
   209   176   175    1
   210   176   182   am
   211   158   156   ar
   212   208   207   ar
   213   175   174    1
   214   205   207   ar
   215   183   184    1
   216   183   182    1
   217   183   186    1
   218   231   232    1
   219   253   254   ar
   220   157   155   ar
   221   250   252   ar
   222   187   186    1
   223   187   189    1
   224   156   154   ar
   225   232   233    2
   226   188   186    1
   227   166   165    1
   228   155   154   ar
   229   167   165    1
   230   254   252   ar
   231   154   153    1
   232   233   235    1
   233   233   234    1
   234   173   172    1
   235   165   164    1
   236   172   169    1
   237   153   150    1
   238   171   170    2
   239   164   161    1
   240   169   170    1
   241   169   168    1
   242   150   149    1
   243   150   151    1
   244   161   162    1
   245   161   160    1
   246   163   162    2
   247   152   151    2
