@<TRIPOS>MOLECULE
tmp/5ntqA00.pdb
 199 191 0 0 0
SMALL
GASTEIGER

@<TRIPOS>ATOM
      1  N         22.2800  -23.6710   -8.4420 N.3    22  GLN22      -0.1245
      2  CA        21.0450  -23.4410   -9.1990 C.3    22  GLN22       0.1566
      3  C         20.1370  -22.3930   -8.5490 C.2    22  GLN22       0.2260
      4  O         19.8950  -21.3340   -9.1270 O.2    22  GLN22      -0.2867
      5  CB        20.2970  -24.7640   -9.4750 C.3    22  GLN22       0.0367
      6  CG        18.9450  -24.6130  -10.1780 C.3    22  GLN22       0.0905
      7  CD        18.2680  -25.9500  -10.4520 C.2    22  GLN22       0.2608
      8  OE1       18.6390  -26.9800   -9.8890 O.2    22  GLN22      -0.2717
      9  NE2       17.2630  -25.9340  -11.3250 N.am   22  GLN22      -0.0878
     10  N          4.0960  -34.9560  -15.6570 N.3    53  TRP53      -0.1241
     11  CA         5.3300  -35.7260  -15.8070 C.3    53  TRP53       0.1605
     12  C          6.3190  -35.0990  -16.7790 C.2    53  TRP53       0.2264
     13  O          7.5280  -35.1850  -16.5590 O.2    53  TRP53      -0.2867
     14  CB         5.0460  -37.1710  -16.2020 C.3    53  TRP53       0.0550
     15  CG         4.7070  -38.0270  -15.0390 C.ar   53  TRP53       0.0003
     16  CD1        3.4680  -38.4660  -14.6790 C.ar   53  TRP53       0.0946
     17  CD2        5.6180  -38.5380  -14.0580 C.ar   53  TRP53       0.0152
     18  NE1        3.5480  -39.2280  -13.5430 N.ar   53  TRP53      -0.2442
     19  CE2        4.8570  -39.2880  -13.1370 C.ar   53  TRP53       0.0810
     20  CE3        7.0040  -38.4340  -13.8670 C.ar   53  TRP53       0.0012
     21  CZ2        5.4350  -39.9420  -12.0400 C.ar   53  TRP53       0.0191
     22  CZ3        7.5830  -39.0840  -12.7750 C.ar   53  TRP53       0.0001
     23  CH2        6.7960  -39.8280  -11.8760 C.ar   53  TRP53       0.0015
     24  N          7.7110  -32.0690  -14.6610 N.3    56  CYS56      -0.1235
     25  CA         8.5930  -32.5650  -13.6040 C.3    56  CYS56       0.1677
     26  C          9.8900  -33.1870  -14.1250 C.2    56  CYS56       0.2270
     27  O         10.9470  -32.9580  -13.5460 O.2    56  CYS56      -0.2867
     28  CB         7.8510  -33.5400  -12.6800 C.3    56  CYS56       0.0956
     29  SG         6.5160  -32.7560  -11.7090 S.3    56  CYS56      -0.0801
     30  N         12.2900  -30.2710  -15.1090 N.3    59  HIS59      -0.1226
     31  CA        12.9440  -29.6260  -13.9630 C.3    59  HIS59       0.1752
     32  C         14.0450  -30.5350  -13.4170 C.2    59  HIS59       0.2595
     33  O         15.1260  -30.0710  -13.0760 O.2    59  HIS59      -0.2718
     34  CB        11.9480  -29.2770  -12.8460 C.3    59  HIS59       0.0759
     35  CG        10.8030  -28.4180  -13.2890 C.ar   59  HIS59       0.0818
     36  ND1       10.9770  -27.1620  -13.8300 N.ar   59  HIS59      -0.2268
     37  CD2        9.4650  -28.6280  -13.2510 C.ar   59  HIS59       0.1154
     38  CE1        9.7990  -26.6410  -14.1210 C.ar   59  HIS59       0.1986
     39  NE2        8.8640  -27.5100  -13.7770 N.ar   59  HIS59      -0.2212
     40  N         13.7650  -31.8340  -13.3630 N.am   60  LEU60      -0.1980
     41  CA        14.7430  -32.8050  -12.8910 C.3    60  LEU60       0.1596
     42  C         15.9870  -32.8310  -13.7950 C.2    60  LEU60       0.2287
     43  O         17.1180  -32.8260  -13.2960 O.2    60  LEU60      -0.2864
     44  CB        14.1070  -34.1920  -12.7740 C.3    60  LEU60       0.0297
     45  CG        14.9770  -35.3250  -12.2220 C.3    60  LEU60       0.0022
     46  CD1       15.4160  -35.0660  -10.7730 C.3    60  LEU60       0.0001
     47  CD2       14.2230  -36.6370  -12.3220 C.3    60  LEU60       0.0001
     48  N         18.0960  -29.7140  -13.0630 N.3    63  ALA63      -0.1245
     49  CA        18.7310  -29.8540  -11.7650 C.3    63  ALA63       0.1562
     50  C         19.9040  -30.8270  -11.8270 C.2    63  ALA63       0.2260
     51  O         20.9550  -30.5620  -11.2420 O.2    63  ALA63      -0.2867
     52  CB        17.7010  -30.2940  -10.7160 C.3    63  ALA63       0.0290
     53  N         21.1370  -37.7640   -8.6960 N.3    94  MET94      -0.1245
     54  CA        19.7210  -37.5580   -8.4110 C.3    94  MET94       0.1570
     55  C         19.4710  -37.5860   -6.9090 C.2    94  MET94       0.2261
     56  O         18.5970  -36.8810   -6.4020 O.2    94  MET94      -0.2867
     57  CB        18.8850  -38.6060   -9.1400 C.3    94  MET94       0.0387
     58  CG        17.4270  -38.2310   -9.3110 C.3    94  MET94       0.0595
     59  SD        16.5800  -39.3330  -10.4540 S.3    94  MET94      -0.1393
     60  CE        14.9370  -39.2790   -9.7380 C.3    94  MET94       0.0692
     61  N         20.2590  -34.1120   -5.9880 N.3    97  VAL97      -0.1231
     62  CA        19.1110  -33.2470   -6.2700 C.3    97  VAL97       0.1692
     63  C         18.1100  -33.2780   -5.1120 C.2    97  VAL97       0.2591
     64  O         17.6420  -32.2360   -4.6600 O.2    97  VAL97      -0.2718
     65  CB        18.4010  -33.6340   -7.5960 C.3    97  VAL97       0.0266
     66  CG1       17.1590  -32.7750   -7.8100 C.3    97  VAL97       0.0020
     67  CG2       19.3560  -33.4960   -8.7850 C.3    97  VAL97       0.0020
     68  N         17.8050  -34.4810   -4.6340 N.am   98  LEU98      -0.1980
     69  CA        16.8240  -34.6910   -3.5630 C.3    98  LEU98       0.1596
     70  C         17.2680  -34.1190   -2.2120 C.2    98  LEU98       0.2287
     71  O         16.4370  -33.6280   -1.4380 O.2    98  LEU98      -0.2864
     72  CB        16.4490  -36.1830   -3.4650 C.3    98  LEU98       0.0297
     73  CG        15.7840  -36.7240   -4.7480 C.3    98  LEU98       0.0022
     74  CD1       15.8040  -38.2610   -4.8680 C.3    98  LEU98       0.0001
     75  CD2       14.3660  -36.1700   -4.9580 C.3    98  LEU98       0.0001
     76  N         16.9000  -30.2780   -2.3890 N.3   101  MET101     -0.1245
     77  CA        15.4920  -29.8450   -2.3690 C.3   101  MET101      0.1570
     78  C         15.0250  -29.3690   -0.9980 C.2   101  MET101      0.2261
     79  O         14.1060  -28.5630   -0.9150 O.2   101  MET101     -0.2867
     80  CB        14.5590  -30.9470   -2.8960 C.3   101  MET101      0.0387
     81  CG        14.6610  -31.1740   -4.3990 C.3   101  MET101      0.0595
     82  SD        13.7040  -32.5890   -4.9970 S.3   101  MET101     -0.1393
     83  CE        12.0530  -31.9110   -4.8060 C.3   101  MET101      0.0692
     84  N          6.5600  -26.6160   -0.8260 N.3   112  VAL112     -0.1231
     85  CA         7.7450  -26.7420   -1.6320 C.3   112  VAL112      0.1692
     86  C          7.6820  -25.6890   -2.7360 C.2   112  VAL112      0.2592
     87  O          6.6000  -25.3360   -3.2110 O.2   112  VAL112     -0.2718
     88  CB         7.8480  -28.1840   -2.1970 C.3   112  VAL112      0.0266
     89  CG1        7.0090  -28.3410   -3.4750 C.3   112  VAL112      0.0020
     90  CG2        9.2830  -28.5720   -2.4210 C.3   112  VAL112      0.0020
     91  N          8.8440  -25.1760   -3.1230 N.am  113  PHE113     -0.1962
     92  CA         8.9520  -24.2070   -4.2090 C.3   113  PHE113      0.1771
     93  C          8.8680  -24.9520   -5.5360 C.2   113  PHE113      0.2620
     94  O          9.7100  -25.7920   -5.8300 O.2   113  PHE113     -0.2715
     95  CB        10.2810  -23.4590   -4.0950 C.3   113  PHE113      0.0574
     96  CG        10.4760  -22.3770   -5.1270 C.ar  113  PHE113     -0.0200
     97  CD1        9.8570  -21.1380   -4.9830 C.ar  113  PHE113     -0.0042
     98  CD2       11.3030  -22.5880   -6.2290 C.ar  113  PHE113     -0.0042
     99  CE1       10.0440  -20.1340   -5.9280 C.ar  113  PHE113     -0.0003
    100  CE2       11.5000  -21.5890   -7.1760 C.ar  113  PHE113     -0.0003
    101  CZ        10.8700  -20.3600   -7.0250 C.ar  113  PHE113     -0.0000
    102  N          7.8420  -24.6390   -6.3240 N.am  114  PHE114     -0.1960
    103  CA         7.5850  -25.3100   -7.5950 C.3   114  PHE114      0.1771
    104  C          7.1370  -24.2920   -8.6390 C.2   114  PHE114      0.2619
    105  O          6.0970  -23.6580   -8.4780 O.2   114  PHE114     -0.2715
    106  CB         6.5070  -26.3880   -7.4170 C.3   114  PHE114      0.0574
    107  CG         6.1150  -27.0840   -8.6960 C.ar  114  PHE114     -0.0200
    108  CD1        6.9250  -28.0730   -9.2450 C.ar  114  PHE114     -0.0042
    109  CD2        4.9320  -26.7540   -9.3480 C.ar  114  PHE114     -0.0042
    110  CE1        6.5660  -28.7250  -10.4220 C.ar  114  PHE114     -0.0003
    111  CE2        4.5690  -27.3950  -10.5340 C.ar  114  PHE114     -0.0003
    112  CZ         5.3900  -28.3830  -11.0710 C.ar  114  PHE114     -0.0000
    113  N          7.9210  -24.1520   -9.7060 N.am  115  GLU115     -0.1977
    114  CA         7.5940  -23.2620  -10.8290 C.3   115  GLU115      0.1602
    115  C          7.2060  -21.8350  -10.3980 C.2   115  GLU115      0.2287
    116  O          6.2620  -21.2470  -10.9340 O.2   115  GLU115     -0.2864
    117  CB         6.5060  -23.8770  -11.7240 C.3   115  GLU115      0.0415
    118  CG         6.9390  -25.1410  -12.4720 C.3   115  GLU115      0.1163
    119  CD         5.9370  -25.6010  -13.5290 C.2   115  GLU115      0.3649
    120  OE1        4.8740  -24.9570  -13.6870 O.co2 115  GLU115     -0.2457
    121  OE2        6.2090  -26.6240  -14.1980 O.co2 115  GLU115     -0.2457
    122  N          0.4820  -31.9370   -6.7440 N.3   124  PHE124     -0.1241
    123  CA         1.0200  -32.9810   -7.5980 C.3   124  PHE124      0.1605
    124  C          0.0740  -34.1630   -7.7840 C.2   124  PHE124      0.2264
    125  O          0.5080  -35.2500   -8.1650 O.2   124  PHE124     -0.2867
    126  CB         2.3660  -33.4500   -7.0370 C.3   124  PHE124      0.0534
    127  CG         3.3390  -32.3400   -6.8220 C.ar  124  PHE124     -0.0203
    128  CD1        3.4440  -31.7220   -5.5740 C.ar  124  PHE124     -0.0042
    129  CD2        4.1300  -31.8810   -7.8690 C.ar  124  PHE124     -0.0042
    130  CE1        4.3290  -30.6830   -5.3780 C.ar  124  PHE124     -0.0003
    131  CE2        5.0330  -30.8430   -7.6790 C.ar  124  PHE124     -0.0003
    132  CZ         5.1330  -30.2390   -6.4320 C.ar  124  PHE124     -0.0000
    133  N         -0.0430  -36.3910  -11.1840 N.3   127  LEU127     -0.1245
    134  CA         1.0030  -37.4090  -11.3600 C.3   127  LEU127      0.1561
    135  C          0.5670  -38.8330  -10.9890 C.2   127  LEU127      0.2260
    136  O          1.1070  -39.8100  -11.5180 O.2   127  LEU127     -0.2867
    137  CB         2.2500  -37.0440  -10.5480 C.3   127  LEU127      0.0270
    138  CG         3.0480  -35.7770  -10.8840 C.3   127  LEU127      0.0019
    139  CD1        4.1370  -35.5690   -9.8310 C.3   127  LEU127      0.0001
    140  CD2        3.6640  -35.8790  -12.2620 C.3   127  LEU127      0.0001
    141  N          1.0350  -40.4380   -8.1140 N.3   129  CYS129     -0.1235
    142  CA         2.0920  -41.1170   -7.3640 C.3   129  CYS129      0.1677
    143  C          2.2030  -40.4950   -5.9750 C.2   129  CYS129      0.2270
    144  O          3.2750  -40.0420   -5.5650 O.2   129  CYS129     -0.2867
    145  CB         3.4260  -41.0190   -8.1140 C.3   129  CYS129      0.0956
    146  SG         3.4170  -41.7440   -9.7750 S.3   129  CYS129     -0.0801
    147  N          4.9600  -41.4960   -3.6620 N.3   132  LEU132     -0.1231
    148  CA         6.2490  -40.9940   -4.1090 C.3   132  LEU132      0.1693
    149  C          6.3810  -39.5420   -3.6570 C.2   132  LEU132      0.2591
    150  O          7.4310  -39.1280   -3.1640 O.2   132  LEU132     -0.2718
    151  CB         6.3470  -41.0920   -5.6360 C.3   132  LEU132      0.0284
    152  CG         7.5170  -41.8450   -6.2690 C.3   132  LEU132      0.0019
    153  CD1        7.3400  -43.3520   -6.1210 C.3   132  LEU132      0.0001
    154  CD2        7.6480  -41.4860   -7.7360 C.3   132  LEU132      0.0001
    155  N          5.3060  -38.7730   -3.8260 N.am  133  ILE133     -0.1980
    156  CA         5.2800  -37.3790   -3.3930 C.3   133  ILE133      0.1595
    157  C          5.4420  -37.3020   -1.8690 C.2   133  ILE133      0.2287
    158  O          6.2410  -36.5200   -1.3660 O.2   133  ILE133     -0.2864
    159  CB         3.9900  -36.6350   -3.8650 C.3   133  ILE133      0.0276
    160  CG1        3.8640  -36.6730   -5.3980 C.3   133  ILE133      0.0022
    161  CG2        3.9850  -35.1770   -3.3820 C.3   133  ILE133      0.0022
    162  CD1        5.0710  -36.0760   -6.1650 C.3   133  ILE133      0.0001
    163  N          9.1000  -37.7750   -0.7710 N.3   136  ILE136     -0.1231
    164  CA         9.9080  -36.5680   -0.9760 C.3   136  ILE136      0.1692
    165  C          9.6490  -35.5440    0.1330 C.2   136  ILE136      0.2592
    166  O         10.5970  -35.0250    0.7370 O.2   136  ILE136     -0.2718
    167  CB         9.6370  -35.9080   -2.3550 C.3   136  ILE136      0.0266
    168  CG1       10.1130  -36.8180   -3.4860 C.3   136  ILE136      0.0019
    169  CG2       10.3210  -34.5380   -2.4530 C.3   136  ILE136      0.0020
    170  CD1        9.6050  -36.4120   -4.8680 C.3   136  ILE136      0.0001
    171  N          8.3720  -35.2590    0.3890 N.am  137  PHE137     -0.1976
    172  CA         7.9830  -34.3200    1.4410 C.3   137  PHE137      0.1639
    173  C          8.5150  -34.7210    2.8260 C.2   137  PHE137      0.2290
    174  O          8.9970  -33.8700    3.5680 O.2   137  PHE137     -0.2864
    175  CB         6.4630  -34.1030    1.4680 C.3   137  PHE137      0.0560
    176  CG         5.9940  -32.9930    0.5510 C.ar  137  PHE137     -0.0200
    177  CD1        6.1360  -33.1000   -0.8320 C.ar  137  PHE137     -0.0042
    178  CD2        5.4120  -31.8390    1.0710 C.ar  137  PHE137     -0.0042
    179  CE1        5.7160  -32.0730   -1.6790 C.ar  137  PHE137     -0.0003
    180  CE2        4.9750  -30.8170    0.2240 C.ar  137  PHE137     -0.0003
    181  CZ         5.1340  -30.9300   -1.1420 C.ar  137  PHE137     -0.0000
    182  N         12.0100  -43.5290   -7.2650 N.3   215  HIS215     -0.1241
    183  CA        11.6560  -42.3940   -8.1090 C.3   215  HIS215      0.1621
    184  C         12.1390  -42.5810   -9.5490 C.2   215  HIS215      0.2264
    185  O         11.4150  -42.2500  -10.4860 O.2   215  HIS215     -0.2867
    186  CB        12.1690  -41.0830   -7.5010 C.3   215  HIS215      0.0745
    187  CG        11.4730  -40.7080   -6.2300 C.ar  215  HIS215      0.0817
    188  ND1       10.4490  -39.7850   -6.1860 N.ar  215  HIS215     -0.2268
    189  CD2       11.6290  -41.1580   -4.9620 C.ar  215  HIS215      0.1154
    190  CE1       10.0130  -39.6790   -4.9430 C.ar  215  HIS215      0.1986
    191  NE2       10.7150  -40.4990   -4.1810 N.ar  215  HIS215     -0.2212
    192  N          9.8840  -42.8020  -12.8380 N.3   219  LEU219     -0.1245
    193  CA        10.2230  -41.8480  -13.8980 C.3   219  LEU219      0.1561
    194  C         10.3320  -42.5400  -15.2560 C.2   219  LEU219      0.2260
    195  O          9.8150  -42.0460  -16.2590 O.2   219  LEU219     -0.2867
    196  CB        11.5210  -41.1010  -13.5720 C.3   219  LEU219      0.0270
    197  CG        12.0320  -40.0660  -14.5790 C.3   219  LEU219      0.0019
    198  CD1       11.1970  -38.7890  -14.5670 C.3   219  LEU219      0.0001
    199  CD2       13.4830  -39.7510  -14.2990 C.3   219  LEU219      0.0001
@<TRIPOS>BOND
     1    12    13    2
     2    12    11    1
     3   195   194    2
     4    14    11    1
     5    14    15    1
     6    11    10    1
     7   194   193    1
     8    30    31    1
     9    15    16   ar
    10    15    17   ar
    11    16    18   ar
    12    24    25    1
    13   197   198    1
    14   197   199    1
    15   197   196    1
    16   121   119   ar
    17    26    25    1
    18    26    27    2
    19    38    36   ar
    20    38    39   ar
    21    17    20   ar
    22    17    19   ar
    23    31    32    1
    24    31    34    1
    25   193   196    1
    26   193   192    1
    27    20    22   ar
    28    36    35   ar
    29    42    43    2
    30    42    41    1
    31    39    37   ar
    32   120   119   ar
    33    25    28    1
    34    18    19   ar
    35   119   118    1
    36    32    40   am
    37    32    33    2
    38    40    41    1
    39    35    37   ar
    40    35    34    1
    41    19    21   ar
    42    48    49    1
    43    41    44    1
    44    22    23   ar
    45    44    45    1
    46    28    29    1
    47   118   117    1
    48    47    45    1
    49   140   138    1
    50    45    46    1
    51    21    23   ar
    52    50    49    1
    53    50    51    2
    54    49    52    1
    55   117   114    1
    56   136   135    2
    57   134   133    1
    58   134   135    1
    59   134   137    1
    60     9     7   am
    61   112   111   ar
    62   112   110   ar
    63   116   115    2
    64   138   137    1
    65   138   139    1
    66   114   115    1
    67   114   113    1
    68   111   109   ar
    69   185   184    2
    70    59    60    1
    71    59    58    1
    72     7     6    1
    73     7     8    2
    74   110   108   ar
    75     6     5    1
    76   146   145    1
    77   113   104   am
    78   184   183    1
    79     5     2    1
    80   109   107   ar
    81    58    57    1
    82   108   107   ar
    83     2     3    1
    84     2     1    1
    85    57    54    1
    86     4     3    2
    87    67    65    1
    88    53    54    1
    89   107   106    1
    90   104   105    2
    91   104   103    1
    92    54    55    1
    93   125   124    2
    94   141   142    1
    95   145   142    1
    96   183   186    1
    97   183   182    1
    98   129   131   ar
    99   129   127   ar
   100    66    65    1
   101   124   123    1
   102   154   152    1
   103   131   132   ar
   104   123   126    1
   105   123   122    1
   106    65    62    1
   107   103   106    1
   108   103   102    1
   109   186   187    1
   110   142   143    1
   111   100   101   ar
   112   100    98   ar
   113   126   127    1
   114   101    99   ar
   115    55    56    2
   116   127   128   ar
   117   132   130   ar
   118   102    93   am
   119    62    61    1
   120    62    63    1
   121   152   153    1
   122   152   151    1
   123   187   188   ar
   124   187   189   ar
   125    98    96   ar
   126   188   190   ar
   127   162   160    1
   128   143   144    2
   129    99    97   ar
   130    94    93    2
   131   151   148    1
   132   128   130   ar
   133    93    92    1
   134   160   159    1
   135    96    97   ar
   136    96    95    1
   137    63    64    2
   138    63    68   am
   139    82    83    1
   140    82    81    1
   141   189   191   ar
   142    75    73    1
   143   190   191   ar
   144   170   168    1
   145    74    73    1
   146    73    72    1
   147    68    69    1
   148    81    80    1
   149    92    95    1
   150    92    91    1
   151   148   147    1
   152   148   149    1
   153   159   156    1
   154   159   161    1
   155   155   149   am
   156   155   156    1
   157   149   150    2
   158    69    72    1
   159    69    70    1
   160   168   167    1
   161    89    88    1
   162   156   157    1
   163    87    86    2
   164    91    86   am
   165    80    77    1
   166    86    85    1
   167   169   167    1
   168    90    88    1
   169    76    77    1
   170    77    78    1
   171   167   164    1
   172    70    71    2
   173    88    85    1
   174   157   158    2
   175   179   181   ar
   176   179   177   ar
   177    85    84    1
   178   181   180   ar
   179    78    79    2
   180   164   163    1
   181   164   165    1
   182   177   176   ar
   183   165   171   am
   184   165   166    2
   185   180   178   ar
   186   171   172    1
   187   176   178   ar
   188   176   175    1
   189   172   175    1
   190   172   173    1
   191   173   174    2
