@<TRIPOS>MOLECULE
tmp/5nttA00.pdb
 207 191 0 0 0
SMALL
GASTEIGER

@<TRIPOS>ATOM
      1  N          6.5300   -1.6800  -17.5640 N.3    19  LYS19      -0.1245
      2  CA         6.6360   -2.2660  -16.2250 C.3    19  LYS19       0.1561
      3  C          6.7650   -3.7800  -16.2820 C.2    19  LYS19       0.2260
      4  O          6.5330   -4.3910  -17.3250 O.2    19  LYS19      -0.2867
      5  CB         5.4320   -1.8870  -15.3440 C.3    19  LYS19       0.0271
      6  CG         4.0970   -2.4980  -15.7340 C.3    19  LYS19       0.0035
      7  CD         3.0250   -2.0810  -14.7450 C.3    19  LYS19       0.0206
      8  CE         1.6350   -2.5420  -15.1610 C.3    19  LYS19       0.1093
      9  NZ         0.5690   -1.5820  -14.7330 N.3    19  LYS19      -0.1314
     10  N          5.2240   -7.2690  -14.9570 N.3    21  ILE21      -0.1231
     11  CA         3.8620   -7.6880  -14.6010 C.3    21  ILE21       0.1692
     12  C          3.7970   -9.1490  -14.1740 C.2    21  ILE21       0.2593
     13  O          2.7610   -9.8040  -14.3340 O.2    21  ILE21      -0.2718
     14  CB         2.8540   -7.3940  -15.7550 C.3    21  ILE21       0.0266
     15  CG1        3.1280   -8.2260  -17.0140 C.3    21  ILE21       0.0019
     16  CG2        2.9010   -5.9130  -16.1050 C.3    21  ILE21       0.0020
     17  CD1        2.2310   -7.8880  -18.1830 C.3    21  ILE21       0.0001
     18  N          4.8850   -9.6500  -13.5970 N.am   22  GLY22      -0.1942
     19  CA         4.9890  -11.0750  -13.2860 C.3    22  GLY22       0.2014
     20  C          6.4180  -11.5780  -13.2470 C.2    22  GLY22       0.2640
     21  O          7.3200  -10.9800  -13.8580 O.2    22  GLY22      -0.2714
     22  N          6.6120  -12.6830  -12.5240 N.am   23  SER23      -0.1935
     23  CA         7.9320  -13.2920  -12.3390 C.3    23  SER23       0.2055
     24  C          7.8510  -14.7280  -11.8000 C.2    23  SER23       0.2643
     25  O          7.1680  -14.9860  -10.8070 O.2    23  SER23      -0.2714
     26  CB         8.7910  -12.4440  -11.3900 C.3    23  SER23       0.2130
     27  OG         8.1830  -12.3280  -10.1170 O.3    23  SER23      -0.2179
     28  N          8.5340  -15.6480  -12.4830 N.am   24  GLY24      -0.1954
     29  CA         8.9050  -16.9510  -11.9280 C.3    24  GLY24       0.1869
     30  C         10.3080  -16.8460  -11.3430 C.2    24  GLY24       0.2309
     31  O         10.8010  -15.7410  -11.0800 O.2    24  GLY24      -0.2863
     32  N         12.3320  -16.5100  -14.7060 N.3    27  SER27      -0.1217
     33  CA        11.5640  -15.7810  -15.7150 C.3    27  SER27       0.1889
     34  C         10.9220  -14.4830  -15.2150 C.2    27  SER27       0.2288
     35  O         10.6820  -14.3000  -14.0220 O.2    27  SER27      -0.2866
     36  CB        10.4910  -16.6950  -16.3130 C.3    27  SER27       0.2089
     37  OG         9.6470  -17.2120  -15.3020 O.3    27  SER27      -0.2183
     38  N          7.9210  -11.3010  -16.7330 N.3    29  VAL29      -0.1245
     39  CA         7.0120  -10.8140  -17.7860 C.3    29  VAL29       0.1561
     40  C          6.9830   -9.2870  -17.7530 C.2    29  VAL29       0.2260
     41  O          6.9270   -8.6960  -16.6800 O.2    29  VAL29      -0.2867
     42  CB         5.5830  -11.3740  -17.6370 C.3    29  VAL29       0.0252
     43  CG1        4.7230  -10.9650  -18.8280 C.3    29  VAL29       0.0019
     44  CG2        5.6150  -12.8940  -17.5050 C.3    29  VAL29       0.0019
     45  N          5.2370   -5.6290  -19.4490 N.3    31  GLN31      -0.1245
     46  CA         4.3480   -4.8190  -20.2870 C.3    31  GLN31       0.1566
     47  C          5.2430   -3.9100  -21.1370 C.2    31  GLN31       0.2260
     48  O          6.0130   -3.1110  -20.5880 O.2    31  GLN31      -0.2867
     49  CB         3.3940   -3.9900  -19.4230 C.3    31  GLN31       0.0367
     50  CG         2.2680   -3.2910  -20.1790 C.3    31  GLN31       0.0905
     51  CD         1.5010   -2.3000  -19.3130 C.2    31  GLN31       0.2608
     52  OE1        2.1020   -1.4850  -18.6070 O.2    31  GLN31      -0.2717
     53  NE2        0.1640   -2.3530  -19.3730 N.am   31  GLN31      -0.0878
     54  N          3.0790   -8.2040  -24.1350 N.3    41  ALA41      -0.1245
     55  CA         3.7680   -8.7460  -22.9710 C.3    41  ALA41       0.1562
     56  C          4.9720   -9.5130  -23.4930 C.2    41  ALA41       0.2260
     57  O          4.8410  -10.2860  -24.4400 O.2    41  ALA41      -0.2867
     58  CB         2.8520   -9.6590  -22.1820 C.3    41  ALA41       0.0290
     59  N          7.6710  -12.2810  -22.2920 N.3    43  LYS43      -0.1245
     60  CA         8.1950  -13.2330  -21.3220 C.3    43  LYS43       0.1561
     61  C          9.6930  -13.3590  -21.5620 C.2    43  LYS43       0.2260
     62  O         10.1190  -13.5960  -22.6820 O.2    43  LYS43      -0.2867
     63  CB         7.5270  -14.5920  -21.4910 C.3    43  LYS43       0.0271
     64  CG         7.7310  -15.5590  -20.3360 C.3    43  LYS43       0.0035
     65  CD         7.2130  -16.9520  -20.7000 C.3    43  LYS43       0.0206
     66  CE         6.4070  -17.6040  -19.5860 C.3    43  LYS43       0.1093
     67  NZ         5.3580  -18.5300  -20.1030 N.3    43  LYS43      -0.1314
     68  N         -3.2350  -17.9670  -26.4650 N.3    76  ILE76      -0.1245
     69  CA        -2.5530  -16.6710  -26.4940 C.3    76  ILE76       0.1561
     70  C         -1.6730  -16.5380  -27.7400 C.2    76  ILE76       0.2260
     71  O         -1.0690  -17.5250  -28.1650 O.2    76  ILE76      -0.2867
     72  CB        -1.7210  -16.4670  -25.2090 C.3    76  ILE76       0.0252
     73  CG1       -1.3620  -14.9930  -25.0370 C.3    76  ILE76       0.0019
     74  CG2       -0.4800  -17.3650  -25.1930 C.3    76  ILE76       0.0019
     75  CD1       -0.7480  -14.6860  -23.6900 C.3    76  ILE76       0.0001
     76  N          4.3610  -11.6220  -26.8120 N.3    92  MET92      -0.1230
     77  CA         3.0520  -12.2250  -26.6940 C.3    92  MET92       0.1702
     78  C          1.9430  -11.2010  -26.5470 C.2    92  MET92       0.2592
     79  O          2.1760  -10.0460  -26.1790 O.2    92  MET92      -0.2718
     80  CB         3.0450  -13.1550  -25.4890 C.3    92  MET92       0.0401
     81  CG         4.1490  -14.1980  -25.5500 C.3    92  MET92       0.0596
     82  SD         3.8780  -15.5640  -24.4160 S.3    92  MET92      -0.1393
     83  CE         4.0120  -14.6590  -22.8900 C.3    92  MET92       0.0692
     84  N          0.7320  -11.6660  -26.8360 N.am   93  GLU93      -0.1966
     85  CA        -0.5060  -10.8980  -26.6730 C.3    93  GLU93       0.1733
     86  C         -0.6350  -10.3720  -25.2450 C.2    93  GLU93       0.2616
     87  O         -0.3360  -11.0850  -24.2910 O.2    93  GLU93      -0.2715
     88  CB        -1.6840  -11.8120  -27.0230 C.3    93  GLU93       0.0429
     89  CG        -3.0870  -11.2400  -26.9420 C.3    93  GLU93       0.1163
     90  CD        -4.1140  -12.1440  -27.6290 C.2    93  GLU93       0.3649
     91  OE1       -3.9180  -13.3910  -27.6770 O.co2  93  GLU93      -0.2457
     92  OE2       -5.1210  -11.5990  -28.1360 O.co2  93  GLU93      -0.2457
     93  N         -1.0410   -9.1130  -25.1130 N.am   94  TYR94      -0.1960
     94  CA        -1.2450   -8.4830  -23.8090 C.3    94  TYR94       0.1771
     95  C         -2.7040   -8.6480  -23.3570 C.2    94  TYR94       0.2620
     96  O         -3.6250   -8.5560  -24.1770 O.2    94  TYR94      -0.2715
     97  CB        -0.8810   -6.9980  -23.8810 C.3    94  TYR94       0.0574
     98  CG        -1.2290   -6.2390  -22.6280 C.ar   94  TYR94      -0.0198
     99  CD1       -0.3840   -6.2620  -21.5220 C.ar   94  TYR94      -0.0009
    100  CD2       -2.4110   -5.5150  -22.5350 C.ar   94  TYR94      -0.0009
    101  CE1       -0.7030   -5.5750  -20.3600 C.ar   94  TYR94       0.0417
    102  CE2       -2.7390   -4.8280  -21.3790 C.ar   94  TYR94       0.0417
    103  CZ        -1.8830   -4.8600  -20.2950 C.ar   94  TYR94       0.1957
    104  OH        -2.2030   -4.1770  -19.1470 O.3    94  TYR94      -0.2866
    105  N         -2.8920   -8.8880  -22.0560 N.am   95  GLY95      -0.1940
    106  CA        -4.2090   -8.8430  -21.4000 C.3    95  GLY95       0.2014
    107  C         -4.1530   -7.9940  -20.1400 C.2    95  GLY95       0.2639
    108  O         -3.1240   -7.9490  -19.4770 O.2    95  GLY95      -0.2714
    109  N         -5.2430   -7.3180  -19.7910 N.am   96  ASN96      -0.1958
    110  CA        -5.2150   -6.4300  -18.6150 C.3    96  ASN96       0.1819
    111  C         -5.2990   -7.1960  -17.2870 C.2    96  ASN96       0.2621
    112  O         -4.9320   -6.6610  -16.2350 O.2    96  ASN96      -0.2715
    113  CB        -6.3100   -5.3430  -18.6960 C.3    96  ASN96       0.1195
    114  CG        -5.9190   -4.0520  -17.9690 C.2    96  ASN96       0.2630
    115  OD1       -4.8090   -3.5440  -18.1430 O.2    96  ASN96      -0.2716
    116  ND2       -6.8390   -3.5070  -17.1590 N.am   96  ASN96      -0.0877
    117  N         -5.7780   -8.4390  -17.3330 N.am   97  ILE97      -0.1963
    118  CA        -5.9270   -9.2500  -16.1290 C.3    97  ILE97       0.1727
    119  C         -6.0550  -10.7410  -16.4610 C.2    97  ILE97       0.2616
    120  O         -6.5510  -11.1080  -17.5440 O.2    97  ILE97      -0.2715
    121  CB        -7.1470   -8.7650  -15.2990 C.3    97  ILE97       0.0290
    122  CG1       -6.9690   -9.1170  -13.8190 C.3    97  ILE97       0.0022
    123  CG2       -8.4600   -9.3140  -15.8540 C.3    97  ILE97       0.0023
    124  CD1       -8.0500   -8.5730  -12.9130 C.3    97  ILE97       0.0001
    125  N         -5.5990  -11.5880  -15.5330 N.am   98  ASP98      -0.1971
    126  CA        -5.8000  -13.0410  -15.6330 C.3    98  ASP98       0.1709
    127  C         -7.0630  -13.4530  -14.8700 C.2    98  ASP98       0.2293
    128  O         -7.5920  -12.6810  -14.0620 O.2    98  ASP98      -0.2864
    129  CB        -4.5500  -13.8330  -15.1860 C.3    98  ASP98       0.1436
    130  CG        -4.3100  -13.8020  -13.6820 C.2    98  ASP98       0.3671
    131  OD1       -4.8710  -12.9480  -12.9710 O.co2  98  ASP98      -0.2456
    132  OD2       -3.5250  -14.6410  -13.2050 O.co2  98  ASP98      -0.2456
    133  N         -7.0100  -13.4010  -10.8040 N.3   101  SER101     -0.1217
    134  CA        -7.1630  -12.0890  -10.1840 C.3   101  SER101      0.1889
    135  C         -8.5630  -11.5350  -10.3690 C.2   101  SER101      0.2288
    136  O         -9.1220  -10.9620   -9.4420 O.2   101  SER101     -0.2866
    137  CB        -6.1480  -11.1110  -10.7500 C.3   101  SER101      0.2089
    138  OG        -4.8580  -11.6760  -10.6810 O.3   101  SER101     -0.2183
    139  N        -11.5070  -10.6040   -7.1860 N.3   105  LYS105     -0.1245
    140  CA       -12.2560   -9.3550   -7.0460 C.3   105  LYS105      0.1561
    141  C        -13.7040   -9.3920   -7.5760 C.2   105  LYS105      0.2260
    142  O        -14.2800   -8.3390   -7.8580 O.2   105  LYS105     -0.2867
    143  CB       -11.4790   -8.2040   -7.6950 C.3   105  LYS105      0.0271
    144  CG       -11.3950   -8.2090   -9.2190 C.3   105  LYS105      0.0035
    145  CD       -10.8950   -6.8680   -9.7310 C.3   105  LYS105      0.0206
    146  CE        -9.4310   -6.6160   -9.3750 C.3   105  LYS105      0.1093
    147  NZ        -9.1810   -5.2860   -8.7350 N.3   105  LYS105     -0.1314
    148  N         -5.1810  -24.1470  -13.6900 N.3   139  LYS139     -0.1245
    149  CA        -5.7130  -23.2860  -12.6510 C.3   139  LYS139      0.1561
    150  C         -6.2260  -22.0370  -13.3670 C.2   139  LYS139      0.2260
    151  O         -5.9030  -21.8240  -14.5410 O.2   139  LYS139     -0.2867
    152  CB        -4.6150  -22.8990  -11.6560 C.3   139  LYS139      0.0271
    153  CG        -3.7200  -24.0410  -11.1700 C.3   139  LYS139      0.0035
    154  CD        -2.3440  -23.5700  -10.7090 C.3   139  LYS139      0.0206
    155  CE        -1.4610  -22.9590  -11.8130 C.3   139  LYS139      0.1093
    156  NZ        -1.0600  -23.8790  -12.9250 N.3   139  LYS139     -0.1314
    157  N         -5.1420  -19.0850  -13.0940 N.3   141  ALA141     -0.1231
    158  CA        -3.9480  -18.3060  -13.4850 C.3   141  ALA141      0.1694
    159  C         -3.3860  -18.6570  -14.8570 C.2   141  ALA141      0.2592
    160  O         -2.6770  -17.8420  -15.4480 O.2   141  ALA141     -0.2718
    161  CB        -2.8520  -18.4540  -12.4430 C.3   141  ALA141      0.0304
    162  N         -3.6960  -19.8540  -15.3590 N.am  142  ASN142     -0.1974
    163  CA        -3.2950  -20.2450  -16.7150 C.3   142  ASN142      0.1688
    164  C         -4.1430  -19.5970  -17.8160 C.2   142  ASN142      0.2292
    165  O         -3.8650  -19.8010  -18.9900 O.2   142  ASN142     -0.2864
    166  CB        -3.3180  -21.7730  -16.8620 C.3   142  ASN142      0.1181
    167  CG        -2.3280  -22.4610  -15.9380 C.2   142  ASN142      0.2629
    168  OD1       -2.7110  -23.0650  -14.9410 O.2   142  ASN142     -0.2716
    169  ND2       -1.0470  -22.3460  -16.2520 N.am  142  ASN142     -0.0877
    170  N         -5.8020  -15.9860  -19.4050 N.3   144  LEU144     -0.1245
    171  CA        -5.6440  -14.5470  -19.5040 C.3   144  LEU144      0.1561
    172  C         -6.8940  -13.9660  -20.1320 C.2   144  LEU144      0.2260
    173  O         -7.3570  -14.4790  -21.1430 O.2   144  LEU144     -0.2867
    174  CB        -4.4460  -14.2460  -20.3980 C.3   144  LEU144      0.0270
    175  CG        -3.9810  -12.7950  -20.4990 C.3   144  LEU144      0.0019
    176  CD1       -3.3330  -12.3680  -19.1880 C.3   144  LEU144      0.0001
    177  CD2       -3.0210  -12.6290  -21.6700 C.3   144  LEU144      0.0001
    178  N         -2.6010  -19.5290  -21.6050 N.3   153  ILE153     -0.1231
    179  CA        -1.2640  -18.9300  -21.5820 C.3   153  ILE153      0.1692
    180  C         -0.1610  -19.9650  -21.8390 C.2   153  ILE153      0.2592
    181  O          0.7910  -19.6770  -22.5610 O.2   153  ILE153     -0.2718
    182  CB        -1.0020  -18.2360  -20.2270 C.3   153  ILE153      0.0266
    183  CG1       -1.9210  -17.0220  -20.0680 C.3   153  ILE153      0.0019
    184  CG2        0.4480  -17.7890  -20.0940 C.3   153  ILE153      0.0020
    185  CD1       -2.0570  -16.5290  -18.6350 C.3   153  ILE153      0.0001
    186  N         -0.2790  -21.1390  -21.2200 N.am  154  ASP154     -0.1974
    187  CA         0.7190  -22.2030  -21.3350 C.3   154  ASP154      0.1709
    188  C          0.0610  -23.5870  -21.5040 C.2   154  ASP154      0.2293
    189  O         -1.1480  -23.7400  -21.3130 O.2   154  ASP154     -0.2864
    190  CB         1.6530  -22.1670  -20.1170 C.3   154  ASP154      0.1436
    191  CG         0.9970  -22.6790  -18.8520 C.2   154  ASP154      0.3671
    192  OD1       -0.2140  -22.4350  -18.6840 O.co2 154  ASP154     -0.2456
    193  OD2        1.6880  -23.3180  -18.0200 O.co2 154  ASP154     -0.2456
    194  N          6.6000  -27.2480  -20.0720 N.3   158  ALA158     -0.1245
    195  CA         7.8890  -26.8310  -19.5370 C.3   158  ALA158      0.1562
    196  C          8.0880  -27.2570  -18.0760 C.2   158  ALA158      0.2260
    197  O          7.1330  -27.2910  -17.2880 O.2   158  ALA158     -0.2867
    198  CB         8.0420  -25.3290  -19.6720 C.3   158  ALA158      0.0290
    199  N          9.2430  -26.5400  -14.4640 N.3   160  GLN160     -0.1245
    200  CA         9.3460  -25.3670  -13.5930 C.3   160  GLN160      0.1566
    201  C         10.7230  -25.3420  -12.9110 C.2   160  GLN160      0.2260
    202  O         11.3660  -26.3880  -12.7580 O.2   160  GLN160     -0.2867
    203  CB         8.2300  -25.3740  -12.5410 C.3   160  GLN160      0.0367
    204  CG         6.8020  -25.3960  -13.0920 C.3   160  GLN160      0.0905
    205  CD         6.4040  -24.1240  -13.8280 C.2   160  GLN160      0.2608
    206  OE1        6.8160  -23.0230  -13.4630 O.2   160  GLN160     -0.2717
    207  NE2        5.5770  -24.2710  -14.8620 N.am  160  GLN160     -0.0878
@<TRIPOS>BOND
     1    71    70    2
     2    92    90   ar
     3    70    69    1
     4    91    90   ar
     5    90    89    1
     6    88    89    1
     7    88    85    1
     8    84    85    1
     9    84    78   am
    10    76    77    1
    11    77    78    1
    12    77    80    1
    13    85    86    1
    14    78    79    2
    15    69    68    1
    16    69    72    1
    17    81    80    1
    18    81    82    1
    19    86    93   am
    20    86    87    2
    21    72    74    1
    22    72    73    1
    23    93    94    1
    24    73    75    1
    25    57    56    2
    26    82    83    1
    27    96    95    2
    28    54    55    1
    29    97    94    1
    30    97    98    1
    31    94    95    1
    32    56    55    1
    33    95   105   am
    34    55    58    1
    35    62    61    2
    36    98   100   ar
    37    98    99   ar
    38   181   180    2
    39   100   102   ar
    40    59    60    1
    41   105   106    1
    42   180   179    1
    43   180   186   am
    44   177   175    1
    45   178   179    1
    46   179   182    1
    47    61    60    1
    48    99   101   ar
    49   188   187    1
    50   188   189    2
    51    63    60    1
    52    63    64    1
    53   106   107    1
    54   102   103   ar
    55   187   186    1
    56   187   190    1
    57   173   172    2
    58    47    48    2
    59    47    46    1
    60    65    64    1
    61    65    66    1
    62   175   174    1
    63   175   176    1
    64   174   171    1
    65   101   103   ar
    66   103   104    1
    67    46    45    1
    68    46    49    1
    69   182   184    1
    70   182   183    1
    71    50    49    1
    72    50    51    1
    73   107   109   am
    74   107   108    2
    75   172   171    1
    76   190   191    1
    77    67    66    1
    78   194   195    1
    79   183   185    1
    80   109   110    1
    81   198   195    1
    82   195   196    1
    83   171   170    1
    84    53    51   am
    85    51    52    2
    86   165   164    2
    87   191   192   ar
    88   191   193   ar
    89    43    42    1
    90   113   110    1
    91   113   114    1
    92   110   111    1
    93    17    15    1
    94   115   114    2
    95   196   197    2
    96   114   116   am
    97   164   163    1
    98    39    40    1
    99    39    42    1
   100    39    38    1
   101    40    41    2
   102    42    44    1
   103     1     2    1
   104   120   119    2
   105   117   111   am
   106   117   118    1
   107     4     3    2
   108   111   112    2
   109    15    14    1
   110   166   163    1
   111   166   167    1
   112   163   162    1
   113   119   118    1
   114   119   125   am
   115    36    33    1
   116    36    37    1
   117     3     2    1
   118   169   167   am
   119     2     5    1
   120   118   121    1
   121    16    14    1
   122   167   168    2
   123   123   121    1
   124    14    11    1
   125     6     5    1
   126     6     7    1
   127    33    34    1
   128    33    32    1
   129   126   125    1
   130   126   129    1
   131   126   127    1
   132   160   159    2
   133   162   159   am
   134   121   122    1
   135    34    35    2
   136   129   130    1
   137     8     7    1
   138     8     9    1
   139    10    11    1
   140   127   128    2
   141   207   205   am
   142   159   158    1
   143    11    12    1
   144   151   150    2
   145   199   200    1
   146    13    12    2
   147    12    18   am
   148    21    20    2
   149   205   206    2
   150   205   204    1
   151   122   124    1
   152   148   149    1
   153   130   132   ar
   154   130   131   ar
   155    18    19    1
   156   200   201    1
   157   200   203    1
   158   158   157    1
   159   158   161    1
   160   150   149    1
   161    19    20    1
   162    20    22   am
   163   204   203    1
   164   156   155    1
   165   201   202    2
   166   149   152    1
   167    22    23    1
   168    28    29    1
   169    28    24   am
   170    23    24    1
   171    23    26    1
   172    29    30    1
   173   155   154    1
   174    24    25    2
   175   152   153    1
   176    26    27    1
   177    30    31    2
   178   153   154    1
   179   133   134    1
   180   137   138    1
   181   137   134    1
   182   135   134    1
   183   135   136    2
   184   145   146    1
   185   145   144    1
   186   146   147    1
   187   144   143    1
   188   142   141    2
   189   143   140    1
   190   141   140    1
   191   139   140    1
