@<TRIPOS>MOLECULE
tmp/5nu5B00.pdb
 148 141 0 0 0
SMALL
GASTEIGER

@<TRIPOS>ATOM
      1  N         23.3720   39.5170   -9.4330 N.3    25  PRO25      -0.2116
      2  CA        24.6350   39.4370   -8.6880 C.3    25  PRO25       0.1372
      3  C         24.5740   38.8190   -7.2840 C.2    25  PRO25       0.2244
      4  O         25.5980   38.7890   -6.5980 O.2    25  PRO25      -0.2868
      5  CB        24.9920   40.9170   -8.5440 C.3    25  PRO25       0.0268
      6  CG        23.6590   41.5620   -8.3320 C.3    25  PRO25       0.0207
      7  CD        22.6760   40.7910   -9.1670 C.3    25  PRO25       0.0892
      8  N         27.2660   36.4470   -6.0730 N.3    28  LEU28      -0.1231
      9  CA        28.6730   36.7870   -6.2650 C.3    28  LEU28       0.1678
     10  C         29.4980   36.8010   -4.9700 C.2    28  LEU28       0.2434
     11  O         30.5630   36.1990   -4.9320 O.2    28  LEU28      -0.2733
     12  CB        28.8340   38.1030   -7.0390 C.3    28  LEU28       0.0284
     13  CG        28.2630   38.1230   -8.4570 C.3    28  LEU28       0.0019
     14  CD1       28.4570   39.4920   -9.0810 C.3    28  LEU28       0.0001
     15  CD2       28.8840   37.0400   -9.3190 C.3    28  LEU28       0.0001
     16  N         28.9920   37.4220   -3.8870 N.am   29  PRO29      -0.2718
     17  CA        29.7770   37.3690   -2.6380 C.3    29  PRO29       0.1535
     18  C         29.8670   35.9800   -1.9740 C.2    29  PRO29       0.2598
     19  O         30.5550   35.8430   -0.9690 O.2    29  PRO29      -0.2715
     20  CB        29.0390   38.3640   -1.7210 C.3    29  PRO29       0.0310
     21  CG        28.2700   39.2420   -2.6440 C.3    29  PRO29       0.0237
     22  CD        27.8300   38.3090   -3.7360 C.3    29  PRO29       0.0939
     23  N         29.1840   34.9750   -2.5230 N.am   30  PHE30      -0.1974
     24  CA        29.1340   33.6350   -1.9520 C.3    30  PHE30       0.1639
     25  C         29.8370   32.5830   -2.8150 C.2    30  PHE30       0.2290
     26  O         29.8640   31.4180   -2.4290 O.2    30  PHE30      -0.2864
     27  CB        27.6730   33.2320   -1.7290 C.3    30  PHE30       0.0560
     28  CG        26.9270   34.1590   -0.8090 C.ar   30  PHE30      -0.0200
     29  CD1       26.9170   33.9320    0.5590 C.ar   30  PHE30      -0.0042
     30  CD2       26.2500   35.2750   -1.3080 C.ar   30  PHE30      -0.0042
     31  CE1       26.2490   34.7830    1.4130 C.ar   30  PHE30      -0.0003
     32  CE2       25.5690   36.1280   -0.4550 C.ar   30  PHE30      -0.0003
     33  CZ        25.5760   35.8890    0.9100 C.ar   30  PHE30      -0.0000
     34  N         33.0180   32.1750   -3.4330 N.3    32  GLN32      -0.1245
     35  CA        34.3590   31.8530   -2.9490 C.3    32  GLN32       0.1566
     36  C         34.3810   32.0790   -1.4480 C.2    32  GLN32       0.2260
     37  O         33.5530   32.8360   -0.9470 O.2    32  GLN32      -0.2867
     38  CB        35.4230   32.7340   -3.6140 C.3    32  GLN32       0.0367
     39  CG        35.2540   34.2390   -3.3990 C.3    32  GLN32       0.0905
     40  CD        34.0890   34.8190   -4.1900 C.2    32  GLN32       0.2608
     41  OE1       33.9840   34.6060   -5.3970 O.2    32  GLN32      -0.2717
     42  NE2       33.1960   35.5410   -3.5090 N.am   32  GLN32      -0.0878
     43  N         35.0250   33.5940    2.1130 N.3    34  VAL34      -0.1245
     44  CA        35.3400   34.9190    2.6300 C.3    34  VAL34       0.1561
     45  C         36.8360   34.9760    2.9640 C.2    34  VAL34       0.2260
     46  O         37.3320   34.1310    3.6990 O.2    34  VAL34      -0.2867
     47  CB        34.4820   35.2410    3.8770 C.3    34  VAL34       0.0252
     48  CG1       34.9860   36.4870    4.5950 C.3    34  VAL34       0.0019
     49  CG2       33.0180   35.4160    3.4810 C.3    34  VAL34       0.0019
     50  N         39.2630   41.4030    2.2030 N.3    39  LEU39      -0.1245
     51  CA        38.0360   42.1870    2.3370 C.3    39  LEU39       0.1561
     52  C         38.1010   43.2600    3.4150 C.2    39  LEU39       0.2260
     53  O         37.1460   44.0210    3.5780 O.2    39  LEU39      -0.2867
     54  CB        36.8540   41.2480    2.5940 C.3    39  LEU39       0.0270
     55  CG        36.5430   40.3410    1.4060 C.3    39  LEU39       0.0019
     56  CD1       35.5950   39.2270    1.8180 C.3    39  LEU39       0.0001
     57  CD2       35.9730   41.1510    0.2490 C.3    39  LEU39       0.0001
     58  N         38.2080   42.9170    6.7430 N.3    41  ILE41      -0.1245
     59  CA        37.3800   42.5890    7.9020 C.3    41  ILE41       0.1561
     60  C         38.0880   41.5370    8.7650 C.2    41  ILE41       0.2260
     61  O         37.6020   40.4140    8.9130 O.2    41  ILE41      -0.2867
     62  CB        35.9630   42.1340    7.4670 C.3    41  ILE41       0.0252
     63  CG1       36.0220   41.1210    6.3200 C.3    41  ILE41       0.0019
     64  CG2       35.1480   43.3390    7.0180 C.3    41  ILE41       0.0019
     65  CD1       34.7140   40.4130    6.0700 C.3    41  ILE41       0.0001
     66  N         36.4330   38.7560   11.1120 N.3    44  TYR44      -0.1241
     67  CA        35.3900   37.8760   10.5740 C.3    44  TYR44       0.1605
     68  C         35.3140   36.5400   11.3090 C.2    44  TYR44       0.2264
     69  O         34.2360   36.1330   11.7410 O.2    44  TYR44      -0.2867
     70  CB        35.5890   37.6560    9.0730 C.3    44  TYR44       0.0534
     71  CG        34.5390   36.7660    8.4500 C.ar   44  TYR44      -0.0201
     72  CD1       33.2460   37.2270    8.2330 C.ar   44  TYR44      -0.0009
     73  CD2       34.8340   35.4460    8.0980 C.ar   44  TYR44      -0.0009
     74  CE1       32.2760   36.4030    7.6770 C.ar   44  TYR44       0.0417
     75  CE2       33.8780   34.6230    7.5360 C.ar   44  TYR44       0.0417
     76  CZ        32.6040   35.1020    7.3200 C.ar   44  TYR44       0.1957
     77  OH        31.6580   34.2810    6.7790 O.3    44  TYR44      -0.2866
     78  N         31.5150   28.9220    5.3470 N.3    52  MET52      -0.1245
     79  CA        31.0450   28.0890    4.2540 C.3    52  MET52       0.1570
     80  C         30.6760   28.9850    3.0870 C.2    52  MET52       0.2261
     81  O         30.2880   30.1360    3.2780 O.2    52  MET52      -0.2867
     82  CB        29.8410   27.2580    4.7110 C.3    52  MET52       0.0387
     83  CG        29.3470   26.2270    3.6980 C.3    52  MET52       0.0595
     84  SD        30.6080   25.0760    3.1580 S.3    52  MET52      -0.1393
     85  CE        31.2210   24.4170    4.7080 C.3    52  MET52       0.0692
     86  N         26.0950   28.6570    5.4380 N.3    79  MET79      -0.1245
     87  CA        26.5130   29.7880    4.6130 C.3    79  MET79       0.1570
     88  C         25.5750   30.9830    4.8370 C.2    79  MET79       0.2261
     89  O         26.0490   32.1010    5.0710 O.2    79  MET79      -0.2867
     90  CB        26.5450   29.3760    3.1390 C.3    79  MET79       0.0387
     91  CG        26.8840   30.4950    2.1680 C.3    79  MET79       0.0595
     92  SD        26.8550   29.9120    0.4750 S.3    79  MET79      -0.1393
     93  CE        25.1170   29.5490    0.2510 C.3    79  MET79       0.0692
     94  N         26.2810   34.7420    6.9930 N.3    83  ALA83      -0.1245
     95  CA        26.0940   36.0660    6.3980 C.3    83  ALA83       0.1562
     96  C         25.0750   36.8880    7.1710 C.2    83  ALA83       0.2260
     97  O         25.2730   38.0900    7.3610 O.2    83  ALA83      -0.2867
     98  CB        25.7090   35.9570    4.9340 C.3    83  ALA83       0.0290
     99  N         27.0230   38.0410   10.5460 N.3    86  TYR86      -0.1227
    100  CA        28.1280   38.9940   10.5080 C.3    86  TYR86       0.1736
    101  C         27.6880   40.3680    9.9960 C.2    86  TYR86       0.2595
    102  O         28.1330   41.3970   10.5080 O.2    86  TYR86      -0.2718
    103  CB        29.3050   38.4700    9.6740 C.3    86  TYR86       0.0548
    104  CG        30.4710   39.4170    9.7460 C.ar   86  TYR86      -0.0200
    105  CD1       31.3630   39.3780   10.8180 C.ar   86  TYR86      -0.0009
    106  CD2       30.6470   40.4110    8.7800 C.ar   86  TYR86      -0.0009
    107  CE1       32.4160   40.2870   10.9030 C.ar   86  TYR86       0.0417
    108  CE2       31.6880   41.3210    8.8600 C.ar   86  TYR86       0.0417
    109  CZ        32.5660   41.2620    9.9170 C.ar   86  TYR86       0.1957
    110  OH        33.6020   42.1610   10.0010 O.3    86  TYR86      -0.2866
    111  N         26.8240   40.3760    8.9920 N.am   87  ASN87      -0.1974
    112  CA        26.4740   41.6100    8.2890 C.3    87  ASN87       0.1688
    113  C         25.2510   42.2740    8.8890 C.2    87  ASN87       0.2292
    114  O         24.3590   41.6010    9.3880 O.2    87  ASN87      -0.2864
    115  CB        26.2400   41.3260    6.8170 C.3    87  ASN87       0.1181
    116  CG        27.4290   40.6590    6.1730 C.2    87  ASN87       0.2629
    117  OD1       28.3990   41.3150    5.8080 O.2    87  ASN87      -0.2716
    118  ND2       27.3720   39.3440    6.0580 N.am   87  ASN87      -0.0877
    119  N         24.3040   45.1180    1.8690 N.3    92  ARG92      -0.1231
    120  CA        24.1340   44.4200    0.6060 C.3    92  ARG92       0.1694
    121  C         24.2060   42.9060    0.7440 C.2    92  ARG92       0.2591
    122  O         23.3450   42.1930    0.2400 O.2    92  ARG92      -0.2718
    123  CB        25.1910   44.8830   -0.3850 C.3    92  ARG92       0.0321
    124  CG        25.0970   44.2230   -1.7420 C.3    92  ARG92       0.0489
    125  CD        26.1610   44.8000   -2.6470 C.3    92  ARG92       0.2205
    126  NE        25.9780   46.2330   -2.8430 N.pl3  92  ARG92      -0.0865
    127  CZ        25.1650   46.7880   -3.7390 C.cat  92  ARG92       0.5346
    128  NH1       24.4390   46.0370   -4.5720 N.pl3  92  ARG92       0.1354
    129  NH2       25.0730   48.1050   -3.8040 N.pl3  92  ARG92       0.1354
    130  N         25.2390   42.4190    1.4210 N.am   93  VAL93      -0.1980
    131  CA        25.4320   40.9760    1.5550 C.3    93  VAL93       0.1595
    132  C         24.2980   40.3230    2.3440 C.2    93  VAL93       0.2287
    133  O         23.8550   39.2320    1.9920 O.2    93  VAL93      -0.2864
    134  CB        26.8250   40.6300    2.1330 C.3    93  VAL93       0.0276
    135  CG1       26.9000   39.1730    2.5730 C.3    93  VAL93       0.0022
    136  CG2       27.9040   40.9320    1.0960 C.3    93  VAL93       0.0022
    137  N         21.4210   40.2290   -0.1330 N.3    96  TYR96      -0.1241
    138  CA        21.7190   39.1740   -1.1080 C.3    96  TYR96       0.1605
    139  C         21.4640   37.7990   -0.4960 C.2    96  TYR96       0.2264
    140  O         20.8550   36.9300   -1.1300 O.2    96  TYR96      -0.2867
    141  CB        23.1620   39.2720   -1.5830 C.3    96  TYR96       0.0534
    142  CG        23.4610   40.3580   -2.6160 C.ar   96  TYR96      -0.0201
    143  CD1       22.5060   41.3030   -3.0210 C.ar   96  TYR96      -0.0009
    144  CD2       24.7320   40.4410   -3.1800 C.ar   96  TYR96      -0.0009
    145  CE1       22.8200   42.2710   -3.9700 C.ar   96  TYR96       0.0417
    146  CE2       25.0520   41.4050   -4.1140 C.ar   96  TYR96       0.0417
    147  CZ        24.0990   42.3170   -4.5090 C.ar   96  TYR96       0.1957
    148  OH        24.4290   43.2770   -5.4400 O.3    96  TYR96      -0.2866
@<TRIPOS>BOND
     1     1     7    1
     2     1     2    1
     3    15    13    1
     4     7     6    1
     5    14    13    1
     6     2     5    1
     7     2     3    1
     8     5     6    1
     9    13    12    1
    10     3     4    2
    11    12     9    1
    12     9     8    1
    13     9    10    1
    14   148   147    1
    15    41    40    2
    16    10    11    2
    17    10    16   am
    18   128   127    1
    19   147   146   ar
    20   147   145   ar
    21    40    42   am
    22    40    39    1
    23   146   144   ar
    24   145   143   ar
    25    16    22    1
    26    16    17    1
    27   129   127    1
    28   127   126    2
    29    22    21    1
    30    38    39    1
    31    38    35    1
    32    34    35    1
    33   144   142   ar
    34   143   142   ar
    35    35    36    1
    36   126   125    1
    37    25    26    2
    38    25    24    1
    39   125   124    1
    40    21    20    1
    41    17    18    1
    42    17    20    1
    43   142   141    1
    44    23    18   am
    45    23    24    1
    46    18    19    2
    47    24    27    1
    48   124   123    1
    49    27    28    1
    50   141   138    1
    51    36    37    2
    52    30    28   ar
    53    30    32   ar
    54   140   139    2
    55   138   139    1
    56   138   137    1
    57    28    29   ar
    58    32    33   ar
    59   123   120    1
    60   122   121    2
    61    57    55    1
    62    93    92    1
    63    92    91    1
    64    29    31   ar
    65   120   121    1
    66   120   119    1
    67   121   130   am
    68    33    31   ar
    69   136   134    1
    70    55    56    1
    71    55    54    1
    72   130   131    1
    73   131   134    1
    74   131   132    1
    75   133   132    2
    76    43    44    1
    77   134   135    1
    78    91    90    1
    79    50    51    1
    80    51    54    1
    81    51    52    1
    82    44    45    1
    83    44    47    1
    84    45    46    2
    85    80    81    2
    86    80    79    1
    87    90    87    1
    88    84    83    1
    89    84    85    1
    90    52    53    2
    91    49    47    1
    92    83    82    1
    93    47    48    1
    94    79    82    1
    95    79    78    1
    96    87    88    1
    97    87    86    1
    98    88    89    2
    99    98    95    1
   100   117   116    2
   101   118   116   am
   102    65    63    1
   103   116   115    1
   104    63    62    1
   105    95    94    1
   106    95    96    1
   107    58    59    1
   108    77    76    1
   109   115   112    1
   110    64    62    1
   111    96    97    2
   112    76    75   ar
   113    76    74   ar
   114    62    59    1
   115    75    73   ar
   116    74    72   ar
   117    59    60    1
   118    73    71   ar
   119    72    71   ar
   120   112   113    1
   121   112   111    1
   122    71    70    1
   123    60    61    2
   124   106   108   ar
   125   106   104   ar
   126   108   109   ar
   127   113   114    2
   128   111   101   am
   129    70    67    1
   130   103   104    1
   131   103   100    1
   132   104   105   ar
   133   109   110    1
   134   109   107   ar
   135   101   100    1
   136   101   102    2
   137   100    99    1
   138    67    66    1
   139    67    68    1
   140   105   107   ar
   141    68    69    2
