@<TRIPOS>MOLECULE
tmp/5nuaA00.pdb
 194 187 0 0 0
SMALL
GASTEIGER

@<TRIPOS>ATOM
      1  N         18.1200   17.6790    7.7180 N.3    29  LYS29      -0.1245
      2  CA        17.2650   17.4480    6.5640 C.3    29  LYS29       0.1561
      3  C         16.4230   18.6830    6.2940 C.2    29  LYS29       0.2260
      4  O         15.8790   19.2910    7.2220 O.2    29  LYS29      -0.2867
      5  CB        16.3530   16.2420    6.8060 C.3    29  LYS29       0.0271
      6  CG        15.4890   15.8580    5.6170 C.3    29  LYS29       0.0035
      7  CD        14.5180   14.7480    5.9930 C.3    29  LYS29       0.0206
      8  CE        13.6020   14.3860    4.8350 C.3    29  LYS29       0.1093
      9  NZ        12.2560   13.9660    5.3010 N.3    29  LYS29      -0.1314
     10  N         10.7370   17.8140    2.0430 N.3    32  PRO32      -0.2116
     11  CA         9.8350   18.1150    0.9530 C.3    32  PRO32       0.1372
     12  C          8.3900   18.1690    1.4320 C.2    32  PRO32       0.2244
     13  O          8.1270   17.9540    2.6100 O.2    32  PRO32      -0.2868
     14  CB        10.0330   16.9330    0.0160 C.3    32  PRO32       0.0268
     15  CG        10.2920   15.7910    0.9460 C.3    32  PRO32       0.0207
     16  CD        10.9590   16.3620    2.1710 C.3    32  PRO32       0.0892
     17  N          4.9030   16.6430    2.1580 N.3    34  GLY34      -0.1210
     18  CA         4.5550   15.2930    2.5810 C.3    34  GLY34       0.1956
     19  C          5.7790   14.4910    2.9890 C.2    34  GLY34       0.2612
     20  O          6.1090   13.4810    2.3670 O.2    34  GLY34      -0.2717
     21  N          6.4610   14.9460    4.0300 N.am   35  LEU35      -0.1965
     22  CA         7.7600   14.3860    4.3780 C.3    35  LEU35       0.1728
     23  C          7.6080   12.9380    4.8300 C.2    35  LEU35       0.2616
     24  O          6.5780   12.5540    5.3800 O.2    35  LEU35      -0.2715
     25  CB         8.4440   15.2260    5.4630 C.3    35  LEU35       0.0311
     26  CG         7.9010   15.1550    6.8910 C.3    35  LEU35       0.0022
     27  CD1        8.6190   14.0780    7.6930 C.3    35  LEU35       0.0001
     28  CD2        8.0460   16.5080    7.5760 C.3    35  LEU35       0.0001
     29  N          8.6420   12.1420    4.5840 N.am   36  PHE36      -0.1960
     30  CA         8.6000   10.7140    4.8620 C.3    36  PHE36       0.1771
     31  C          9.5310   10.3780    6.0310 C.2    36  PHE36       0.2619
     32  O          9.0690   10.0830    7.1340 O.2    36  PHE36      -0.2715
     33  CB         8.9890    9.9370    3.6010 C.3    36  PHE36       0.0574
     34  CG         8.8690    8.4470    3.7400 C.ar   36  PHE36      -0.0200
     35  CD1        7.6900    7.8710    4.1760 C.ar   36  PHE36      -0.0042
     36  CD2        9.9360    7.6240    3.4240 C.ar   36  PHE36      -0.0042
     37  CE1        7.5780    6.4980    4.3040 C.ar   36  PHE36      -0.0003
     38  CE2        9.8340    6.2540    3.5540 C.ar   36  PHE36      -0.0003
     39  CZ         8.6520    5.6890    3.9910 C.ar   36  PHE36      -0.0000
     40  N         10.8390   10.4380    5.8000 N.am   37  LEU37      -0.1977
     41  CA        11.8010   10.1000    6.8520 C.3    37  LEU37       0.1596
     42  C         11.8640   11.1870    7.9230 C.2    37  LEU37       0.2287
     43  O         12.0610   12.3630    7.6200 O.2    37  LEU37      -0.2864
     44  CB        13.1930    9.8690    6.2660 C.3    37  LEU37       0.0297
     45  CG        13.3000    8.7140    5.2720 C.3    37  LEU37       0.0022
     46  CD1       14.6920    8.6600    4.6620 C.3    37  LEU37       0.0001
     47  CD2       12.9490    7.3920    5.9390 C.3    37  LEU37       0.0001
     48  N         22.0400    5.8310    6.2870 N.3    43  ALA43      -0.1245
     49  CA        22.0850    5.3270    4.9300 C.3    43  ALA43       0.1562
     50  C         23.3600    4.5280    4.7110 C.2    43  ALA43       0.2260
     51  O         24.4100    4.8300    5.2760 O.2    43  ALA43      -0.2867
     52  CB        21.9950    6.4710    3.9290 C.3    43  ALA43       0.0290
     53  N         25.6170    3.1570    1.5080 N.3    45  PHE45      -0.1241
     54  CA        25.8160    3.2320    0.0700 C.3    45  PHE45       0.1605
     55  C         26.7440    2.1170   -0.3870 C.2    45  PHE45       0.2264
     56  O         27.7240    1.7890    0.2880 O.2    45  PHE45      -0.2867
     57  CB        26.3960    4.5910   -0.3250 C.3    45  PHE45       0.0534
     58  CG        25.3670    5.6780   -0.4380 C.ar   45  PHE45      -0.0203
     59  CD1       24.7980    6.2300    0.6980 C.ar   45  PHE45      -0.0042
     60  CD2       24.9610    6.1460   -1.6800 C.ar   45  PHE45      -0.0042
     61  CE1       23.8450    7.2260    0.5990 C.ar   45  PHE45      -0.0003
     62  CE2       24.0120    7.1460   -1.7830 C.ar   45  PHE45      -0.0003
     63  CZ        23.4510    7.6880   -0.6430 C.ar   45  PHE45      -0.0000
     64  N         21.7760    2.0090   -2.5760 N.3    55  ALA55      -0.1231
     65  CA        21.7870    2.3290   -1.1530 C.3    55  ALA55       0.1694
     66  C         20.6510    1.6300   -0.4210 C.2    55  ALA55       0.2593
     67  O         19.6500    1.2330   -1.0240 O.2    55  ALA55      -0.2718
     68  CB        21.7020    3.8350   -0.9500 C.3    55  ALA55       0.0304
     69  N         20.8210    1.4790    0.8870 N.am   56  THR56      -0.1939
     70  CA        19.7090    1.2260    1.7870 C.3    56  THR56       0.2028
     71  C         19.6160    2.3440    2.8220 C.2    56  THR56       0.2642
     72  O         20.5900    3.0550    3.0750 O.2    56  THR56      -0.2714
     73  CB        19.8780   -0.1230    2.5160 C.3    56  THR56       0.1808
     74  OG1       21.0440   -0.0830    3.3500 O.3    56  THR56      -0.2208
     75  CG2       20.0090   -1.2670    1.5150 C.3    56  THR56       0.0379
     76  N         18.4430    2.4980    3.4230 N.am   57  ALA57      -0.1977
     77  CA        18.2770    3.4550    4.5030 C.3    57  ALA57       0.1597
     78  C         17.3130    2.9160    5.5510 C.2    57  ALA57       0.2287
     79  O         16.3150    2.2730    5.2240 O.2    57  ALA57      -0.2864
     80  CB        17.7800    4.7850    3.9570 C.3    57  ALA57       0.0319
     81  N         14.3500    1.0890    3.7830 N.3    73  MET73      -0.1230
     82  CA        14.2000    1.5540    2.4090 C.3    73  MET73       0.1702
     83  C         15.3500    1.0670    1.5320 C.2    73  MET73       0.2592
     84  O         16.4540    0.8130    2.0180 O.2    73  MET73      -0.2718
     85  CB        14.1350    3.0780    2.3710 C.3    73  MET73       0.0401
     86  CG        13.0490    3.6750    3.2520 C.3    73  MET73       0.0596
     87  SD        11.3910    3.1180    2.8130 S.3    73  MET73      -0.1393
     88  CE        11.1930    3.8600    1.1900 C.3    73  MET73       0.0692
     89  N         15.0720    0.9390    0.2380 N.am   74  VAL74      -0.1966
     90  CA        16.0690    0.5450   -0.7500 C.3    74  VAL74       0.1727
     91  C         16.0730    1.5520   -1.8900 C.2    74  VAL74       0.2616
     92  O         15.0230    2.0490   -2.2940 O.2    74  VAL74      -0.2715
     93  CB        15.7540   -0.8440   -1.3420 C.3    74  VAL74       0.0290
     94  CG1       16.8830   -1.3080   -2.2490 C.3    74  VAL74       0.0023
     95  CG2       15.4990   -1.8520   -0.2300 C.3    74  VAL74       0.0023
     96  N         17.2560    1.8460   -2.4120 N.am   75  GLY75      -0.1955
     97  CA        17.3850    2.7890   -3.5140 C.3    75  GLY75       0.1869
     98  C         18.4060    2.3300   -4.5350 C.2    75  GLY75       0.2309
     99  O         19.4580    1.7980   -4.1800 O.2    75  GLY75      -0.2863
    100  N         20.4540    3.7310   -8.1810 N.3    77  PHE77      -0.1241
    101  CA        20.7990    4.9890   -8.8300 C.3    77  PHE77       0.1605
    102  C         21.1600    4.7610  -10.2910 C.2    77  PHE77       0.2264
    103  O         22.0860    4.0080  -10.6030 O.2    77  PHE77      -0.2867
    104  CB        21.9660    5.6600   -8.1100 C.3    77  PHE77       0.0534
    105  CG        21.6840    5.9890   -6.6730 C.ar   77  PHE77      -0.0203
    106  CD1       21.0110    7.1460   -6.3380 C.ar   77  PHE77      -0.0042
    107  CD2       22.1020    5.1430   -5.6570 C.ar   77  PHE77      -0.0042
    108  CE1       20.7480    7.4560   -5.0180 C.ar   77  PHE77      -0.0003
    109  CE2       21.8430    5.4460   -4.3330 C.ar   77  PHE77      -0.0003
    110  CZ        21.1680    6.6080   -4.0130 C.ar   77  PHE77      -0.0000
    111  N         17.1750    8.3190   -8.7260 N.3    88  MET88      -0.1245
    112  CA        17.0590    7.3200   -7.6680 C.3    88  MET88       0.1570
    113  C         15.6620    6.7230   -7.6590 C.2    88  MET88       0.2261
    114  O         14.6900    7.3840   -7.2850 O.2    88  MET88      -0.2867
    115  CB        17.3600    7.9300   -6.3000 C.3    88  MET88       0.0387
    116  CG        17.2310    6.9390   -5.1480 C.3    88  MET88       0.0595
    117  SD        17.4130    7.6880   -3.5160 S.3    88  MET88      -0.1393
    118  CE        15.8700    8.5910   -3.3830 C.3    88  MET88       0.0692
    119  N         13.3690    4.2570   -5.6610 N.3    90  TYR90      -0.1241
    120  CA        13.3690    3.8340   -4.2640 C.3    90  TYR90       0.1605
    121  C         12.0520    3.1740   -3.8810 C.2    90  TYR90       0.2264
    122  O         11.0070    3.4310   -4.4840 O.2    90  TYR90      -0.2867
    123  CB        13.6820    5.0160   -3.3320 C.3    90  TYR90       0.0534
    124  CG        12.5600    6.0190   -3.1770 C.ar   90  TYR90      -0.0201
    125  CD1       12.4300    7.0900   -4.0560 C.ar   90  TYR90      -0.0009
    126  CD2       11.6370    5.9050   -2.1450 C.ar   90  TYR90      -0.0009
    127  CE1       11.4070    8.0090   -3.9140 C.ar   90  TYR90       0.0417
    128  CE2       10.6100    6.8200   -1.9970 C.ar   90  TYR90       0.0417
    129  CZ        10.5020    7.8700   -2.8850 C.ar   90  TYR90       0.1957
    130  OH         9.4850    8.7830   -2.7360 O.3    90  TYR90      -0.2866
    131  N          6.3490    4.1820    1.1660 N.3    98  GLN98      -0.1245
    132  CA         6.4640    5.0730    0.0210 C.3    98  GLN98       0.1566
    133  C          7.4520    4.5320   -1.0100 C.2    98  GLN98       0.2260
    134  O          8.5110    4.0150   -0.6600 O.2    98  GLN98      -0.2867
    135  CB         6.9150    6.4540    0.4930 C.3    98  GLN98       0.0367
    136  CG         6.7490    7.5530   -0.5380 C.3    98  GLN98       0.0905
    137  CD         7.0200    8.9220    0.0450 C.2    98  GLN98       0.2608
    138  OE1        8.0650    9.5230   -0.2110 O.2    98  GLN98      -0.2717
    139  NE2        6.0820    9.4170    0.8470 N.am   98  GLN98      -0.0878
    140  N         18.6600   12.7220   -7.6370 N.3   104  HIS104     -0.1241
    141  CA        19.5570   12.5990   -6.4960 C.3   104  HIS104      0.1621
    142  C         20.8990   13.2070   -6.8610 C.2   104  HIS104      0.2264
    143  O         21.6550   12.6350   -7.6470 O.2   104  HIS104     -0.2867
    144  CB        19.7240   11.1280   -6.1100 C.3   104  HIS104      0.0745
    145  CG        20.4830   10.9110   -4.8360 C.ar  104  HIS104      0.0817
    146  ND1       19.8590   10.6450   -3.6350 N.ar  104  HIS104     -0.2268
    147  CD2       21.8120   10.9000   -4.5780 C.ar  104  HIS104      0.1154
    148  CE1       20.7710   10.4900   -2.6920 C.ar  104  HIS104      0.1986
    149  NE2       21.9640   10.6350   -3.2390 N.ar  104  HIS104     -0.2212
    150  N         12.1440   17.7010   -6.7040 N.3   121  ARG121     -0.1245
    151  CA        11.0870   16.8450   -7.2290 C.3   121  ARG121      0.1563
    152  C         10.2390   17.5540   -8.2830 C.2   121  ARG121      0.2260
    153  O          9.6360   16.9080   -9.1460 O.2   121  ARG121     -0.2867
    154  CB        10.1890   16.3680   -6.0890 C.3   121  ARG121      0.0307
    155  CG        10.8310   15.3040   -5.2130 C.3   121  ARG121      0.0489
    156  CD         9.8770   14.7980   -4.1430 C.3   121  ARG121      0.2205
    157  NE        10.3260   13.5110   -3.6080 N.pl3 121  ARG121     -0.0865
    158  CZ         9.9450   13.0020   -2.4410 C.cat 121  ARG121      0.5346
    159  NH1        9.1000   13.6600   -1.6610 N.pl3 121  ARG121      0.1354
    160  NH2       10.4150   11.8240   -2.0560 N.pl3 121  ARG121      0.1354
    161  N         14.0300   18.4370   -1.4030 N.3   133  TYR133     -0.1241
    162  CA        14.5990   18.0210   -0.1310 C.3   133  TYR133      0.1605
    163  C         16.1140   17.9020   -0.2000 C.2   133  TYR133      0.2264
    164  O         16.6980   17.8780   -1.2800 O.2   133  TYR133     -0.2867
    165  CB        13.9610   16.7100    0.3670 C.3   133  TYR133      0.0534
    166  CG        14.1900   15.4620   -0.4750 C.ar  133  TYR133     -0.0201
    167  CD1       15.2580   14.6170   -0.2150 C.ar  133  TYR133     -0.0009
    168  CD2       13.3090   15.1030   -1.4840 C.ar  133  TYR133     -0.0009
    169  CE1       15.4590   13.4630   -0.9540 C.ar  133  TYR133      0.0417
    170  CE2       13.5010   13.9500   -2.2330 C.ar  133  TYR133      0.0417
    171  CZ        14.5800   13.1360   -1.9660 C.ar  133  TYR133      0.1957
    172  OH        14.7770   11.9750   -2.6970 O.3   133  TYR133     -0.2866
    173  N         19.5490   16.2430    2.3110 N.3   135  PHE135     -0.1241
    174  CA        20.1780   15.6590    3.4850 C.3   135  PHE135      0.1605
    175  C         21.6050   16.1740    3.6170 C.2   135  PHE135      0.2264
    176  O         22.3390   16.2610    2.6250 O.2   135  PHE135     -0.2867
    177  CB        20.2080   14.1310    3.3760 C.3   135  PHE135      0.0534
    178  CG        18.8630   13.4780    3.5580 C.ar  135  PHE135     -0.0203
    179  CD1       18.3760   13.2140    4.8270 C.ar  135  PHE135     -0.0042
    180  CD2       18.0950   13.1260    2.4650 C.ar  135  PHE135     -0.0042
    181  CE1       17.1430   12.6180    5.0010 C.ar  135  PHE135     -0.0003
    182  CE2       16.8590   12.5290    2.6300 C.ar  135  PHE135     -0.0003
    183  CZ        16.3840   12.2730    3.9020 C.ar  135  PHE135     -0.0000
    184  N         24.8410   14.6600    5.4470 N.3   137  PHE137     -0.1241
    185  CA        25.2960   13.3890    6.0120 C.3   137  PHE137      0.1605
    186  C         26.6420   13.5710    6.7040 C.2   137  PHE137      0.2264
    187  O         27.4640   14.3910    6.2830 O.2   137  PHE137     -0.2867
    188  CB        25.4600   12.3220    4.9210 C.3   137  PHE137      0.0534
    189  CG        24.1690   11.8600    4.3030 C.ar  137  PHE137     -0.0203
    190  CD1       23.2840   11.0710    5.0210 C.ar  137  PHE137     -0.0042
    191  CD2       23.8510   12.1980    2.9980 C.ar  137  PHE137     -0.0042
    192  CE1       22.1070   10.6280    4.4450 C.ar  137  PHE137     -0.0003
    193  CE2       22.6770   11.7590    2.4170 C.ar  137  PHE137     -0.0003
    194  CZ        21.7990   10.9790    3.1440 C.ar  137  PHE137     -0.0000
@<TRIPOS>BOND
     1   103   102    2
     2   102   101    1
     3   153   152    2
     4   101   100    1
     5   101   104    1
     6   111   112    1
     7   152   151    1
     8   104   105    1
     9   112   113    1
    10   112   115    1
    11   113   114    2
    12   143   142    2
    13   140   141    1
    14   151   150    1
    15   151   154    1
    16   142   141    1
    17   105   106   ar
    18   105   107   ar
    19   141   144    1
    20   106   108   ar
    21   115   116    1
    22   144   145    1
    23   154   155    1
    24   119   120    1
    25   107   109   ar
    26   155   156    1
    27   116   117    1
    28   108   110   ar
    29   145   147   ar
    30   145   146   ar
    31   147   149   ar
    32    98    99    2
    33    98    97    1
    34   122   121    2
    35   109   110   ar
    36   120   121    1
    37   120   123    1
    38   156   157    1
    39   125   127   ar
    40   125   124   ar
    41   127   129   ar
    42   146   148   ar
    43   157   158    2
    44   117   118    1
    45    97    96    1
    46   123   124    1
    47   149   148   ar
    48   124   126   ar
    49   129   130    1
    50   129   128   ar
    51   172   171    1
    52    64    65    1
    53   158   160    1
    54   158   159    1
    55    96    91   am
    56    92    91    2
    57    94    93    1
    58   170   171   ar
    59   170   168   ar
    60   126   128   ar
    61   171   169   ar
    62    91    90    1
    63    62    60   ar
    64    62    63   ar
    65    60    58   ar
    66   168   166   ar
    67   161   162    1
    68    93    90    1
    69    93    95    1
    70   164   163    2
    71    65    68    1
    72    65    66    1
    73    67    66    2
    74   133   134    2
    75   133   132    1
    76   169   167   ar
    77    90    89    1
    78    63    61   ar
    79   136   137    1
    80   136   135    1
    81   166   167   ar
    82   166   165    1
    83    58    57    1
    84    58    59   ar
    85    66    69   am
    86    55    54    1
    87    55    56    2
    88    57    54    1
    89   138   137    2
    90   163   162    1
    91   162   165    1
    92    14    15    1
    93    14    11    1
    94   132   135    1
    95   132   131    1
    96   137   139   am
    97    54    53    1
    98    89    83   am
    99    61    59   ar
   100    69    70    1
   101    15    16    1
   102    11    12    1
   103    11    10    1
   104    88    87    1
   105    12    13    2
   106    75    73    1
   107    83    84    2
   108    83    82    1
   109    70    73    1
   110    70    71    1
   111    10    16    1
   112    17    18    1
   113   173   174    1
   114    20    19    2
   115    85    82    1
   116    85    86    1
   117    82    81    1
   118   193   191   ar
   119   193   194   ar
   120   180   182   ar
   121   180   178   ar
   122    73    74    1
   123    18    19    1
   124   176   175    2
   125   182   183   ar
   126    87    86    1
   127    71    72    2
   128    71    76   am
   129    19    21   am
   130   191   189   ar
   131   194   192   ar
   132   177   174    1
   133   177   178    1
   134    76    77    1
   135    36    38   ar
   136    36    34   ar
   137   174   175    1
   138    38    39   ar
   139   178   179   ar
   140    33    34    1
   141    33    30    1
   142    34    35   ar
   143   183   181   ar
   144    52    49    1
   145    80    77    1
   146    39    37   ar
   147    21    22    1
   148    35    37   ar
   149   189   188    1
   150   189   190   ar
   151    22    23    1
   152    22    25    1
   153   192   190   ar
   154    77    78    1
   155    29    23   am
   156    29    30    1
   157    46    45    1
   158    50    49    1
   159    50    51    2
   160   179   181   ar
   161    23    24    2
   162     8     9    1
   163     8     7    1
   164    30    31    1
   165   188   185    1
   166    49    48    1
   167    79    78    2
   168    45    47    1
   169    45    44    1
   170   184   185    1
   171    25    26    1
   172     6     7    1
   173     6     5    1
   174    40    31   am
   175    40    41    1
   176   185   186    1
   177    31    32    2
   178    44    41    1
   179   187   186    2
   180     3     2    1
   181     3     4    2
   182     2     5    1
   183     2     1    1
   184    41    42    1
   185    26    28    1
   186    26    27    1
   187    43    42    2
