@<TRIPOS>MOLECULE
tmp/5nudB00.pdb
 113 101 0 0 0
SMALL
GASTEIGER

@<TRIPOS>ATOM
      1  N         -4.7710  -12.0010 -106.7030 N.3    24  LYS24      -0.1245
      2  CA        -5.0130  -11.2150 -105.5100 C.3    24  LYS24       0.1561
      3  C         -3.9000  -11.4130 -104.4900 C.2    24  LYS24       0.2260
      4  O         -3.3610  -12.5170 -104.3890 O.2    24  LYS24      -0.2867
      5  CB        -6.3890  -11.5420 -104.9070 C.3    24  LYS24       0.0271
      6  CG        -6.5550  -12.9670 -104.3980 C.3    24  LYS24       0.0035
      7  CD        -7.9290  -13.0680 -103.7810 C.3    24  LYS24       0.0206
      8  CE        -8.4410  -14.5120 -103.7190 C.3    24  LYS24       0.1093
      9  NZ        -7.6130  -15.3530 -102.8810 N.3    24  LYS24      -0.1314
     10  N         -1.9840  -12.2230 -101.1110 N.3    26  LEU26      -0.1245
     11  CA        -2.0330  -13.0730  -99.9300 C.3    26  LEU26       0.1561
     12  C         -1.2290  -12.2450  -98.9280 C.2    26  LEU26       0.2260
     13  O         -1.2710  -12.4780  -97.7230 O.2    26  LEU26      -0.2867
     14  CB        -1.2500  -14.3570 -100.2570 C.3    26  LEU26       0.0270
     15  CG        -1.9490  -15.5730 -100.8890 C.3    26  LEU26       0.0019
     16  CD1       -3.3200  -15.2570 -101.5010 C.3    26  LEU26       0.0001
     17  CD2       -1.0330  -16.2580 -101.8660 C.3    26  LEU26       0.0001
     18  N          3.3630  -10.8900 -100.7920 N.3    34  VAL34      -0.1245
     19  CA         3.2480  -12.2270 -101.3990 C.3    34  VAL34       0.1561
     20  C          1.9070  -12.2400 -102.1630 C.2    34  VAL34       0.2260
     21  O          0.8760  -11.9400 -101.5760 O.2    34  VAL34      -0.2867
     22  CB         3.3170  -13.3960 -100.3600 C.3    34  VAL34       0.0252
     23  CG1        3.3090  -14.7540 -101.0530 C.3    34  VAL34       0.0019
     24  CG2        4.5340  -13.2840  -99.4480 C.3    34  VAL34       0.0019
     25  N         -0.9030  -14.3280 -104.9160 N.3    36  ARG36      -0.1245
     26  CA        -1.3000  -15.6050 -105.4880 C.3    36  ARG36       0.1563
     27  C         -1.0870  -15.4580 -106.9770 C.2    36  ARG36       0.2260
     28  O         -1.2750  -14.3680 -107.5080 O.2    36  ARG36      -0.2867
     29  CB        -2.7840  -15.8950 -105.1900 C.3    36  ARG36       0.0307
     30  CG        -3.2140  -17.3250 -105.5130 C.3    36  ARG36       0.0489
     31  CD        -4.7090  -17.4520 -105.7740 C.3    36  ARG36       0.2205
     32  NE        -5.4160  -18.0230 -104.6230 N.pl3  36  ARG36      -0.0865
     33  CZ        -6.0670  -19.1860 -104.6230 C.cat  36  ARG36       0.5346
     34  NH1       -6.1390  -19.9170 -105.7320 N.pl3  36  ARG36       0.1354
     35  NH2       -6.6720  -19.6150 -103.5230 N.pl3  36  ARG36       0.1354
     36  N         -1.1600  -23.2280 -108.9380 N.3    52  THR52      -0.1218
     37  CA        -1.2640  -22.0400 -108.0980 C.3    52  THR52       0.1862
     38  C         -0.0300  -21.9710 -107.2450 C.2    52  THR52       0.2287
     39  O          0.2980  -22.9050 -106.5090 O.2    52  THR52      -0.2866
     40  CB        -2.5830  -21.9950 -107.3150 C.3    52  THR52       0.1770
     41  OG1       -3.6590  -22.1870 -108.2320 O.3    52  THR52      -0.2211
     42  CG2       -2.7690  -20.6880 -106.5630 C.3    52  THR52       0.0375
     43  N          2.7270  -18.9910 -105.0100 N.3    54  ALA54      -0.1245
     44  CA         2.7880  -17.7500 -104.2350 C.3    54  ALA54       0.1562
     45  C          3.9950  -16.9760 -104.7620 C.2    54  ALA54       0.2260
     46  O          5.0900  -17.5280 -104.8460 O.2    54  ALA54      -0.2867
     47  CB         2.9510  -18.0610 -102.7400 C.3    54  ALA54       0.0290
     48  N          6.6160  -14.0130 -104.2670 N.3    56  LYS56      -0.1245
     49  CA         7.2250  -13.0430 -103.3610 C.3    56  LYS56       0.1561
     50  C          7.7760  -11.9050 -104.2220 C.2    56  LYS56       0.2260
     51  O          8.3800  -12.1600 -105.2770 O.2    56  LYS56      -0.2867
     52  CB         8.3590  -13.6700 -102.5580 C.3    56  LYS56       0.0271
     53  CG         7.9060  -14.6460 -101.4940 C.3    56  LYS56       0.0035
     54  CD         9.0190  -14.9370 -100.5220 C.3    56  LYS56       0.0206
     55  CE         8.4490  -15.4280  -99.2160 C.3    56  LYS56       0.1093
     56  NZ         9.0650  -14.7390  -98.0540 N.3    56  LYS56      -0.1314
     57  N          8.9020  -24.9080  -97.5480 N.3    87  ILE87      -0.1245
     58  CA         8.3360  -24.1740  -98.6940 C.3    87  ILE87       0.1561
     59  C          9.4700  -24.1350  -99.7220 C.2    87  ILE87       0.2260
     60  O         10.5720  -23.6700  -99.4120 O.2    87  ILE87      -0.2867
     61  CB         7.7690  -22.7510  -98.3620 C.3    87  ILE87       0.0252
     62  CG1        6.4560  -22.8070  -97.4940 C.3    87  ILE87       0.0019
     63  CG2        7.5970  -21.9040  -99.6270 C.3    87  ILE87       0.0019
     64  CD1        5.0300  -23.0590  -98.2390 C.3    87  ILE87       0.0001
     65  N          7.3970  -19.2470 -104.9930 N.3   103  VAL103     -0.1231
     66  CA         7.5210  -20.3120 -103.9920 C.3   103  VAL103      0.1692
     67  C          6.2490  -21.1420 -103.9580 C.2   103  VAL103      0.2592
     68  O          5.2590  -20.7390 -104.5660 O.2   103  VAL103     -0.2718
     69  CB         7.9230  -19.7460 -102.6020 C.3   103  VAL103      0.0266
     70  CG1        9.2970  -19.0680 -102.6560 C.3   103  VAL103      0.0020
     71  CG2        6.8640  -18.7910 -102.0500 C.3   103  VAL103      0.0020
     72  N          6.2620  -22.2960 -103.2760 N.am  104  GLU104     -0.1966
     73  CA         5.0490  -23.1270 -103.1640 C.3   104  GLU104      0.1733
     74  C          3.9710  -22.4050 -102.3990 C.2   104  GLU104      0.2616
     75  O          4.2400  -21.7000 -101.4240 O.2   104  GLU104     -0.2715
     76  CB         5.3340  -24.4760 -102.5030 C.3   104  GLU104      0.0429
     77  CG         5.9350  -25.4620 -103.4820 C.3   104  GLU104      0.1163
     78  CD         6.6170  -26.6680 -102.8720 C.2   104  GLU104      0.3649
     79  OE1        7.0810  -26.5710 -101.7160 O.co2 104  GLU104     -0.2457
     80  OE2        6.7680  -27.6840 -103.5860 O.co2 104  GLU104     -0.2457
     81  N          2.7550  -22.5360 -102.8710 N.am  105  CYS105     -0.1954
     82  CA         1.5920  -21.9440 -102.2300 C.3   105  CYS105      0.1843
     83  C          0.9620  -22.9920 -101.2620 C.2   105  CYS105      0.2625
     84  O          0.8720  -24.1860 -101.5940 O.2   105  CYS105     -0.2714
     85  CB         0.6140  -21.4400 -103.2880 C.3   105  CYS105      0.0997
     86  SG        -1.1190  -21.8460 -102.9740 S.3   105  CYS105     -0.0797
     87  N          0.6220  -22.5460 -100.0460 N.am  106  ALA106     -0.1963
     88  CA         0.0190  -23.3850  -99.0050 C.3   106  ALA106      0.1728
     89  C         -1.3630  -22.8220  -98.6650 C.2   106  ALA106      0.2616
     90  O         -1.4730  -21.8740  -97.8880 O.2   106  ALA106     -0.2715
     91  CB         0.9100  -23.4150  -97.7790 C.3   106  ALA106      0.0334
     92  N         -2.4030  -23.3850  -99.3070 N.am  107  ALA107     -0.1977
     93  CA        -3.8020  -22.9470  -99.2540 C.3   107  ALA107      0.1597
     94  C         -4.5100  -22.9170  -97.9000 C.2   107  ALA107      0.2287
     95  O         -5.4570  -22.1450  -97.7330 O.2   107  ALA107     -0.2864
     96  CB        -4.6380  -23.7080 -100.2820 C.3   107  ALA107      0.0319
     97  N         -3.2460  -22.0100  -94.9300 N.3   109  GLY109     -0.1225
     98  CA        -2.5970  -21.0750  -94.0120 C.3   109  GLY109      0.1811
     99  C         -1.5900  -21.7290  -93.0860 C.2   109  GLY109      0.2280
    100  O         -1.1290  -22.8390  -93.3600 O.2   109  GLY109     -0.2866
    101  N          3.5330  -23.8000  -92.6830 N.3   158  LEU158     -0.1245
    102  CA         2.4100  -23.5680  -93.5830 C.3   158  LEU158      0.1561
    103  C          1.7870  -24.8930  -93.9620 C.2   158  LEU158      0.2260
    104  O          2.4570  -25.9340  -93.9120 O.2   158  LEU158     -0.2867
    105  CB         2.8660  -22.7310  -94.7930 C.3   158  LEU158      0.0270
    106  CG         2.6580  -21.1750  -94.6960 C.3   158  LEU158      0.0019
    107  CD1        3.0890  -20.5810  -93.3530 C.3   158  LEU158      0.0001
    108  CD2        3.4120  -20.4540  -95.7720 C.3   158  LEU158      0.0001
    109  N          8.2760  -22.6110  -93.2390 N.3   168  ALA168     -0.1245
    110  CA         8.4740  -21.3340  -93.9090 C.3   168  ALA168      0.1562
    111  C          9.5330  -20.5140  -93.1870 C.2   168  ALA168      0.2260
    112  O          9.8290  -20.7600  -92.0140 O.2   168  ALA168     -0.2867
    113  CB         7.1580  -20.5610  -93.9500 C.3   168  ALA168      0.0290
@<TRIPOS>BOND
     1    36    37    1
     2    41    40    1
     3    37    40    1
     4    37    38    1
     5    28    27    2
     6    40    42    1
     7    38    39    2
     8    27    26    1
     9     1     2    1
    10    31    30    1
    11    31    32    1
    12    34    33    1
    13    30    29    1
    14     2     5    1
    15     2     3    1
    16    26    29    1
    17    26    25    1
    18    51    50    2
    19    43    44    1
    20    65    66    1
    21     5     6    1
    22    46    45    2
    23    45    44    1
    24    33    32    2
    25    33    35    1
    26    68    67    2
    27     3     4    2
    28     6     7    1
    29    48    49    1
    30    44    47    1
    31    50    49    1
    32    66    67    1
    33    66    69    1
    34    67    72   am
    35     7     8    1
    36     8     9    1
    37    80    78   ar
    38    77    78    1
    39    77    76    1
    40    49    52    1
    41    85    86    1
    42    85    82    1
    43    72    73    1
    44    73    76    1
    45    73    74    1
    46    78    79   ar
    47    81    74   am
    48    81    82    1
    49    70    69    1
    50    69    71    1
    51    52    53    1
    52    74    75    2
    53    82    83    1
    54    20    21    2
    55    20    19    1
    56    17    15    1
    57    84    83    2
    58    16    15    1
    59    53    54    1
    60    19    18    1
    61    19    22    1
    62    83    87   am
    63    10    11    1
    64    23    22    1
    65    15    14    1
    66    54    55    1
    67    22    24    1
    68    96    93    1
    69    14    11    1
    70    87    88    1
    71    11    12    1
    72    59    60    2
    73    59    58    1
    74    63    61    1
    75    92    93    1
    76    92    89   am
    77    93    94    1
    78    55    56    1
    79    88    89    1
    80    88    91    1
    81    12    13    2
    82    58    61    1
    83    58    57    1
    84    89    90    2
    85    61    62    1
    86    64    62    1
    87    94    95    2
    88   108   106    1
    89    97    98    1
    90   105   106    1
    91   105   102    1
    92   106   107    1
    93    98    99    1
    94   103   104    2
    95   103   102    1
    96   113   110    1
    97   110   109    1
    98   110   111    1
    99   102   101    1
   100   100    99    2
   101   111   112    2
