@<TRIPOS>MOLECULE
tmp/5nujA00.pdb
 166 155 0 0 0
SMALL
GASTEIGER

@<TRIPOS>ATOM
      1  N         34.5540   51.3260  123.4470 N.3    29  LEU29      -0.1245
      2  CA        34.7530   50.5020  122.2400 C.3    29  LEU29       0.1561
      3  C         34.8910   48.9940  122.5480 C.2    29  LEU29       0.2260
      4  O         34.5050   48.1540  121.7360 O.2    29  LEU29      -0.2867
      5  CB        35.9720   51.0070  121.4490 C.3    29  LEU29       0.0270
      6  CG        35.9010   52.4720  120.9620 C.3    29  LEU29       0.0019
      7  CD1       37.2020   52.9330  120.3440 C.3    29  LEU29       0.0001
      8  CD2       34.7710   52.6750  119.9540 C.3    29  LEU29       0.0001
      9  N         31.1160   48.2460  120.2360 N.3    36  PRO36      -0.2102
     10  CA        31.4990   48.2880  118.8160 C.3    36  PRO36       0.1504
     11  C         32.7930   47.5730  118.3810 C.2    36  PRO36       0.2575
     12  O         32.8120   46.9960  117.2930 O.2    36  PRO36      -0.2718
     13  CB        31.5960   49.7940  118.5250 C.3    36  PRO36       0.0282
     14  CG        30.6080   50.4120  119.4700 C.3    36  PRO36       0.0208
     15  CD        30.5670   49.5380  120.6960 C.3    36  PRO36       0.0893
     16  N         33.8660   47.6330  119.1670 N.am   37  ALA37      -0.1980
     17  CA        35.1360   46.9740  118.7570 C.3    37  ALA37       0.1597
     18  C         35.2830   45.5480  119.2480 C.2    37  ALA37       0.2287
     19  O         36.2450   44.8890  118.8960 O.2    37  ALA37      -0.2864
     20  CB        36.3530   47.7750  119.1930 C.3    37  ALA37       0.0319
     21  N         34.8080   42.4170  118.6890 N.3    39  VAL39      -0.1245
     22  CA        34.5160   41.5300  117.5550 C.3    39  VAL39       0.1561
     23  C         35.5420   40.3910  117.5290 C.2    39  VAL39       0.2260
     24  O         36.7360   40.6440  117.6350 O.2    39  VAL39      -0.2867
     25  CB        34.5080   42.3150  116.2070 C.3    39  VAL39       0.0252
     26  CG1       33.6540   43.5700  116.3210 C.3    39  VAL39       0.0019
     27  CG2       35.9090   42.7060  115.7510 C.3    39  VAL39       0.0019
     28  N         37.6020   37.0910  116.0280 N.3    41  VAL41      -0.1245
     29  CA        38.0510   36.5640  114.7440 C.3    41  VAL41       0.1561
     30  C         37.9980   35.0500  114.7220 C.2    41  VAL41       0.2260
     31  O         38.5550   34.4000  115.5870 O.2    41  VAL41      -0.2867
     32  CB        39.4760   37.0010  114.4040 C.3    41  VAL41       0.0252
     33  CG1       39.9820   36.2600  113.1710 C.3    41  VAL41       0.0019
     34  CG2       39.5210   38.4890  114.1650 C.3    41  VAL41       0.0019
     35  N         37.3870   38.8350  106.3810 N.3    54  PHE54      -0.1241
     36  CA        37.3020   38.4430  107.7770 C.3    54  PHE54       0.1605
     37  C         36.1000   37.5560  108.0170 C.2    54  PHE54       0.2264
     38  O         35.0470   37.7730  107.4260 O.2    54  PHE54      -0.2867
     39  CB        37.1490   39.6880  108.6400 C.3    54  PHE54       0.0534
     40  CG        38.3990   40.5060  108.7440 C.ar   54  PHE54      -0.0203
     41  CD1       38.7200   41.4320  107.7640 C.ar   54  PHE54      -0.0042
     42  CD2       39.2510   40.3530  109.8340 C.ar   54  PHE54      -0.0042
     43  CE1       39.8740   42.1780  107.8710 C.ar   54  PHE54      -0.0003
     44  CE2       40.4020   41.1000  109.9500 C.ar   54  PHE54      -0.0003
     45  CZ        40.7240   42.0120  108.9600 C.ar   54  PHE54      -0.0000
     46  N         33.9860   36.6830  111.4340 N.3    56  LEU56      -0.1245
     47  CA        33.9410   37.1900  112.7930 C.3    56  LEU56       0.1561
     48  C         32.6840   36.7620  113.5360 C.2    56  LEU56       0.2260
     49  O         31.7450   36.2240  112.9380 O.2    56  LEU56      -0.2867
     50  CB        34.0270   38.7300  112.7750 C.3    56  LEU56       0.0270
     51  CG        35.2050   39.3800  112.0200 C.3    56  LEU56       0.0019
     52  CD1       35.0050   40.8720  111.7940 C.3    56  LEU56       0.0001
     53  CD2       36.5260   39.1090  112.7250 C.3    56  LEU56       0.0001
     54  N         29.9760   38.3770  116.6840 N.3    58  LYS58      -0.1245
     55  CA        29.5650   39.5430  117.4590 C.3    58  LYS58       0.1561
     56  C         28.3530   39.1950  118.3160 C.2    58  LYS58       0.2260
     57  O         27.4510   38.5030  117.8770 O.2    58  LYS58      -0.2867
     58  CB        29.2230   40.6950  116.5180 C.3    58  LYS58       0.0271
     59  CG        28.9510   42.0400  117.1930 C.3    58  LYS58       0.0035
     60  CD        30.2320   42.7090  117.6470 C.3    58  LYS58       0.0206
     61  CE        30.0380   44.1590  118.0820 C.3    58  LYS58       0.1093
     62  NZ        29.2350   44.3430  119.3240 N.3    58  LYS58      -0.1314
     63  N         29.4560   36.8960  110.9870 N.3    67  LYS67      -0.1245
     64  CA        29.5980   37.9580  110.0010 C.3    67  LYS67       0.1561
     65  C         30.7930   37.7370  109.0990 C.2    67  LYS67       0.2260
     66  O         31.7390   37.0220  109.4410 O.2    67  LYS67      -0.2867
     67  CB        29.7370   39.3190  110.6840 C.3    67  LYS67       0.0271
     68  CG        28.4140   39.9620  111.0530 C.3    67  LYS67       0.0035
     69  CD        28.5950   41.4240  111.4340 C.3    67  LYS67       0.0206
     70  CE        27.3710   41.9670  112.1610 C.3    67  LYS67       0.1093
     71  NZ        27.0780   41.2610  113.4380 N.3    67  LYS67      -0.1314
     72  N         33.3000   40.3100  106.5650 N.3    69  ILE69      -0.1245
     73  CA        33.6010   41.6550  106.0370 C.3    69  ILE69       0.1561
     74  C         34.8380   41.5840  105.1550 C.2    69  ILE69       0.2260
     75  O         35.7620   40.8300  105.4320 O.2    69  ILE69      -0.2867
     76  CB        33.7360   42.7440  107.1400 C.3    69  ILE69       0.0252
     77  CG1       33.9200   44.1480  106.5280 C.3    69  ILE69       0.0019
     78  CG2       34.8770   42.4340  108.0910 C.3    69  ILE69       0.0019
     79  CD1       32.7140   44.6750  105.7590 C.3    69  ILE69       0.0001
     80  N         37.7390   49.3570  104.2070 N.3    82  ILE82      -0.1245
     81  CA        36.4010   48.7720  104.2460 C.3    82  ILE82       0.1561
     82  C         35.4190   49.8870  103.9680 C.2    82  ILE82       0.2260
     83  O         35.5900   50.9930  104.4810 O.2    82  ILE82      -0.2867
     84  CB        36.0790   48.1650  105.6250 C.3    82  ILE82       0.0252
     85  CG1       37.0980   47.0880  106.0070 C.3    82  ILE82       0.0019
     86  CG2       34.6920   47.5520  105.6260 C.3    82  ILE82       0.0019
     87  CD1       37.2040   46.8430  107.4960 C.3    82  ILE82       0.0001
     88  N         37.4350   53.3320  106.8270 N.3    88  ASN88      -0.1225
     89  CA        37.9260   52.4200  107.8320 C.3    88  ASN88       0.1785
     90  C         39.1500   51.7070  107.3140 C.2    88  ASN88       0.2597
     91  O         39.0580   50.9290  106.3720 O.2    88  ASN88      -0.2718
     92  CB        36.8350   51.4380  108.2370 C.3    88  ASN88       0.1169
     93  CG        35.8260   52.0530  109.1930 C.2    88  ASN88       0.2627
     94  OD1       34.6260   52.0680  108.9280 O.2    88  ASN88      -0.2716
     95  ND2       36.3110   52.5730  110.3060 N.am   88  ASN88      -0.0877
     96  N         40.3010   52.0030  107.9200 N.am   89  LYS89      -0.1966
     97  CA        41.5620   51.3700  107.5670 C.3    89  LYS89       0.1728
     98  C         41.9050   50.2110  108.5160 C.2    89  LYS89       0.2616
     99  O         41.7410   50.3230  109.7310 O.2    89  LYS89      -0.2715
    100  CB        42.6860   52.4060  107.5830 C.3    89  LYS89       0.0311
    101  CG        42.7450   53.3090  106.3510 C.3    89  LYS89       0.0038
    102  CD        42.8790   54.7870  106.7540 C.3    89  LYS89       0.0206
    103  CE        42.9800   55.7250  105.5530 C.3    89  LYS89       0.1093
    104  NZ        42.9820   57.1680  105.9240 N.3    89  LYS89      -0.1314
    105  N         42.3680   49.1000  107.9440 N.am   90  VAL90      -0.1977
    106  CA        42.9300   47.9610  108.6880 C.3    90  VAL90       0.1596
    107  C         44.4250   47.9680  108.4460 C.2    90  VAL90       0.2287
    108  O         44.8340   48.0680  107.3030 O.2    90  VAL90      -0.2864
    109  CB        42.3770   46.6140  108.1530 C.3    90  VAL90       0.0276
    110  CG1       43.2030   45.4270  108.6650 C.3    90  VAL90       0.0022
    111  CG2       40.8800   46.4650  108.4860 C.3    90  VAL90       0.0022
    112  N         47.1820   43.4630  114.4990 N.3   103  PHE103     -0.1241
    113  CA        46.5320   44.4200  113.5980 C.3   103  PHE103      0.1605
    114  C         45.6450   45.4520  114.3260 C.2   103  PHE103      0.2264
    115  O         45.2030   45.2390  115.4470 O.2   103  PHE103     -0.2867
    116  CB        45.7220   43.6980  112.5060 C.3   103  PHE103      0.0534
    117  CG        44.4070   43.1890  112.9740 C.ar  103  PHE103     -0.0203
    118  CD1       44.3170   41.9780  113.6480 C.ar  103  PHE103     -0.0042
    119  CD2       43.2590   43.9290  112.7880 C.ar  103  PHE103     -0.0042
    120  CE1       43.0930   41.5100  114.1310 C.ar  103  PHE103     -0.0003
    121  CE2       42.0330   43.4530  113.2450 C.ar  103  PHE103     -0.0003
    122  CZ        41.9520   42.2400  113.9200 C.ar  103  PHE103     -0.0000
    123  N         42.3770   48.4490  113.6920 N.3   105  MET105     -0.1230
    124  CA        41.2790   48.9930  112.8900 C.3   105  MET105      0.1702
    125  C         41.2400   50.4620  113.3150 C.2   105  MET105      0.2592
    126  O         41.3490   50.7470  114.5140 O.2   105  MET105     -0.2718
    127  CB        39.9870   48.2510  113.2070 C.3   105  MET105      0.0401
    128  CG        40.1390   46.7220  113.1810 C.3   105  MET105      0.0596
    129  SD        39.0340   45.7880  114.2760 S.3   105  MET105     -0.1393
    130  CE        39.9810   45.7290  115.7950 C.3   105  MET105      0.0692
    131  N         41.2070   51.3850  112.3400 N.am  106  GLU106     -0.1966
    132  CA        41.1910   52.8310  112.6210 C.3   106  GLU106      0.1733
    133  C         40.3150   53.5920  111.6230 C.2   106  GLU106      0.2616
    134  O         40.0600   53.0890  110.5520 O.2   106  GLU106     -0.2715
    135  CB        42.6350   53.4020  112.7130 C.3   106  GLU106      0.0429
    136  CG        43.1350   54.2670  111.5600 C.3   106  GLU106      0.1163
    137  CD        44.4630   54.9670  111.8530 C.2   106  GLU106      0.3649
    138  OE1       44.7620   55.3160  113.0220 O.co2 106  GLU106     -0.2457
    139  OE2       45.2230   55.1880  110.8880 O.co2 106  GLU106     -0.2457
    140  N         39.8450   54.7850  111.9950 N.am  107  ASN107     -0.1972
    141  CA        38.9530   55.5910  111.1300 C.3   107  ASN107      0.1688
    142  C         39.3380   57.1000  111.0170 C.2   107  ASN107      0.2292
    143  O         40.5050   57.4540  111.1950 O.2   107  ASN107     -0.2864
    144  CB        37.4950   55.3780  111.5690 C.3   107  ASN107      0.1181
    145  CG        37.1640   56.0670  112.8760 C.2   107  ASN107      0.2629
    146  OD1       37.9780   56.8090  113.4350 O.2   107  ASN107     -0.2716
    147  ND2       35.9690   55.8200  113.3790 N.am  107  ASN107     -0.0877
    148  N         38.8640   57.2660  116.5050 N.3   110  SER110     -0.1202
    149  CA        38.8170   55.9610  117.2050 C.3   110  SER110      0.2020
    150  C         39.7700   54.9090  116.6370 C.2   110  SER110      0.2619
    151  O         39.9950   54.8720  115.4340 O.2   110  SER110     -0.2717
    152  CB        37.3970   55.3660  117.1490 C.3   110  SER110      0.2103
    153  OG        36.3850   56.3530  117.3060 O.3   110  SER110     -0.2182
    154  N         40.2560   54.0190  117.5100 N.am  111  LEU111     -0.1965
    155  CA        41.2880   53.0120  117.1790 C.3   111  LEU111      0.1728
    156  C         41.2040   51.7630  118.0690 C.2   111  LEU111      0.2616
    157  O         41.2010   51.8750  119.2910 O.2   111  LEU111     -0.2715
    158  CB        42.6670   53.6510  117.3710 C.3   111  LEU111      0.0311
    159  CG        43.9370   52.7920  117.4460 C.3   111  LEU111      0.0022
    160  CD1       44.2780   52.1870  116.0970 C.3   111  LEU111      0.0001
    161  CD2       45.1240   53.6110  117.9480 C.3   111  LEU111      0.0001
    162  N         41.1620   50.5770  117.4730 N.am  112  ALA112     -0.1977
    163  CA        41.3240   49.3390  118.2550 C.3   112  ALA112      0.1597
    164  C         42.3710   48.4430  117.6250 C.2   112  ALA112      0.2287
    165  O         42.6220   48.5600  116.4270 O.2   112  ALA112     -0.2864
    166  CB        40.0020   48.6020  118.3590 C.3   112  ALA112      0.0319
@<TRIPOS>BOND
     1    82    81    1
     2    82    83    2
     3    80    81    1
     4    81    84    1
     5    74    75    2
     6    74    73    1
     7   103   104    1
     8   103   102    1
     9    84    86    1
    10    84    85    1
    11    79    77    1
    12    85    87    1
    13    73    72    1
    14    73    76    1
    15   101   102    1
    16   101   100    1
    17    91    90    2
    18    35    36    1
    19    77    76    1
    20    88    89    1
    21    76    78    1
    22   108   107    2
    23    90    89    1
    24    90    96   am
    25    38    37    2
    26    97   100    1
    27    97    96    1
    28    97    98    1
    29    41    43   ar
    30    41    40   ar
    31    36    37    1
    32    36    39    1
    33    89    92    1
    34    43    45   ar
    35   105    98   am
    36   105   106    1
    37   109   111    1
    38   109   110    1
    39   109   106    1
    40    92    93    1
    41   107   106    1
    42    98    99    2
    43    39    40    1
    44    40    42   ar
    45    94    93    2
    46    45    44   ar
    47    65    66    2
    48    65    64    1
    49    93    95   am
    50    42    44   ar
    51    64    67    1
    52    64    63    1
    53   134   133    2
    54    67    68    1
    55   139   137   ar
    56   142   141    1
    57   142   143    2
    58    68    69    1
    59   141   144    1
    60   141   140    1
    61    69    70    1
    62    46    47    1
    63   136   137    1
    64   136   135    1
    65   144   145    1
    66   133   140   am
    67   133   132    1
    68    52    51    1
    69   137   138   ar
    70    51    53    1
    71    51    50    1
    72    70    71    1
    73   131   132    1
    74   131   125   am
    75   116   117    1
    76   116   113    1
    77   132   135    1
    78    50    47    1
    79   119   117   ar
    80   119   121   ar
    81    47    48    1
    82   145   147   am
    83   145   146    2
    84   124   127    1
    85   124   125    1
    86   124   123    1
    87    49    48    2
    88   117   118   ar
    89    33    32    1
    90   128   127    1
    91   128   129    1
    92   121   122   ar
    93   125   126    2
    94   113   114    1
    95   113   112    1
    96   118   120   ar
    97   122   120   ar
    98    34    32    1
    99   129   130    1
   100   114   115    2
   101    32    29    1
   102    30    29    1
   103    30    31    2
   104    29    28    1
   105   151   150    2
   106    27    25    1
   107   160   159    1
   108    25    26    1
   109    25    22    1
   110   165   164    2
   111   148   149    1
   112    58    59    1
   113    58    55    1
   114   150   149    1
   115   150   154   am
   116    54    55    1
   117   152   149    1
   118   152   153    1
   119   155   158    1
   120   155   154    1
   121   155   156    1
   122    59    60    1
   123    12    11    2
   124   158   159    1
   125   159   161    1
   126    55    56    1
   127   162   156   am
   128   162   163    1
   129    23    22    1
   130    23    24    2
   131    22    21    1
   132   164   163    1
   133    60    61    1
   134    57    56    2
   135   156   157    2
   136    61    62    1
   137   163   166    1
   138    11    10    1
   139    11    16   am
   140    13    10    1
   141    13    14    1
   142    17    16    1
   143    17    20    1
   144    17    18    1
   145    10     9    1
   146    19    18    2
   147    14    15    1
   148     8     6    1
   149     9    15    1
   150     7     6    1
   151     6     5    1
   152     5     2    1
   153     4     3    2
   154     2     3    1
   155     2     1    1
