@<TRIPOS>MOLECULE
tmp/5nuoE03.pdb
 88 80 0 0 0
SMALL
GASTEIGER

@<TRIPOS>ATOM
      1  N        -16.7720   16.2100  -89.5340 N.3    48  GLU48      -0.1245
      2  CA       -16.2640   15.7150  -90.8060 C.3    48  GLU48       0.1567
      3  C        -15.0200   14.8990  -90.5190 C.2    48  GLU48       0.2260
      4  O        -14.0470   15.4330  -89.9870 O.2    48  GLU48      -0.2867
      5  CB       -15.9480   16.8790  -91.7320 C.3    48  GLU48       0.0388
      6  CG       -15.1320   16.5230  -92.9430 C.3    48  GLU48       0.1160
      7  CD       -14.9130   17.7050  -93.8570 C.2    48  GLU48       0.3649
      8  OE1      -15.8520   18.5180  -94.0070 O.co2  48  GLU48      -0.2457
      9  OE2      -13.7830   17.8340  -94.3840 O.co2  48  GLU48      -0.2457
     10  N        -12.0120   12.2220  -92.0150 N.3    50  GLN50      -0.1245
     11  CA       -11.3280   11.6920  -93.1880 C.3    50  GLN50       0.1566
     12  C        -11.0870   10.2190  -92.9020 C.2    50  GLN50       0.2260
     13  O        -10.1160    9.8580  -92.2400 O.2    50  GLN50      -0.2867
     14  CB       -10.0150   12.4330  -93.4380 C.3    50  GLN50       0.0367
     15  CG        -9.4320   12.4280  -94.8810 C.3    50  GLN50       0.0905
     16  CD       -10.4250   12.7810  -95.9830 C.2    50  GLN50       0.2608
     17  OE1      -11.2570   11.9630  -96.3720 O.2    50  GLN50      -0.2717
     18  NE2      -10.3190   13.9980  -96.5080 N.am   50  GLN50      -0.0878
     19  N        -15.0340   10.3940  -96.7580 N.3    56  THR56      -0.1218
     20  CA       -15.2060   11.4020  -95.7280 C.3    56  THR56       0.1862
     21  C        -16.5860   11.2060  -95.1370 C.2    56  THR56       0.2287
     22  O        -17.5920   11.4090  -95.8160 O.2    56  THR56      -0.2866
     23  CB       -15.0560   12.8040  -96.2990 C.3    56  THR56       0.1770
     24  OG1      -13.7630   12.9400  -96.8960 O.3    56  THR56      -0.2211
     25  CG2      -15.2590   13.8300  -95.2290 C.3    56  THR56       0.0375
     26  N        -19.4470   12.4700  -92.4480 N.3    58  TYR58      -0.1241
     27  CA       -19.8270   13.7750  -91.9410 C.3    58  TYR58       0.1605
     28  C        -21.1550   13.6890  -91.2090 C.2    58  TYR58       0.2264
     29  O        -21.9620   12.7910  -91.4430 O.2    58  TYR58      -0.2867
     30  CB       -19.9050   14.8080  -93.0710 C.3    58  TYR58       0.0534
     31  CG       -20.8010   14.4440  -94.2400 C.ar   58  TYR58      -0.0201
     32  CD1      -22.1140   14.8890  -94.2950 C.ar   58  TYR58      -0.0009
     33  CD2      -20.3470   13.6510  -95.2780 C.ar   58  TYR58      -0.0009
     34  CE1      -22.9420   14.5670  -95.3530 C.ar   58  TYR58       0.0417
     35  CE2      -21.1750   13.3250  -96.3400 C.ar   58  TYR58       0.0417
     36  CZ       -22.4670   13.7880  -96.3700 C.ar   58  TYR58       0.1957
     37  OH       -23.2910   13.4660  -97.4200 O.3    58  TYR58      -0.2866
     38  N        -28.4510   15.5210  -89.3480 N.3    85  PHE85      -0.1241
     39  CA       -28.2490   14.4660  -90.3250 C.3    85  PHE85       0.1605
     40  C        -26.7930   14.0410  -90.2870 C.2    85  PHE85       0.2264
     41  O        -25.9260   14.7840  -89.8300 O.2    85  PHE85      -0.2867
     42  CB       -28.6060   14.9170  -91.7450 C.3    85  PHE85       0.0534
     43  CG       -27.7450   16.0370  -92.2720 C.ar   85  PHE85      -0.0203
     44  CD1      -26.5270   15.7650  -92.8660 C.ar   85  PHE85      -0.0042
     45  CD2      -28.1480   17.3480  -92.1780 C.ar   85  PHE85      -0.0042
     46  CE1      -25.7330   16.7690  -93.3470 C.ar   85  PHE85      -0.0003
     47  CE2      -27.3540   18.3590  -92.6580 C.ar   85  PHE85      -0.0003
     48  CZ       -26.1480   18.0660  -93.2470 C.ar   85  PHE85      -0.0000
     49  N        -19.3140   10.6780  -97.9660 N.3    89  LYS89      -0.1245
     50  CA       -18.8780   11.2690  -99.2280 C.3    89  LYS89       0.1561
     51  C        -17.7650   10.4340  -99.8700 C.2    89  LYS89       0.2260
     52  O        -16.7710   10.1220  -99.2130 O.2    89  LYS89      -0.2867
     53  CB       -18.4470   12.7170  -98.9860 C.3    89  LYS89       0.0271
     54  CG       -17.9560   13.4640 -100.1970 C.3    89  LYS89       0.0035
     55  CD       -18.2100   14.9630 -100.0470 C.3    89  LYS89       0.0206
     56  CE       -17.9800   15.7100 -101.3590 C.3    89  LYS89       0.1093
     57  NZ       -17.3400   17.0600 -101.2150 N.3    89  LYS89      -0.1314
     58  N        -22.1220   11.8390 -102.7540 N.3    95  SER95      -0.1217
     59  CA       -22.2930   11.9800 -101.3200 C.3    95  SER95       0.1889
     60  C        -23.6700   11.4630 -100.9700 C.2    95  SER95       0.2288
     61  O        -24.5630   11.4160 -101.8120 O.2    95  SER95      -0.2866
     62  CB       -22.1630   13.4280 -100.8510 C.3    95  SER95       0.2089
     63  OG       -23.3130   14.1650 -101.2010 O.3    95  SER95      -0.2183
     64  N        -26.4320   11.4940  -97.5190 N.3    97  ASP97      -0.1239
     65  CA       -26.7290   11.8260  -96.1430 C.3    97  ASP97       0.1674
     66  C        -28.2220   11.7140  -95.9030 C.2    97  ASP97       0.2266
     67  O        -29.0270   12.0550  -96.7710 O.2    97  ASP97      -0.2867
     68  CB       -26.2240   13.2230  -95.7800 C.3    97  ASP97       0.1410
     69  CG       -26.4700   14.2440  -96.8650 C.2    97  ASP97       0.3668
     70  OD1      -26.2250   13.9500  -98.0470 O.co2  97  ASP97      -0.2456
     71  OD2      -26.8800   15.3660  -96.5160 O.co2  97  ASP97      -0.2456
     72  N        -26.1030   13.3330 -103.8580 N.3   140  ARG140     -0.1245
     73  CA       -25.6200   14.4790 -104.6030 C.3   140  ARG140      0.1563
     74  C        -24.2960   14.1260 -105.2440 C.2   140  ARG140      0.2260
     75  O        -23.5110   13.3520 -104.6990 O.2   140  ARG140     -0.2867
     76  CB       -25.4210   15.7020 -103.7340 C.3   140  ARG140      0.0307
     77  CG       -26.2840   15.7620 -102.5160 C.3   140  ARG140      0.0489
     78  CD       -26.1790   17.1300 -101.9260 C.3   140  ARG140      0.2205
     79  NE       -27.0900   18.0570 -102.5640 N.pl3 140  ARG140     -0.0865
     80  CZ       -28.1520   18.5520 -101.9560 C.cat 140  ARG140      0.5346
     81  NH1      -28.4030   18.2100 -100.7020 N.pl3 140  ARG140      0.1354
     82  NH2      -28.9440   19.3970 -102.5940 N.pl3 140  ARG140      0.1354
     83  N        -21.1120   16.2570 -107.4060 N.3   142  SER142     -0.1217
     84  CA       -20.5110   17.4820 -107.9050 C.3   142  SER142      0.1889
     85  C        -19.5060   17.1900 -109.0110 C.2   142  SER142      0.2288
     86  O        -18.7630   16.2060 -108.9530 O.2   142  SER142     -0.2866
     87  CB       -19.8410   18.2430 -106.7680 C.3   142  SER142      0.2089
     88  OG       -20.8120   19.0220 -106.1060 O.3   142  SER142     -0.2183
@<TRIPOS>BOND
     1    85    86    2
     2    85    84    1
     3    84    83    1
     4    84    87    1
     5    87    88    1
     6    74    75    2
     7    74    73    1
     8    73    72    1
     9    73    76    1
    10    76    77    1
    11    58    59    1
    12    82    80    1
    13    79    80    2
    14    79    78    1
    15    77    78    1
    16    80    81    1
    17    61    60    2
    18    56    57    1
    19    56    55    1
    20    59    60    1
    21    59    62    1
    22    63    62    1
    23    54    55    1
    24    54    53    1
    25    51    50    1
    26    51    52    2
    27    50    53    1
    28    50    49    1
    29    70    69   ar
    30    64    65    1
    31    37    36    1
    32    24    23    1
    33    69    71   ar
    34    69    68    1
    35    67    66    2
    36    19    20    1
    37    18    16   am
    38    17    16    2
    39    36    35   ar
    40    36    34   ar
    41    35    33   ar
    42    23    20    1
    43    23    25    1
    44    65    66    1
    45    65    68    1
    46    16    15    1
    47    22    21    2
    48    20    21    1
    49    34    32   ar
    50    33    31   ar
    51    15    14    1
    52     9     7   ar
    53    32    31   ar
    54    31    30    1
    55     8     7   ar
    56     7     6    1
    57    14    11    1
    58    46    48   ar
    59    46    44   ar
    60    48    47   ar
    61    11    12    1
    62    11    10    1
    63    30    27    1
    64     6     5    1
    65    12    13    2
    66    44    43   ar
    67    47    45   ar
    68    26    27    1
    69    43    45   ar
    70    43    42    1
    71    27    28    1
    72    42    39    1
    73     5     2    1
    74    29    28    2
    75     2     3    1
    76     2     1    1
    77     3     4    2
    78    39    40    1
    79    39    38    1
    80    40    41    2
