@<TRIPOS>MOLECULE
tmp/5nuoA02.pdb
 71 67 0 0 0
SMALL
GASTEIGER

@<TRIPOS>ATOM
      1  N        -12.8210   28.2440  -47.4890 N.3   269  LEU269     -0.1245
      2  CA       -14.2300   28.4590  -47.2070 C.3   269  LEU269      0.1561
      3  C        -14.5700   29.9380  -47.3130 C.2   269  LEU269      0.2260
      4  O        -13.8060   30.7930  -46.8650 O.2   269  LEU269     -0.2867
      5  CB       -14.5820   27.9400  -45.8130 C.3   269  LEU269      0.0270
      6  CG       -16.0590   27.7240  -45.4690 C.3   269  LEU269      0.0019
      7  CD1      -16.6240   26.4720  -46.1060 C.3   269  LEU269      0.0001
      8  CD2      -16.2920   27.7240  -43.9890 C.3   269  LEU269      0.0001
      9  N        -17.5850   31.6940  -45.9220 N.3   271  PRO271     -0.2102
     10  CA       -18.8490   31.7750  -45.1920 C.3   271  PRO271      0.1504
     11  C        -19.5820   33.0470  -45.5660 C.2   271  PRO271      0.2576
     12  O        -18.9930   33.9850  -46.0990 O.2   271  PRO271     -0.2718
     13  CB       -18.4200   31.7970  -43.7250 C.3   271  PRO271      0.0282
     14  CG       -17.0030   32.2680  -43.7640 C.3   271  PRO271      0.0208
     15  CD       -16.4280   31.7260  -45.0170 C.3   271  PRO271      0.0893
     16  N        -20.8960   33.0500  -45.3380 N.am  272  SER272     -0.1938
     17  CA       -21.7160   34.2200  -45.6220 C.3   272  SER272      0.2055
     18  C        -22.8920   34.2820  -44.6590 C.2   272  SER272      0.2642
     19  O        -23.5090   33.2590  -44.3690 O.2   272  SER272     -0.2714
     20  CB       -22.2260   34.2130  -47.0680 C.3   272  SER272      0.2130
     21  OG       -23.5590   33.7550  -47.1690 O.3   272  SER272     -0.2179
     22  N        -23.2050   35.4870  -44.1730 N.am  273  ILE273     -0.1977
     23  CA       -24.4420   35.7320  -43.4390 C.3   273  ILE273      0.1596
     24  C        -25.1460   36.8810  -44.1360 C.2   273  ILE273      0.2287
     25  O        -24.5030   37.7890  -44.6630 O.2   273  ILE273     -0.2864
     26  CB       -24.2640   36.0940  -41.9520 C.3   273  ILE273      0.0276
     27  CG1      -23.2980   37.2660  -41.7800 C.3   273  ILE273      0.0022
     28  CG2      -23.8310   34.8730  -41.1680 C.3   273  ILE273      0.0022
     29  CD1      -23.2220   37.7840  -40.3520 C.3   273  ILE273      0.0001
     30  N        -27.4920   32.1060  -42.9300 N.3   297  VAL297     -0.1231
     31  CA       -26.1190   31.7070  -42.6810 C.3   297  VAL297      0.1692
     32  C        -25.7900   30.6280  -43.7020 C.2   297  VAL297      0.2593
     33  O        -26.6010   29.7290  -43.9420 O.2   297  VAL297     -0.2718
     34  CB       -25.9050   31.2230  -41.2390 C.3   297  VAL297      0.0266
     35  CG1      -26.6990   29.9610  -40.9440 C.3   297  VAL297      0.0020
     36  CG2      -24.4500   31.0810  -40.9520 C.3   297  VAL297      0.0020
     37  N        -24.6450   30.7710  -44.3620 N.am  298  GLY298     -0.1942
     38  CA       -24.2360   29.8480  -45.4040 C.3   298  GLY298      0.2014
     39  C        -22.7390   29.8790  -45.5840 C.2   298  GLY298      0.2638
     40  O        -22.0400   30.7340  -45.0400 O.2   298  GLY298     -0.2714
     41  N        -22.2490   28.9280  -46.3650 N.am  299  ALA299     -0.1977
     42  CA       -20.8230   28.8730  -46.6290 C.3   299  ALA299      0.1597
     43  C        -20.5970   28.1580  -47.9470 C.2   299  ALA299      0.2287
     44  O        -21.4050   27.3300  -48.3680 O.2   299  ALA299     -0.2864
     45  CB       -20.0600   28.1780  -45.5000 C.3   299  ALA299      0.0319
     46  N        -23.4500   25.0280  -48.7200 N.3   311  VAL311     -0.1245
     47  CA       -24.6850   24.8920  -47.9690 C.3   311  VAL311      0.1561
     48  C        -25.2290   26.3000  -47.7870 C.2   311  VAL311      0.2260
     49  O        -24.4540   27.2550  -47.6960 O.2   311  VAL311     -0.2867
     50  CB       -24.4430   24.1700  -46.6240 C.3   311  VAL311      0.0252
     51  CG1      -23.2970   24.8070  -45.8660 C.3   311  VAL311      0.0019
     52  CG2      -25.6920   24.1280  -45.7760 C.3   311  VAL311      0.0019
     53  N        -28.4750   28.0840  -45.7470 N.3   313  TYR313     -0.1241
     54  CA       -29.5860   27.9380  -44.8150 C.3   313  TYR313      0.1605
     55  C        -30.3360   29.2560  -44.6960 C.2   313  TYR313      0.2264
     56  O        -29.7380   30.2880  -44.3840 O.2   313  TYR313     -0.2867
     57  CB       -29.1020   27.4950  -43.4370 C.3   313  TYR313      0.0534
     58  CG       -30.2440   27.1470  -42.5200 C.ar  313  TYR313     -0.0201
     59  CD1      -30.8690   25.9240  -42.6020 C.ar  313  TYR313     -0.0009
     60  CD2      -30.7370   28.0620  -41.6170 C.ar  313  TYR313     -0.0009
     61  CE1      -31.9220   25.6070  -41.7840 C.ar  313  TYR313      0.0417
     62  CE2      -31.7960   27.7520  -40.7940 C.ar  313  TYR313      0.0417
     63  CZ       -32.3820   26.5290  -40.8860 C.ar  313  TYR313      0.1957
     64  OH       -33.4360   26.2270  -40.0670 O.3   313  TYR313     -0.2866
     65  N        -33.0340   24.8100  -46.4910 N.3   332  VAL332     -0.1245
     66  CA       -31.5860   24.6710  -46.5210 C.3   332  VAL332      0.1561
     67  C        -31.2320   23.9240  -47.7940 C.2   332  VAL332      0.2260
     68  O        -31.8640   22.9210  -48.1340 O.2   332  VAL332     -0.2867
     69  CB       -31.0270   23.9420  -45.2790 C.3   332  VAL332      0.0252
     70  CG1      -31.5870   22.5470  -45.1290 C.3   332  VAL332      0.0019
     71  CG2      -29.5180   23.9320  -45.2790 C.3   332  VAL332      0.0019
@<TRIPOS>BOND
     1    46    47    1
     2    44    43    2
     3    68    67    2
     4    47    48    1
     5    47    50    1
     6    43    42    1
     7    67    66    1
     8    48    49    2
     9     1     2    1
    10     3     2    1
    11     3     4    2
    12     2     5    1
    13    21    20    1
    14    20    17    1
    15    42    41    1
    16    42    45    1
    17    50    51    1
    18    50    52    1
    19    66    65    1
    20    66    69    1
    21    41    39   am
    22     7     6    1
    23    12    11    2
    24     9    10    1
    25     9    15    1
    26     5     6    1
    27    53    54    1
    28    17    16    1
    29    17    18    1
    30    39    38    1
    31    39    40    2
    32    11    16   am
    33    11    10    1
    34     6     8    1
    35    38    37    1
    36    69    71    1
    37    69    70    1
    38    10    13    1
    39    15    14    1
    40    54    55    1
    41    54    57    1
    42    55    56    2
    43    25    24    2
    44    18    19    2
    45    18    22   am
    46    37    32   am
    47    22    23    1
    48    24    23    1
    49    33    32    2
    50    14    13    1
    51    32    31    1
    52    23    26    1
    53    57    58    1
    54    30    31    1
    55    31    34    1
    56    59    58   ar
    57    59    61   ar
    58    58    60   ar
    59    26    27    1
    60    26    28    1
    61    61    63   ar
    62    27    29    1
    63    60    62   ar
    64    34    36    1
    65    34    35    1
    66    63    62   ar
    67    63    64    1
