@<TRIPOS>MOLECULE
tmp/5nuoF00.pdb
 83 79 0 0 0
SMALL
GASTEIGER

@<TRIPOS>ATOM
      1  N        -16.5170   69.8720  -71.8480 N.3    37  PRO37      -0.2116
      2  CA       -15.4800   68.8440  -71.9460 C.3    37  PRO37       0.1372
      3  C        -15.4830   68.1670  -73.3090 C.2    37  PRO37       0.2244
      4  O        -16.4750   68.1700  -74.0350 O.2    37  PRO37      -0.2868
      5  CB       -15.8340   67.8670  -70.8150 C.3    37  PRO37       0.0268
      6  CG       -17.1890   68.3750  -70.2230 C.3    37  PRO37       0.0207
      7  CD       -17.7290   69.3660  -71.1890 C.3    37  PRO37       0.0892
      8  N        -15.2720   64.8910  -74.6690 N.3    39  PRO39      -0.2102
      9  CA       -16.3250   63.9400  -75.0510 C.3    39  PRO39       0.1504
     10  C        -17.6370   64.6200  -75.3820 C.2    39  PRO39       0.2575
     11  O        -18.3030   64.2230  -76.3420 O.2    39  PRO39      -0.2718
     12  CB       -16.4320   63.0430  -73.8190 C.3    39  PRO39       0.0282
     13  CG       -15.0680   63.0390  -73.2670 C.3    39  PRO39       0.0208
     14  CD       -14.4950   64.3930  -73.5200 C.3    39  PRO39       0.0893
     15  N        -17.9730   65.6990  -74.6720 N.am   40  ALA40      -0.1980
     16  CA       -19.2050   66.4250  -74.9560 C.3    40  ALA40       0.1597
     17  C        -19.1220   67.1390  -76.2950 C.2    40  ALA40       0.2287
     18  O        -20.1040   67.1840  -77.0410 O.2    40  ALA40      -0.2864
     19  CB       -19.5030   67.4150  -73.8330 C.3    40  ALA40       0.0319
     20  N        -17.1360   66.4090  -79.0460 N.3    42  ASN42      -0.1225
     21  CA       -17.1490   65.4760  -80.1660 C.3    42  ASN42       0.1785
     22  C        -18.4690   64.7350  -80.2940 C.2    42  ASN42       0.2598
     23  O        -18.8350   64.3320  -81.4010 O.2    42  ASN42      -0.2718
     24  CB       -16.0320   64.4490  -79.9890 C.3    42  ASN42       0.1169
     25  CG       -14.7270   65.0750  -79.5910 C.2    42  ASN42       0.2627
     26  OD1      -13.8200   65.2240  -80.4010 O.2    42  ASN42      -0.2716
     27  ND2      -14.6220   65.4470  -78.3310 N.am   42  ASN42      -0.0877
     28  N        -19.2230   64.6130  -79.2050 N.am   43  GLY43      -0.1942
     29  CA       -20.5500   64.0430  -79.3000 C.3    43  GLY43       0.2014
     30  C        -21.5280   64.9160  -80.0490 C.2    43  GLY43       0.2638
     31  O        -22.4000   64.4060  -80.7520 O.2    43  GLY43      -0.2714
     32  N        -21.3960   66.2330  -79.9300 N.am   44  LEU44      -0.1977
     33  CA       -22.3610   67.0960  -80.5940 C.3    44  LEU44       0.1596
     34  C        -22.0090   67.3280  -82.0530 C.2    44  LEU44       0.2287
     35  O        -22.8940   67.3440  -82.9100 O.2    44  LEU44      -0.2864
     36  CB       -22.4350   68.4470  -79.9130 C.3    44  LEU44       0.0297
     37  CG       -23.6660   68.7280  -79.0790 C.3    44  LEU44       0.0022
     38  CD1      -23.5400   67.9570  -77.7660 C.3    44  LEU44       0.0001
     39  CD2      -23.7680   70.2010  -78.8840 C.3    44  LEU44       0.0001
     40  N        -20.3690   65.3610  -84.0180 N.3    46  ASN46      -0.1240
     41  CA       -20.8240   64.1460  -84.6870 C.3    46  ASN46       0.1653
     42  C        -22.3370   64.1040  -84.7920 C.2    46  ASN46       0.2266
     43  O        -22.8870   63.6980  -85.8190 O.2    46  ASN46      -0.2867
     44  CB       -20.2790   62.9200  -83.9770 C.3    46  ASN46       0.1155
     45  CG       -18.9490   62.5190  -84.5220 C.2    46  ASN46       0.2627
     46  OD1      -18.7820   62.4280  -85.7370 O.2    46  ASN46      -0.2716
     47  ND2      -17.9670   62.3560  -83.6470 N.am   46  ASN46      -0.0877
     48  N        -24.1770   60.1510  -81.8250 N.3    87  LEU87      -0.1231
     49  CA       -23.2040   60.7530  -80.9200 C.3    87  LEU87       0.1693
     50  C        -21.8250   60.1420  -81.1080 C.2    87  LEU87       0.2592
     51  O        -20.8120   60.8220  -80.9260 O.2    87  LEU87      -0.2718
     52  CB       -23.6470   60.5990  -79.4640 C.3    87  LEU87       0.0284
     53  CG       -24.5660   61.6490  -78.8370 C.3    87  LEU87       0.0019
     54  CD1      -25.8000   61.7250  -79.6400 C.3    87  LEU87       0.0001
     55  CD2      -24.9220   61.3170  -77.4210 C.3    87  LEU87       0.0001
     56  N        -21.7740   58.8790  -81.5120 N.am   88  ILE88      -0.1966
     57  CA       -20.5520   58.0950  -81.5770 C.3    88  ILE88       0.1727
     58  C        -20.2730   57.7690  -83.0310 C.2    88  ILE88       0.2616
     59  O        -21.1520   57.2790  -83.7450 O.2    88  ILE88      -0.2715
     60  CB       -20.6900   56.8130  -80.7420 C.3    88  ILE88       0.0290
     61  CG1      -21.1810   57.1660  -79.3460 C.3    88  ILE88       0.0022
     62  CG2      -19.3990   56.0350  -80.7040 C.3    88  ILE88       0.0023
     63  CD1      -22.1100   56.1620  -78.7910 C.3    88  ILE88       0.0001
     64  N        -19.0510   58.0190  -83.4690 N.am   89  ASP89      -0.1971
     65  CA       -18.7230   57.7980  -84.8680 C.3    89  ASP89       0.1709
     66  C        -18.2890   56.3390  -85.0290 C.2    89  ASP89       0.2293
     67  O        -17.1260   56.0170  -85.2570 O.2    89  ASP89      -0.2864
     68  CB       -17.6610   58.7960  -85.3100 C.3    89  ASP89       0.1436
     69  CG       -17.6070   58.9630  -86.7970 C.2    89  ASP89       0.3671
     70  OD1      -18.6440   58.7170  -87.4350 O.co2  89  ASP89      -0.2456
     71  OD2      -16.5700   59.4180  -87.3170 O.co2  89  ASP89      -0.2456
     72  N        -16.6730   55.8750  -88.3030 N.3    92  GLY92      -0.1210
     73  CA       -15.3330   56.3870  -88.4900 C.3    92  GLY92       0.1956
     74  C        -14.3020   55.4810  -87.8510 C.2    92  GLY92       0.2611
     75  O        -13.3190   55.0990  -88.4840 O.2    92  GLY92      -0.2717
     76  N        -14.5760   55.0440  -86.6230 N.am   93  MET93      -0.1979
     77  CA       -13.8080   53.9980  -85.9670 C.3    93  MET93       0.1605
     78  C        -13.8140   52.6920  -86.7390 C.2    93  MET93       0.2287
     79  O        -12.9050   51.8830  -86.5570 O.2    93  MET93      -0.2864
     80  CB       -14.3850   53.7670  -84.5780 C.3    93  MET93       0.0413
     81  CG       -13.9940   54.8270  -83.5990 C.3    93  MET93       0.0598
     82  SD       -14.7120   54.5670  -81.9810 S.3    93  MET93      -0.1393
     83  CE       -16.4470   54.7630  -82.3640 C.3    93  MET93       0.0692
@<TRIPOS>BOND
     1    73    72    1
     2    73    74    1
     3    75    74    2
     4    74    76   am
     5    70    69   ar
     6    71    69   ar
     7    69    68    1
     8    78    79    2
     9    78    77    1
    10    76    77    1
    11    77    80    1
    12    43    42    2
    13    46    45    2
    14    68    65    1
    15    67    66    2
    16    66    65    1
    17    65    64    1
    18    42    41    1
    19    41    40    1
    20    41    44    1
    21    80    81    1
    22    45    44    1
    23    45    47   am
    24    59    58    2
    25    81    82    1
    26    64    58   am
    27    58    57    1
    28    35    34    2
    29    83    82    1
    30    34    33    1
    31    48    49    1
    32    57    56    1
    33    57    60    1
    34    56    50   am
    35    23    22    2
    36    50    51    2
    37    50    49    1
    38    49    52    1
    39    31    30    2
    40    60    62    1
    41    60    61    1
    42    33    32    1
    43    33    36    1
    44    26    25    2
    45    22    21    1
    46    22    28   am
    47    21    24    1
    48    21    20    1
    49    30    32   am
    50    30    29    1
    51    24    25    1
    52    36    37    1
    53    54    53    1
    54    25    27   am
    55    52    53    1
    56    61    63    1
    57    29    28    1
    58    37    39    1
    59    37    38    1
    60    53    55    1
    61    18    17    2
    62    11    10    2
    63    17    16    1
    64    10     9    1
    65    10    15   am
    66     9     8    1
    67     9    12    1
    68    16    15    1
    69    16    19    1
    70     8    14    1
    71     4     3    2
    72    12    13    1
    73    14    13    1
    74     3     2    1
    75     2     1    1
    76     2     5    1
    77     1     7    1
    78     7     6    1
    79     5     6    1
