@<TRIPOS>MOLECULE
tmp/5nuoB04.pdb
 138 134 0 0 0
SMALL
GASTEIGER

@<TRIPOS>ATOM
      1  N         -6.0960    1.7410  -11.1580 N.3    14  PHE14      -0.1241
      2  CA        -5.2120    1.5560  -12.2990 C.3    14  PHE14       0.1605
      3  C         -4.7430    0.1140  -12.4110 C.2    14  PHE14       0.2264
      4  O         -4.6200   -0.4120  -13.5200 O.2    14  PHE14      -0.2867
      5  CB        -4.0110    2.4910  -12.2140 C.3    14  PHE14       0.0534
      6  CG        -2.9490    2.1860  -13.2250 C.ar   14  PHE14      -0.0203
      7  CD1       -3.0590    2.6530  -14.5100 C.ar   14  PHE14      -0.0042
      8  CD2       -1.8310    1.4520  -12.8890 C.ar   14  PHE14      -0.0042
      9  CE1       -2.1010    2.3760  -15.4370 C.ar   14  PHE14      -0.0003
     10  CE2       -0.8610    1.1840  -13.8220 C.ar   14  PHE14      -0.0003
     11  CZ        -1.0000    1.6450  -15.0900 C.ar   14  PHE14      -0.0000
     12  N         -7.2240   -1.8590  -13.9400 N.3    17  ASN17      -0.1225
     13  CA        -7.2420   -1.6540  -15.3780 C.3    17  ASN17       0.1785
     14  C         -6.0080   -2.2480  -16.0510 C.2    17  ASN17       0.2597
     15  O         -6.1280   -2.9350  -17.0690 O.2    17  ASN17      -0.2718
     16  CB        -7.4310   -0.1680  -15.6800 C.3    17  ASN17       0.1169
     17  CG        -8.8380    0.3320  -15.3170 C.2    17  ASN17       0.2627
     18  OD1       -9.7880   -0.4460  -15.2070 O.2    17  ASN17      -0.2716
     19  ND2       -8.9660    1.6410  -15.1430 N.am   17  ASN17      -0.0877
     20  N         -4.8290   -2.0700  -15.4610 N.am   18  PHE18      -0.1976
     21  CA        -3.6070   -2.5560  -16.0910 C.3    18  PHE18       0.1639
     22  C         -3.5220   -4.0720  -16.0470 C.2    18  PHE18       0.2290
     23  O         -3.2410   -4.7180  -17.0600 O.2    18  PHE18      -0.2864
     24  CB        -2.3920   -1.9590  -15.3890 C.3    18  PHE18       0.0560
     25  CG        -1.1300   -1.9950  -16.1990 C.ar   18  PHE18      -0.0200
     26  CD1       -1.1670   -2.0310  -17.5710 C.ar   18  PHE18      -0.0042
     27  CD2        0.1020   -1.9840  -15.5690 C.ar   18  PHE18      -0.0042
     28  CE1       -0.0030   -2.0560  -18.2920 C.ar   18  PHE18      -0.0003
     29  CE2        1.2630   -2.0080  -16.2880 C.ar   18  PHE18      -0.0003
     30  CZ         1.2140   -2.0440  -17.6450 C.ar   18  PHE18      -0.0000
     31  N         -8.4400   -5.9800  -16.0270 N.3    21  VAL21      -0.1231
     32  CA        -9.4520   -5.7500  -17.0830 C.3    21  VAL21       0.1692
     33  C         -8.7910   -5.6280  -18.4560 C.2    21  VAL21       0.2592
     34  O         -9.4200   -5.9380  -19.4720 O.2    21  VAL21      -0.2718
     35  CB       -10.3590   -4.5130  -16.8670 C.3    21  VAL21       0.0266
     36  CG1       -9.5940   -3.2360  -16.9840 C.3    21  VAL21       0.0020
     37  CG2      -11.5100   -4.4970  -17.8670 C.3    21  VAL21       0.0020
     38  N         -7.5130   -5.2600  -18.5230 N.am   22  ASP22      -0.1974
     39  CA        -6.9100   -5.1950  -19.8510 C.3    22  ASP22       0.1709
     40  C         -6.5170   -6.5700  -20.3690 C.2    22  ASP22       0.2293
     41  O         -7.0370   -6.9710  -21.4160 O.2    22  ASP22      -0.2864
     42  CB        -5.6870   -4.2820  -19.9230 C.3    22  ASP22       0.1436
     43  CG        -5.0640   -4.2730  -21.3110 C.2    22  ASP22       0.3671
     44  OD1       -5.5190   -3.4980  -22.1760 O.co2  22  ASP22      -0.2456
     45  OD2       -4.1270   -5.0680  -21.5360 O.co2  22  ASP22      -0.2456
     46  N        -10.0230   -6.0900  -22.4810 N.3    26  LEU26      -0.1245
     47  CA        -9.8110   -5.1320  -23.5650 C.3    26  LEU26       0.1561
     48  C         -8.7790   -5.5990  -24.5590 C.2    26  LEU26       0.2260
     49  O         -8.9770   -5.4860  -25.7710 O.2    26  LEU26      -0.2867
     50  CB        -9.3330   -3.7930  -23.0280 C.3    26  LEU26       0.0270
     51  CG       -10.2370   -2.6040  -23.1610 C.3    26  LEU26       0.0019
     52  CD1       -9.3580   -1.4360  -22.8620 C.3    26  LEU26       0.0001
     53  CD2      -10.6730   -2.5590  -24.6070 C.3    26  LEU26       0.0001
     54  N        -12.6300    0.4760  -15.7650 N.3   126  PHE126     -0.1227
     55  CA       -13.2580    0.3680  -17.0780 C.3   126  PHE126      0.1736
     56  C        -13.2480    1.7050  -17.8150 C.2   126  PHE126      0.2595
     57  O        -13.4470    1.7510  -19.0300 O.2   126  PHE126     -0.2718
     58  CB       -14.6950   -0.1670  -16.9870 C.3   126  PHE126      0.0547
     59  CG       -14.8700   -1.3650  -16.0720 C.ar  126  PHE126     -0.0202
     60  CD1      -14.2840   -2.5820  -16.3680 C.ar  126  PHE126     -0.0042
     61  CD2      -15.6820   -1.2860  -14.9500 C.ar  126  PHE126     -0.0042
     62  CE1      -14.4620   -3.6780  -15.5360 C.ar  126  PHE126     -0.0003
     63  CE2      -15.8690   -2.3820  -14.1250 C.ar  126  PHE126     -0.0003
     64  CZ       -15.2580   -3.5740  -14.4190 C.ar  126  PHE126     -0.0000
     65  N        -13.1130    2.8100  -17.1000 N.am  127  TYR127     -0.1962
     66  CA       -13.0490    4.0700  -17.8150 C.3   127  TYR127      0.1771
     67  C        -11.6260    4.4630  -18.1570 C.2   127  TYR127      0.2620
     68  O        -11.3450    4.8430  -19.2960 O.2   127  TYR127     -0.2715
     69  CB       -13.6840    5.1720  -16.9820 C.3   127  TYR127      0.0574
     70  CG       -13.9520    6.4340  -17.7430 C.ar  127  TYR127     -0.0198
     71  CD1      -14.6770    6.4160  -18.9200 C.ar  127  TYR127     -0.0009
     72  CD2      -13.4820    7.6450  -17.2840 C.ar  127  TYR127     -0.0009
     73  CE1      -14.9320    7.5730  -19.6050 C.ar  127  TYR127      0.0417
     74  CE2      -13.7300    8.8000  -17.9590 C.ar  127  TYR127      0.0417
     75  CZ       -14.4520    8.7660  -19.1160 C.ar  127  TYR127      0.1957
     76  OH       -14.6860    9.9460  -19.7800 O.3   127  TYR127     -0.2866
     77  N        -10.7180    4.3280  -17.2040 N.am  128  GLY128     -0.1954
     78  CA        -9.4160    4.9400  -17.3160 C.3   128  GLY128      0.1869
     79  C         -9.4390    6.3220  -16.6980 C.2   128  GLY128      0.2309
     80  O        -10.2510    6.5820  -15.8110 O.2   128  GLY128     -0.2863
     81  N        -17.9510    5.5780  -27.8730 N.3   159  TRP159     -0.1227
     82  CA       -16.9220    5.4290  -26.8530 C.3   159  TRP159      0.1737
     83  C        -16.1530    4.1380  -27.0370 C.2   159  TRP159      0.2595
     84  O        -14.9200    4.1230  -26.9950 O.2   159  TRP159     -0.2718
     85  CB       -17.5400    5.4530  -25.4630 C.3   159  TRP159      0.0564
     86  CG       -16.5190    5.2710  -24.4000 C.ar  159  TRP159      0.0003
     87  CD1      -15.5720    6.1710  -24.0310 C.ar  159  TRP159      0.0946
     88  CD2      -16.3520    4.1390  -23.5390 C.ar  159  TRP159      0.0152
     89  NE1      -14.8110    5.6710  -23.0070 N.ar  159  TRP159     -0.2442
     90  CE2      -15.2720    4.4230  -22.6850 C.ar  159  TRP159      0.0810
     91  CE3      -17.0060    2.9100  -23.4090 C.ar  159  TRP159      0.0012
     92  CZ2      -14.8380    3.5310  -21.7110 C.ar  159  TRP159      0.0191
     93  CZ3      -16.5680    2.0230  -22.4460 C.ar  159  TRP159      0.0001
     94  CH2      -15.4930    2.3360  -21.6120 C.ar  159  TRP159      0.0015
     95  N        -16.8740    3.0400  -27.2400 N.am  160  ALA160     -0.1980
     96  CA       -16.2480    1.7280  -27.2700 C.3   160  ALA160      0.1597
     97  C        -15.3890    1.5510  -28.5120 C.2   160  ALA160      0.2287
     98  O        -14.2310    1.1370  -28.4190 O.2   160  ALA160     -0.2864
     99  CB       -17.3230    0.6470  -27.1950 C.3   160  ALA160      0.0319
    100  N        -12.3420    3.6040  -28.4100 N.3   163  GLY163     -0.1210
    101  CA       -11.4480    2.9790  -27.4500 C.3   163  GLY163      0.1956
    102  C        -10.7490    1.7470  -27.9870 C.2   163  GLY163      0.2611
    103  O         -9.5620    1.5420  -27.7340 O.2   163  GLY163     -0.2717
    104  N        -11.4800    0.8820  -28.6910 N.am  164  ILE164     -0.1979
    105  CA       -10.8530   -0.3340  -29.2040 C.3   164  ILE164      0.1595
    106  C         -9.7940    0.0010  -30.2430 C.2   164  ILE164      0.2287
    107  O         -8.7570   -0.6600  -30.3200 O.2   164  ILE164     -0.2864
    108  CB       -11.9060   -1.3050  -29.7680 C.3   164  ILE164      0.0276
    109  CG1      -12.9650   -1.6190  -28.7240 C.3   164  ILE164      0.0022
    110  CG2      -11.2610   -2.5770  -30.2730 C.3   164  ILE164      0.0022
    111  CD1      -14.0210   -2.5450  -29.2180 C.3   164  ILE164      0.0001
    112  N         -6.6120    1.3570  -28.4120 N.3   167  ARG167     -0.1245
    113  CA        -5.9410    0.2430  -27.7550 C.3   167  ARG167      0.1563
    114  C         -5.2750   -0.6840  -28.7570 C.2   167  ARG167      0.2260
    115  O         -4.2120   -1.2350  -28.4680 O.2   167  ARG167     -0.2867
    116  CB        -6.9570   -0.4980  -26.8770 C.3   167  ARG167      0.0307
    117  CG        -6.6020   -1.9000  -26.4100 C.3   167  ARG167      0.0489
    118  CD        -5.7060   -1.9250  -25.2010 C.3   167  ARG167      0.2205
    119  NE        -4.3250   -1.9610  -25.6430 N.pl3 167  ARG167     -0.0865
    120  CZ        -3.3320   -2.5350  -24.9830 C.cat 167  ARG167      0.5346
    121  NH1       -3.5400   -3.1150  -23.8130 N.pl3 167  ARG167      0.1354
    122  NH2       -2.1200   -2.5150  -25.4960 N.pl3 167  ARG167      0.1354
    123  N          5.5020   -0.0570  -21.5760 N.3   177  LEU177     -0.1245
    124  CA         4.9170    0.2500  -20.2740 C.3   177  LEU177      0.1561
    125  C          5.0730   -0.8950  -19.2760 C.2   177  LEU177      0.2260
    126  O          5.1400   -0.6540  -18.0680 O.2   177  LEU177     -0.2867
    127  CB         3.4420    0.6210  -20.4270 C.3   177  LEU177      0.0270
    128  CG         2.8020    1.1970  -19.1600 C.3   177  LEU177      0.0019
    129  CD1        3.2250    2.6480  -18.9200 C.3   177  LEU177      0.0001
    130  CD2        1.3000    1.0590  -19.1950 C.3   177  LEU177      0.0001
    131  N          1.5160    6.9350  -16.6660 N.3   187  MET187     -0.1245
    132  CA         0.2650    7.0000  -17.3980 C.3   187  MET187      0.1570
    133  C         -0.6370    8.1380  -16.9420 C.2   187  MET187      0.2261
    134  O         -1.5400    8.5270  -17.6870 O.2   187  MET187     -0.2867
    135  CB        -0.4640    5.6580  -17.2700 C.3   187  MET187      0.0387
    136  CG        -1.7940    5.6140  -18.0010 C.3   187  MET187      0.0595
    137  SD        -3.2090    6.1240  -16.9920 S.3   187  MET187     -0.1393
    138  CE        -4.5710    5.5570  -18.0040 C.3   187  MET187      0.0692
@<TRIPOS>BOND
     1   107   106    2
     2   110   108    1
     3   106   105    1
     4   108   105    1
     5   108   109    1
     6   111   109    1
     7   105   104    1
     8   114   115    2
     9   114   113    1
    10   104   102   am
    11    97    98    2
    12    97    96    1
    13   112   113    1
    14   100   101    1
    15   102   103    2
    16   102   101    1
    17    81    82    1
    18   113   116    1
    19    96    95    1
    20    96    99    1
    21    95    83   am
    22    83    84    2
    23    83    82    1
    24   116   117    1
    25    82    85    1
    26   117   118    1
    27    49    48    2
    28   119   118    1
    29   119   120    2
    30   122   120    1
    31    85    86    1
    32   120   121    1
    33    53    51    1
    34    48    47    1
    35    86    87   ar
    36    86    88   ar
    37    87    89   ar
    38    47    50    1
    39    47    46    1
    40    88    91   ar
    41    88    90   ar
    42    91    93   ar
    43    51    50    1
    44    51    52    1
    45    89    90   ar
    46    90    92   ar
    47    93    94   ar
    48    44    43   ar
    49    92    94   ar
    50   123   124    1
    51    45    43   ar
    52    41    40    2
    53    43    42    1
    54   127   124    1
    55   127   128    1
    56    40    39    1
    57   124   125    1
    58    42    39    1
    59    39    38    1
    60    76    75    1
    61    73    75   ar
    62    73    71   ar
    63    34    33    2
    64    68    67    2
    65   125   126    2
    66   130   128    1
    67   128   129    1
    68    75    74   ar
    69    57    56    2
    70    71    70   ar
    71    38    33   am
    72    33    32    1
    73    28    30   ar
    74    28    26   ar
    75    67    66    1
    76    67    77   am
    77   138   137    1
    78   136   135    1
    79   136   137    1
    80    74    72   ar
    81    37    35    1
    82    66    65    1
    83    66    69    1
    84    56    65   am
    85    56    55    1
    86    70    72   ar
    87    70    69    1
    88   134   133    2
    89    30    29   ar
    90    26    25   ar
    91   132   135    1
    92   132   133    1
    93   132   131    1
    94    78    77    1
    95    78    79    1
    96    32    35    1
    97    32    31    1
    98    55    58    1
    99    55    54    1
   100    15    14    2
   101    23    22    2
   102    58    59    1
   103    36    35    1
   104    79    80    2
   105    60    59   ar
   106    60    62   ar
   107    29    27   ar
   108    25    27   ar
   109    25    24    1
   110    21    22    1
   111    21    20    1
   112    21    24    1
   113    59    61   ar
   114    14    20   am
   115    14    13    1
   116    16    13    1
   117    16    17    1
   118    62    64   ar
   119     9    11   ar
   120     9     7   ar
   121    13    12    1
   122    17    18    2
   123    17    19   am
   124    11    10   ar
   125    61    63   ar
   126     7     6   ar
   127    64    63   ar
   128    10     8   ar
   129     4     3    2
   130     6     8   ar
   131     6     5    1
   132     3     2    1
   133     2     5    1
   134     2     1    1
