@<TRIPOS>MOLECULE
tmp/5nuoA01.pdb
 79 77 0 0 0
SMALL
GASTEIGER

@<TRIPOS>ATOM
      1  N         -9.4420   42.6860  -49.3440 N.3   223  ASN223     -0.1225
      2  CA        -8.7550   41.9890  -48.2610 C.3   223  ASN223      0.1785
      3  C         -9.5430   40.7640  -47.8120 C.2   223  ASN223      0.2597
      4  O         -9.6140   40.4710  -46.6200 O.2   223  ASN223     -0.2718
      5  CB        -8.5460   42.9130  -47.0550 C.3   223  ASN223      0.1169
      6  CG        -7.6710   44.1170  -47.3550 C.2   223  ASN223      0.2627
      7  OD1       -8.1570   45.2490  -47.3830 O.2   223  ASN223     -0.2716
      8  ND2       -6.3810   43.8870  -47.5600 N.am  223  ASN223     -0.0877
      9  N        -10.1250   40.0370  -48.7650 N.am  224  ASN224     -0.1960
     10  CA       -10.9590   38.8610  -48.5220 C.3   224  ASN224      0.1819
     11  C        -12.2760   39.1710  -47.8290 C.2   224  ASN224      0.2621
     12  O        -12.9480   38.2510  -47.3660 O.2   224  ASN224     -0.2715
     13  CB       -10.2210   37.8240  -47.6860 C.3   224  ASN224      0.1195
     14  CG        -8.9370   37.4290  -48.2990 C.2   224  ASN224      0.2630
     15  OD1       -8.8260   37.3530  -49.5170 O.2   224  ASN224     -0.2716
     16  ND2       -7.9290   37.2120  -47.4670 N.am  224  ASN224     -0.0877
     17  N        -12.6570   40.4330  -47.7190 N.am  225  ILE225     -0.1977
     18  CA       -13.8440   40.8370  -46.9790 C.3   225  ILE225      0.1596
     19  C        -14.8540   41.3400  -47.9990 C.2   225  ILE225      0.2287
     20  O        -14.4670   41.9040  -49.0250 O.2   225  ILE225     -0.2864
     21  CB       -13.4720   41.9090  -45.9320 C.3   225  ILE225      0.0276
     22  CG1      -12.4180   41.3470  -44.9690 C.3   225  ILE225      0.0022
     23  CG2      -14.6830   42.3620  -45.1350 C.3   225  ILE225      0.0022
     24  CD1      -11.9360   42.3150  -43.9130 C.3   225  ILE225      0.0001
     25  N        -18.7280   43.2480  -47.8190 N.3   227  LEU227     -0.1245
     26  CA       -19.9090   43.7730  -47.1530 C.3   227  LEU227      0.1561
     27  C        -20.6770   44.6050  -48.1630 C.2   227  LEU227      0.2260
     28  O        -20.0800   45.4080  -48.8780 O.2   227  LEU227     -0.2867
     29  CB       -19.5270   44.6180  -45.9410 C.3   227  LEU227      0.0270
     30  CG       -18.4170   44.0050  -45.1020 C.3   227  LEU227      0.0019
     31  CD1      -17.6950   45.0430  -44.3040 C.3   227  LEU227      0.0001
     32  CD2      -19.0500   43.0130  -44.2030 C.3   227  LEU227      0.0001
     33  N        -22.6460   39.9380  -45.6360 N.3   261  ALA261     -0.1231
     34  CA       -21.2620   39.9880  -45.1860 C.3   261  ALA261      0.1694
     35  C        -20.6090   38.6340  -45.4020 C.2   261  ALA261      0.2592
     36  O        -21.1700   37.6050  -45.0240 O.2   261  ALA261     -0.2718
     37  CB       -21.1690   40.3900  -43.7180 C.3   261  ALA261      0.0304
     38  N        -19.4250   38.6260  -45.9940 N.am  262  GLN262     -0.1966
     39  CA       -18.7540   37.3690  -46.2670 C.3   262  GLN262      0.1733
     40  C        -17.2590   37.5540  -46.0890 C.2   262  GLN262      0.2616
     41  O        -16.7160   38.6080  -46.4160 O.2   262  GLN262     -0.2715
     42  CB       -19.0590   36.8790  -47.6910 C.3   262  GLN262      0.0408
     43  CG       -20.5290   36.9500  -48.1200 C.3   262  GLN262      0.0908
     44  CD       -20.7740   36.4380  -49.5270 C.2   262  GLN262      0.2608
     45  OE1      -19.8970   36.4950  -50.3720 O.2   262  GLN262     -0.2717
     46  NE2      -21.9700   35.9270  -49.7780 N.am  262  GLN262     -0.0878
     47  N        -16.6020   36.5290  -45.5670 N.am  263  TYR263     -0.1974
     48  CA       -15.1530   36.4860  -45.4880 C.3   263  TYR263      0.1639
     49  C        -14.6780   35.3160  -46.3290 C.2   263  TYR263      0.2290
     50  O        -15.3830   34.3220  -46.4760 O.2   263  TYR263     -0.2864
     51  CB       -14.6600   36.3230  -44.0440 C.3   263  TYR263      0.0560
     52  CG       -13.1590   36.4700  -43.8590 C.ar  263  TYR263     -0.0198
     53  CD1      -12.5630   37.7170  -43.9120 C.ar  263  TYR263     -0.0009
     54  CD2      -12.3450   35.3730  -43.6060 C.ar  263  TYR263     -0.0009
     55  CE1      -11.1910   37.8730  -43.7370 C.ar  263  TYR263      0.0417
     56  CE2      -10.9610   35.5200  -43.4230 C.ar  263  TYR263      0.0417
     57  CZ       -10.3920   36.7750  -43.4920 C.ar  263  TYR263      0.1957
     58  OH        -9.0340   36.9480  -43.3180 O.3   263  TYR263     -0.2866
     59  N        -17.5850   31.6940  -45.9220 N.3   271  PRO271     -0.2102
     60  CA       -18.8490   31.7750  -45.1920 C.3   271  PRO271      0.1504
     61  C        -19.5820   33.0470  -45.5660 C.2   271  PRO271      0.2576
     62  O        -18.9930   33.9850  -46.0990 O.2   271  PRO271     -0.2718
     63  CB       -18.4200   31.7970  -43.7250 C.3   271  PRO271      0.0282
     64  CG       -17.0030   32.2680  -43.7640 C.3   271  PRO271      0.0208
     65  CD       -16.4280   31.7260  -45.0170 C.3   271  PRO271      0.0893
     66  N        -20.8960   33.0500  -45.3380 N.am  272  SER272     -0.1938
     67  CA       -21.7160   34.2200  -45.6220 C.3   272  SER272      0.2055
     68  C        -22.8920   34.2820  -44.6590 C.2   272  SER272      0.2642
     69  O        -23.5090   33.2590  -44.3690 O.2   272  SER272     -0.2714
     70  CB       -22.2260   34.2130  -47.0680 C.3   272  SER272      0.2130
     71  OG       -23.5590   33.7550  -47.1690 O.3   272  SER272     -0.2179
     72  N        -23.2050   35.4870  -44.1730 N.am  273  ILE273     -0.1977
     73  CA       -24.4420   35.7320  -43.4390 C.3   273  ILE273      0.1596
     74  C        -25.1460   36.8810  -44.1360 C.2   273  ILE273      0.2287
     75  O        -24.5030   37.7890  -44.6630 O.2   273  ILE273     -0.2864
     76  CB       -24.2640   36.0940  -41.9520 C.3   273  ILE273      0.0276
     77  CG1      -23.2980   37.2660  -41.7800 C.3   273  ILE273      0.0022
     78  CG2      -23.8310   34.8730  -41.1680 C.3   273  ILE273      0.0022
     79  CD1      -23.2220   37.7840  -40.3520 C.3   273  ILE273      0.0001
@<TRIPOS>BOND
     1    45    44    2
     2    46    44   am
     3    44    43    1
     4    15    14    2
     5     1     2    1
     6    20    19    2
     7    28    27    2
     8     9    10    1
     9     9     3   am
    10    10    11    1
    11    10    13    1
    12    14    13    1
    13    14    16   am
    14     2     3    1
    15     2     5    1
    16    27    26    1
    17    43    42    1
    18    19    18    1
    19    11    17   am
    20    11    12    2
    21    25    26    1
    22     3     4    2
    23    17    18    1
    24    42    39    1
    25     8     6   am
    26     7     6    2
    27     6     5    1
    28    71    70    1
    29    26    29    1
    30    70    67    1
    31    18    21    1
    32    50    49    2
    33    41    40    2
    34    49    48    1
    35    39    40    1
    36    39    38    1
    37    62    61    2
    38    40    47   am
    39    38    35   am
    40    29    30    1
    41    21    23    1
    42    21    22    1
    43    59    60    1
    44    59    65    1
    45    33    34    1
    46    67    66    1
    47    67    68    1
    48    47    48    1
    49    61    66   am
    50    61    60    1
    51    48    51    1
    52    35    34    1
    53    35    36    2
    54    60    63    1
    55    34    37    1
    56    30    31    1
    57    30    32    1
    58    65    64    1
    59    22    24    1
    60    75    74    2
    61    68    69    2
    62    68    72   am
    63    72    73    1
    64    74    73    1
    65    51    52    1
    66    53    52   ar
    67    53    55   ar
    68    52    54   ar
    69    64    63    1
    70    55    57   ar
    71    54    56   ar
    72    57    56   ar
    73    57    58    1
    74    73    76    1
    75    76    77    1
    76    76    78    1
    77    77    79    1
