@<TRIPOS>MOLECULE
tmp/5nuoC02.pdb
 98 93 0 0 0
SMALL
GASTEIGER

@<TRIPOS>ATOM
      1  N        -17.6660   -1.9280  -56.0000 N.3   153  PHE153     -0.1227
      2  CA       -19.0120   -1.8470  -55.4710 C.3   153  PHE153      0.1736
      3  C        -19.5250   -0.4300  -55.6470 C.2   153  PHE153      0.2595
      4  O        -18.8010    0.4730  -56.0660 O.2   153  PHE153     -0.2718
      5  CB       -19.0850   -2.2820  -53.9990 C.3   153  PHE153      0.0547
      6  CG       -18.2830   -1.4290  -53.0450 C.ar  153  PHE153     -0.0202
      7  CD1      -16.9190   -1.6140  -52.8930 C.ar  153  PHE153     -0.0042
      8  CD2      -18.9030   -0.4800  -52.2630 C.ar  153  PHE153     -0.0042
      9  CE1      -16.1900   -0.8480  -52.0030 C.ar  153  PHE153     -0.0003
     10  CE2      -18.1790    0.2870  -51.3780 C.ar  153  PHE153     -0.0003
     11  CZ       -16.8220    0.1020  -51.2480 C.ar  153  PHE153     -0.0000
     12  N        -20.8040   -0.2530  -55.3570 N.am  154  ALA154     -0.1966
     13  CA       -21.4100    1.0590  -55.4370 C.3   154  ALA154      0.1728
     14  C        -22.6830    1.0340  -54.6210 C.2   154  ALA154      0.2616
     15  O        -23.4180    0.0520  -54.6430 O.2   154  ALA154     -0.2715
     16  CB       -21.7140    1.4580  -56.8800 C.3   154  ALA154      0.0334
     17  N        -22.9420    2.1240  -53.9220 N.am  155  VAL155     -0.1977
     18  CA       -24.1580    2.2890  -53.1450 C.3   155  VAL155      0.1596
     19  C        -24.7560    3.6480  -53.4790 C.2   155  VAL155      0.2287
     20  O        -24.0330    4.6320  -53.6620 O.2   155  VAL155     -0.2864
     21  CB       -23.8990    2.0900  -51.6350 C.3   155  VAL155      0.0276
     22  CG1      -22.7770    2.9530  -51.1640 C.3   155  VAL155      0.0022
     23  CG2      -25.1340    2.4480  -50.8490 C.3   155  VAL155      0.0022
     24  N        -32.9260    3.1100  -51.8290 N.3   174  VAL174     -0.1231
     25  CA       -31.4950    2.8280  -51.7110 C.3   174  VAL174      0.1692
     26  C        -31.1720    1.5330  -52.4530 C.2   174  VAL174      0.2593
     27  O        -32.0210    0.6520  -52.5890 O.2   174  VAL174     -0.2718
     28  CB       -31.0660    2.7710  -50.2230 C.3   174  VAL174      0.0266
     29  CG1      -31.8310    1.7160  -49.5030 C.3   174  VAL174      0.0020
     30  CG2      -29.5940    2.5010  -50.0950 C.3   174  VAL174      0.0020
     31  N        -29.9440    1.4360  -52.9650 N.am  175  GLY175     -0.1942
     32  CA       -29.5170    0.2570  -53.6970 C.3   175  GLY175      0.2014
     33  C        -28.0090    0.1410  -53.7850 C.2   175  GLY175      0.2639
     34  O        -27.2680    0.9950  -53.2990 O.2   175  GLY175     -0.2714
     35  N        -27.5560   -0.9380  -54.4230 N.am  176  GLY176     -0.1939
     36  CA       -26.1340   -1.2260  -54.4980 C.3   176  GLY176      0.2014
     37  C        -25.8220   -2.2510  -55.5630 C.2   176  GLY176      0.2640
     38  O        -26.7220   -2.8270  -56.1710 O.2   176  GLY176     -0.2714
     39  N        -24.5230   -2.4670  -55.7840 N.am  177  SER177     -0.1935
     40  CA       -24.0260   -3.3920  -56.7980 C.3   177  SER177      0.2055
     41  C        -22.6160   -3.8530  -56.4410 C.2   177  SER177      0.2642
     42  O        -21.8890   -3.1590  -55.7340 O.2   177  SER177     -0.2714
     43  CB       -24.0450   -2.7560  -58.1980 C.3   177  SER177      0.2130
     44  OG       -23.0350   -1.7860  -58.3930 O.3   177  SER177     -0.2179
     45  N        -22.2480   -5.0440  -56.9220 N.am  178  ILE178     -0.1977
     46  CA       -20.8770   -5.5410  -56.8590 C.3   178  ILE178      0.1596
     47  C        -20.5090   -6.1070  -58.2160 C.2   178  ILE178      0.2287
     48  O        -21.3240   -6.7640  -58.8700 O.2   178  ILE178     -0.2864
     49  CB       -20.6510   -6.6240  -55.7800 C.3   178  ILE178      0.0276
     50  CG1      -21.2640   -6.2360  -54.4470 C.3   178  ILE178      0.0022
     51  CG2      -19.1800   -6.8450  -55.5450 C.3   178  ILE178      0.0022
     52  CD1      -22.5980   -6.8490  -54.2090 C.3   178  ILE178      0.0001
     53  N        -29.0840   -4.6700  -56.5610 N.3   191  TYR191     -0.1241
     54  CA       -30.4400   -4.6880  -56.0350 C.3   191  TYR191      0.1605
     55  C        -30.7500   -3.3120  -55.4700 C.2   191  TYR191      0.2264
     56  O        -29.8840   -2.6800  -54.8670 O.2   191  TYR191     -0.2867
     57  CB       -30.5850   -5.7690  -54.9530 C.3   191  TYR191      0.0534
     58  CG       -31.8450   -5.7020  -54.1100 C.ar  191  TYR191     -0.0201
     59  CD1      -31.9140   -4.8540  -53.0130 C.ar  191  TYR191     -0.0009
     60  CD2      -32.9330   -6.5260  -54.3630 C.ar  191  TYR191     -0.0009
     61  CE1      -33.0420   -4.7790  -52.2240 C.ar  191  TYR191      0.0417
     62  CE2      -34.0670   -6.4690  -53.5650 C.ar  191  TYR191      0.0417
     63  CZ       -34.1170   -5.5870  -52.4980 C.ar  191  TYR191      0.1957
     64  OH       -35.2330   -5.5100  -51.6910 O.3   191  TYR191     -0.2866
     65  N        -34.3380   -0.9630  -53.7200 N.3   193  ALA193     -0.1245
     66  CA       -35.7190   -0.9370  -53.2700 C.3   193  ALA193      0.1562
     67  C        -36.0640    0.4840  -52.8660 C.2   193  ALA193      0.2260
     68  O        -35.2000    1.2410  -52.4260 O.2   193  ALA193     -0.2867
     69  CB       -35.9490   -1.9020  -52.1060 C.3   193  ALA193      0.0290
     70  N        -43.8460   -0.9350  -51.7080 N.3   210  LYS210     -0.1245
     71  CA       -42.4210   -0.9340  -51.9810 C.3   210  LYS210      0.1561
     72  C        -42.1510   -1.4390  -53.3940 C.2   210  LYS210      0.2260
     73  O        -42.7730   -2.4030  -53.8480 O.2   210  LYS210     -0.2867
     74  CB       -41.7160   -1.8110  -50.9540 C.3   210  LYS210      0.0271
     75  CG       -40.2720   -1.5320  -50.7630 C.3   210  LYS210      0.0035
     76  CD       -40.1480   -0.4180  -49.7480 C.3   210  LYS210      0.0206
     77  CE       -39.0380   -0.6740  -48.7510 C.3   210  LYS210      0.1093
     78  NZ       -38.8000    0.5120  -47.8820 N.3   210  LYS210     -0.1314
     79  N        -39.0910   -2.7590  -56.1180 N.3   212  GLU212     -0.1245
     80  CA       -37.8710   -3.5220  -55.9220 C.3   212  GLU212      0.1567
     81  C        -37.3320   -3.9910  -57.2650 C.2   212  GLU212      0.2260
     82  O        -38.1040   -4.3910  -58.1340 O.2   212  GLU212     -0.2867
     83  CB       -38.1750   -4.6950  -55.0060 C.3   212  GLU212      0.0388
     84  CG       -37.0560   -5.6080  -54.7350 C.3   212  GLU212      0.1160
     85  CD       -37.4800   -6.7070  -53.8050 C.2   212  GLU212      0.3649
     86  OE1      -38.3540   -6.4530  -52.9440 O.co2 212  GLU212     -0.2457
     87  OE2      -36.8920   -7.7990  -53.8960 O.co2 212  GLU212     -0.2457
     88  N        -40.2340   -6.2600  -58.3960 N.3   235  ARG235     -0.1245
     89  CA       -41.4910   -6.2750  -57.6680 C.3   235  ARG235      0.1563
     90  C        -42.0010   -4.8440  -57.7300 C.2   235  ARG235      0.2260
     91  O        -41.3720   -3.9370  -57.1790 O.2   235  ARG235     -0.2867
     92  CB       -41.2980   -6.7470  -56.2200 C.3   235  ARG235      0.0307
     93  CG       -40.8380   -8.2010  -56.1070 C.3   235  ARG235      0.0489
     94  CD       -40.2920   -8.6480  -54.7190 C.3   235  ARG235      0.2205
     95  NE       -41.2210   -9.1850  -53.7070 N.pl3 235  ARG235     -0.0865
     96  CZ       -41.5300   -8.6080  -52.5440 C.cat 235  ARG235      0.5346
     97  NH1      -41.0080   -7.4320  -52.2140 N.pl3 235  ARG235      0.1354
     98  NH2      -42.3500   -9.2220  -51.6950 N.pl3 235  ARG235      0.1354
@<TRIPOS>BOND
     1    48    47    2
     2    88    89    1
     3    44    43    1
     4    47    46    1
     5    43    40    1
     6    82    81    2
     7    90    89    1
     8    90    91    2
     9    89    92    1
    10    81    80    1
    11    45    46    1
    12    45    41   am
    13    16    13    1
    14    46    49    1
    15    40    41    1
    16    40    39    1
    17    53    54    1
    18    41    42    2
    19    92    93    1
    20    38    37    2
    21    79    80    1
    22    93    94    1
    23     4     3    2
    24    54    55    1
    25    54    57    1
    26     1     2    1
    27    80    83    1
    28    39    37   am
    29    49    51    1
    30    49    50    1
    31     3     2    1
    32     3    12   am
    33    37    36    1
    34     2     5    1
    35    55    56    2
    36    13    12    1
    37    13    14    1
    38    83    84    1
    39    57    58    1
    40    84    85    1
    41    94    95    1
    42    15    14    2
    43    14    17   am
    44    36    35    1
    45    50    52    1
    46    35    33   am
    47    60    58   ar
    48    60    62   ar
    49    58    59   ar
    50     5     6    1
    51    17    18    1
    52    87    85   ar
    53    73    72    2
    54    85    86   ar
    55    33    32    1
    56    33    34    2
    57    65    66    1
    58    95    96    2
    59    32    31    1
    60    20    19    2
    61    62    63   ar
    62    19    18    1
    63    72    71    1
    64    66    67    1
    65    66    69    1
    66    18    21    1
    67     6     7   ar
    68     6     8   ar
    69    59    61   ar
    70    31    26   am
    71     7     9   ar
    72    67    68    2
    73    27    26    2
    74    96    97    1
    75    96    98    1
    76    63    61   ar
    77    63    64    1
    78    26    25    1
    79     8    10   ar
    80     9    11   ar
    81    71    70    1
    82    71    74    1
    83    24    25    1
    84    25    28    1
    85    21    22    1
    86    21    23    1
    87    10    11   ar
    88    74    75    1
    89    75    76    1
    90    28    30    1
    91    28    29    1
    92    76    77    1
    93    77    78    1
