@<TRIPOS>MOLECULE
tmp/5nupB04.pdb
 91 86 0 0 0
SMALL
GASTEIGER

@<TRIPOS>ATOM
      1  N        -17.9700   84.2500  -71.2000 N.3   259  VAL259     -0.1231
      2  CA       -19.1690   84.9320  -71.6700 C.3   259  VAL259      0.1692
      3  C        -19.4980   84.3930  -73.0560 C.2   259  VAL259      0.2592
      4  O        -18.5990   84.2090  -73.8830 O.2   259  VAL259     -0.2718
      5  CB       -19.0030   86.4630  -71.6490 C.3   259  VAL259      0.0266
      6  CG1      -18.0720   86.9390  -72.7610 C.3   259  VAL259      0.0020
      7  CG2      -20.3670   87.1260  -71.7410 C.3   259  VAL259      0.0020
      8  N        -20.7700   84.0780  -73.2850 N.am  260  VAL260     -0.1966
      9  CA       -21.1970   83.4920  -74.5460 C.3   260  VAL260      0.1727
     10  C        -22.5480   84.0620  -74.9470 C.2   260  VAL260      0.2616
     11  O        -23.4100   84.3110  -74.0940 O.2   260  VAL260     -0.2715
     12  CB       -21.2440   81.9540  -74.4450 C.3   260  VAL260      0.0290
     13  CG1      -21.9380   81.5270  -73.1700 C.3   260  VAL260      0.0023
     14  CG2      -21.9220   81.3430  -75.6620 C.3   260  VAL260      0.0023
     15  N        -22.7250   84.2570  -76.2650 N.am  261  ALA261     -0.1977
     16  CA       -23.9660   84.7230  -76.8700 C.3   261  ALA261      0.1597
     17  C        -24.3140   83.8420  -78.0650 C.2   261  ALA261      0.2287
     18  O        -23.4380   83.4520  -78.8470 O.2   261  ALA261     -0.2864
     19  CB       -23.8630   86.1870  -77.3030 C.3   261  ALA261      0.0319
     20  N        -20.9100   83.1860  -80.2910 N.3   273  VAL273     -0.1231
     21  CA       -19.7470   84.0080  -80.0140 C.3   273  VAL273      0.1692
     22  C        -19.4190   83.8310  -78.5400 C.2   273  VAL273      0.2592
     23  O        -20.3150   83.7470  -77.6920 O.2   273  VAL273     -0.2718
     24  CB       -19.9990   85.4950  -80.3620 C.3   273  VAL273      0.0266
     25  CG1      -18.6840   86.2470  -80.4980 C.3   273  VAL273      0.0020
     26  CG2      -20.8080   85.5970  -81.6300 C.3   273  VAL273      0.0020
     27  N        -18.1340   83.7590  -78.2360 N.am  274  ALA274     -0.1966
     28  CA       -17.7670   83.6070  -76.8490 C.3   274  ALA274      0.1728
     29  C        -16.3720   84.1570  -76.6260 C.2   274  ALA274      0.2616
     30  O        -15.5400   84.2280  -77.5390 O.2   274  ALA274     -0.2715
     31  CB       -17.8430   82.1420  -76.4040 C.3   274  ALA274      0.0334
     32  N        -16.1310   84.5220  -75.3760 N.am  275  TYR275     -0.1974
     33  CA       -14.8140   84.8810  -74.9010 C.3   275  TYR275      0.1639
     34  C        -14.5890   84.1250  -73.5970 C.2   275  TYR275      0.2290
     35  O        -15.5060   84.0040  -72.7780 O.2   275  TYR275     -0.2864
     36  CB       -14.7010   86.3840  -74.7140 C.3   275  TYR275      0.0560
     37  CG       -13.4140   86.7630  -74.0680 C.ar  275  TYR275     -0.0198
     38  CD1      -12.2250   86.6660  -74.7660 C.ar  275  TYR275     -0.0009
     39  CD2      -13.3750   87.2010  -72.7480 C.ar  275  TYR275     -0.0009
     40  CE1      -11.0300   87.0060  -74.1790 C.ar  275  TYR275      0.0417
     41  CE2      -12.1830   87.5380  -72.1490 C.ar  275  TYR275      0.0417
     42  CZ       -11.0150   87.4420  -72.8720 C.ar  275  TYR275      0.1957
     43  OH        -9.8160   87.7590  -72.2950 O.3   275  TYR275     -0.2866
     44  N         -1.1270   84.1510  -67.8760 N.3   291  ASP291     -0.1239
     45  CA        -2.4120   83.7240  -68.4210 C.3   291  ASP291      0.1674
     46  C         -2.3980   82.2290  -68.6930 C.2   291  ASP291      0.2266
     47  O         -1.4440   81.7010  -69.2680 O.2   291  ASP291     -0.2867
     48  CB        -2.7460   84.4690  -69.7130 C.3   291  ASP291      0.1410
     49  CG        -2.9810   85.9510  -69.5000 C.2   291  ASP291      0.3668
     50  OD1       -3.1930   86.6820  -70.4960 O.co2 291  ASP291     -0.2456
     51  OD2       -2.7690   86.4130  -68.3630 O.co2 291  ASP291     -0.2456
     52  N         -7.0980   82.0160  -72.7750 N.3   294  LYS294     -0.1245
     53  CA        -7.5510   83.2930  -73.2980 C.3   294  LYS294      0.1561
     54  C         -7.8560   83.1080  -74.7780 C.2   294  LYS294      0.2260
     55  O         -6.9330   82.9090  -75.5770 O.2   294  LYS294     -0.2867
     56  CB        -6.4620   84.3480  -73.0860 C.3   294  LYS294      0.0271
     57  CG        -6.8360   85.7970  -73.4010 C.3   294  LYS294      0.0035
     58  CD        -5.8790   86.7330  -72.6480 C.3   294  LYS294      0.0206
     59  CE        -6.1440   88.2160  -72.8880 C.3   294  LYS294      0.1093
     60  NZ        -7.5030   88.4160  -73.4240 N.3   294  LYS294     -0.1314
     61  N        -10.9620   84.1250  -78.0310 N.3   296  VAL296     -0.1245
     62  CA       -12.2700   84.3330  -78.6210 C.3   296  VAL296      0.1561
     63  C        -12.6210   83.0530  -79.3610 C.2   296  VAL296      0.2260
     64  O        -11.7660   82.3960  -79.9780 O.2   296  VAL296     -0.2867
     65  CB       -12.2630   85.5460  -79.5770 C.3   296  VAL296      0.0252
     66  CG1      -13.6850   85.9190  -80.0160 C.3   296  VAL296      0.0019
     67  CG2      -11.4940   86.6990  -78.9690 C.3   296  VAL296      0.0019
     68  N         -5.6960   83.7920  -78.1610 N.3   318  LEU318     -0.1231
     69  CA        -4.9660   85.0130  -77.8590 C.3   318  LEU318      0.1693
     70  C         -3.8340   84.8110  -76.8550 C.2   318  LEU318      0.2592
     71  O         -3.1410   85.7740  -76.5290 O.2   318  LEU318     -0.2718
     72  CB        -5.9230   86.0860  -77.3300 C.3   318  LEU318      0.0284
     73  CG        -7.2600   86.2640  -78.0500 C.3   318  LEU318      0.0019
     74  CD1       -8.2700   86.8470  -77.0760 C.3   318  LEU318      0.0001
     75  CD2       -7.1300   87.1170  -79.3150 C.3   318  LEU318      0.0001
     76  N         -3.5960   83.5880  -76.3930 N.am  319  LEU319     -0.1966
     77  CA        -2.4460   83.3320  -75.5370 C.3   319  LEU319      0.1728
     78  C         -1.1430   83.6840  -76.2640 C.2   319  LEU319      0.2616
     79  O         -0.9490   83.3420  -77.4370 O.2   319  LEU319     -0.2715
     80  CB        -2.4130   81.8590  -75.0810 C.3   319  LEU319      0.0311
     81  CG        -3.3960   81.2290  -74.0630 C.3   319  LEU319      0.0022
     82  CD1       -3.4920   82.1730  -72.8430 C.3   319  LEU319      0.0001
     83  CD2       -4.8100   80.6840  -74.5830 C.3   319  LEU319      0.0001
     84  N         -0.2630   84.4020  -75.5740 N.am  320  ASP320     -0.1971
     85  CA         1.1090   84.5270  -76.0300 C.3   320  ASP320      0.1709
     86  C          1.8820   83.2210  -75.8170 C.2   320  ASP320      0.2293
     87  O          1.4550   82.3210  -75.0920 O.2   320  ASP320     -0.2864
     88  CB         1.8140   85.6670  -75.2950 C.3   320  ASP320      0.1436
     89  CG         2.9880   86.2270  -76.0850 C.2   320  ASP320      0.3671
     90  OD1        2.9820   86.1270  -77.3330 O.co2 320  ASP320     -0.2456
     91  OD2        3.9360   86.7510  -75.4550 O.co2 320  ASP320     -0.2456
@<TRIPOS>BOND
     1    26    24    1
     2    25    24    1
     3    24    21    1
     4    20    21    1
     5    66    65    1
     6    21    22    1
     7    64    63    2
     8    65    67    1
     9    65    62    1
    10    63    62    1
    11    75    73    1
    12    18    17    2
    13    62    61    1
    14    22    27   am
    15    22    23    2
    16    27    28    1
    17    68    69    1
    18    17    16    1
    19    73    72    1
    20    73    74    1
    21    69    72    1
    22    69    70    1
    23    30    29    2
    24    79    78    2
    25    90    89   ar
    26    19    16    1
    27    16    15    1
    28    70    71    2
    29    70    76   am
    30    28    29    1
    31    28    31    1
    32    29    32   am
    33    76    77    1
    34    15    10   am
    35    78    84   am
    36    78    77    1
    37    89    91   ar
    38    89    88    1
    39    85    86    1
    40    85    84    1
    41    85    88    1
    42    86    87    2
    43    14    12    1
    44    55    54    2
    45    77    80    1
    46    32    33    1
    47    80    81    1
    48    10     9    1
    49    10    11    2
    50    33    36    1
    51    33    34    1
    52    54    53    1
    53    38    40   ar
    54    38    37   ar
    55    36    37    1
    56    83    81    1
    57     9    12    1
    58     9     8    1
    59    12    13    1
    60    40    42   ar
    61    37    39   ar
    62    81    82    1
    63     4     3    2
    64    34    35    2
    65    60    59    1
    66    57    56    1
    67    57    58    1
    68    53    56    1
    69    53    52    1
    70     8     3   am
    71     3     2    1
    72    59    58    1
    73    42    43    1
    74    42    41   ar
    75     6     5    1
    76    39    41   ar
    77     7     5    1
    78     2     5    1
    79     2     1    1
    80    50    49   ar
    81    48    49    1
    82    48    45    1
    83    49    51   ar
    84    47    46    2
    85    46    45    1
    86    45    44    1
