@<TRIPOS>MOLECULE
tmp/5nuqA00.pdb
 114 112 0 0 0
SMALL
GASTEIGER

@<TRIPOS>ATOM
      1  N        -43.4280  -31.0400   -2.5410 N.3   185  PHE185     -0.1241
      2  CA       -42.1360  -31.4200   -3.0800 C.3   185  PHE185      0.1605
      3  C        -41.4040  -30.1880   -3.5880 C.2   185  PHE185      0.2264
      4  O        -42.0220  -29.1950   -3.9810 O.2   185  PHE185     -0.2867
      5  CB       -42.3030  -32.4260   -4.2130 C.3   185  PHE185      0.0534
      6  CG       -42.7230  -33.7780   -3.7520 C.ar  185  PHE185     -0.0203
      7  CD1      -44.0570  -34.0400   -3.5000 C.ar  185  PHE185     -0.0042
      8  CD2      -41.7990  -34.7850   -3.5570 C.ar  185  PHE185     -0.0042
      9  CE1      -44.4620  -35.2760   -3.0750 C.ar  185  PHE185     -0.0003
     10  CE2      -42.2010  -36.0220   -3.1290 C.ar  185  PHE185     -0.0003
     11  CZ       -43.5340  -36.2680   -2.8900 C.ar  185  PHE185     -0.0000
     12  N        -33.4360  -31.6660   -3.7290 N.3   218  LEU218     -0.1231
     13  CA       -34.7310  -32.3270   -3.6940 C.3   218  LEU218      0.1693
     14  C        -35.2910  -32.2580   -2.2870 C.2   218  LEU218      0.2592
     15  O        -34.5380  -32.2880   -1.3130 O.2   218  LEU218     -0.2718
     16  CB       -34.6570  -33.7750   -4.1200 C.3   218  LEU218      0.0284
     17  CG       -34.7400  -33.9180   -5.6250 C.3   218  LEU218      0.0019
     18  CD1      -34.2760  -35.2970   -6.0390 C.3   218  LEU218      0.0001
     19  CD2      -36.1640  -33.6320   -6.0530 C.3   218  LEU218      0.0001
     20  N        -36.6120  -32.1350   -2.1780 N.am  219  LYS219     -0.1966
     21  CA       -37.1920  -32.0260   -0.8480 C.3   219  LYS219      0.1728
     22  C        -38.6620  -32.4220   -0.8440 C.2   219  LYS219      0.2616
     23  O        -39.3830  -32.2220   -1.8260 O.2   219  LYS219     -0.2715
     24  CB       -37.0020  -30.6050   -0.3100 C.3   219  LYS219      0.0311
     25  CG       -38.1340  -29.6450   -0.6030 C.3   219  LYS219      0.0038
     26  CD       -37.7590  -28.2420   -0.1690 C.3   219  LYS219      0.0206
     27  CE       -38.7380  -27.2170   -0.6990 C.3   219  LYS219      0.1093
     28  NZ       -38.3050  -25.8330   -0.3770 N.3   219  LYS219     -0.1314
     29  N        -39.0840  -32.9910    0.2840 N.am  220  TYR220     -0.1974
     30  CA       -40.4860  -33.1540    0.6570 C.3   220  TYR220      0.1639
     31  C        -40.6520  -32.4850    2.0080 C.2   220  TYR220      0.2290
     32  O        -39.9400  -32.8170    2.9590 O.2   220  TYR220     -0.2864
     33  CB       -40.9080  -34.6230    0.7470 C.3   220  TYR220      0.0560
     34  CG       -42.3630  -34.8440    1.1480 C.ar  220  TYR220     -0.0198
     35  CD1      -43.3960  -34.7150    0.2330 C.ar  220  TYR220     -0.0009
     36  CD2      -42.6940  -35.1780    2.4510 C.ar  220  TYR220     -0.0009
     37  CE1      -44.7220  -34.9260    0.6060 C.ar  220  TYR220      0.0417
     38  CE2      -44.0130  -35.3870    2.8320 C.ar  220  TYR220      0.0417
     39  CZ       -45.0220  -35.2600    1.9080 C.ar  220  TYR220      0.1957
     40  OH       -46.3300  -35.4670    2.2960 O.3   220  TYR220     -0.2866
     41  N        -37.7430  -34.0770    4.4580 N.3   227  LEU227     -0.1231
     42  CA       -36.6120  -34.8210    3.9370 C.3   227  LEU227      0.1693
     43  C        -35.9860  -33.9550    2.8630 C.2   227  LEU227      0.2592
     44  O        -36.6950  -33.2380    2.1520 O.2   227  LEU227     -0.2718
     45  CB       -37.0480  -36.1710    3.3660 C.3   227  LEU227      0.0284
     46  CG       -37.8420  -37.0960    4.2950 C.3   227  LEU227      0.0019
     47  CD1      -39.0750  -37.5770    3.5780 C.3   227  LEU227      0.0001
     48  CD2      -37.0160  -38.2720    4.7740 C.3   227  LEU227      0.0001
     49  N        -34.6680  -33.9880    2.7580 N.am  228  ALA228     -0.1966
     50  CA       -34.0360  -33.0790    1.8210 C.3   228  ALA228      0.1728
     51  C        -32.6920  -33.6250    1.3890 C.2   228  ALA228      0.2616
     52  O        -31.9760  -34.2340    2.1840 O.2   228  ALA228     -0.2715
     53  CB       -33.8560  -31.6910    2.4310 C.3   228  ALA228      0.0334
     54  N        -32.3560  -33.3890    0.1270 N.am  229  ALA229     -0.1977
     55  CA       -31.0730  -33.7990   -0.4090 C.3   229  ALA229      0.1597
     56  C        -30.5150  -32.7170   -1.3250 C.2   229  ALA229      0.2287
     57  O        -31.2570  -32.0600   -2.0590 O.2   229  ALA229     -0.2864
     58  CB       -31.1870  -35.1270   -1.1580 C.3   229  ALA229      0.0319
     59  N        -27.6960  -34.6910    2.9350 N.3   259  LEU259     -0.1231
     60  CA       -28.9890  -35.3180    3.1840 C.3   259  LEU259      0.1693
     61  C        -29.4840  -34.9560    4.5680 C.2   259  LEU259      0.2592
     62  O        -28.6920  -34.8790    5.5120 O.2   259  LEU259     -0.2718
     63  CB       -28.9170  -36.8260    3.0870 C.3   259  LEU259      0.0284
     64  CG       -28.5480  -37.4290    1.7440 C.3   259  LEU259      0.0019
     65  CD1      -27.6780  -38.6170    2.0240 C.3   259  LEU259      0.0001
     66  CD2      -29.7960  -37.8400    0.9940 C.3   259  LEU259      0.0001
     67  N        -30.7860  -34.7290    4.6950 N.am  260  VAL260     -0.1966
     68  CA       -31.3730  -34.3260    5.9740 C.3   260  VAL260      0.1727
     69  C        -32.7720  -34.9100    6.0670 C.2   260  VAL260      0.2616
     70  O        -33.5920  -34.7330    5.1620 O.2   260  VAL260     -0.2715
     71  CB       -31.4160  -32.7930    6.1410 C.3   260  VAL260      0.0290
     72  CG1      -32.5010  -32.4010    7.1110 C.3   260  VAL260      0.0023
     73  CG2      -30.0860  -32.2810    6.6350 C.3   260  VAL260      0.0023
     74  N        -33.0540  -35.5950    7.1600 N.am  261  ALA261     -0.1977
     75  CA       -34.3870  -36.1030    7.4080 C.3   261  ALA261      0.1597
     76  C        -34.7590  -35.7330    8.8310 C.2   261  ALA261      0.2287
     77  O        -33.9710  -35.9440    9.7600 O.2   261  ALA261     -0.2864
     78  CB       -34.4600  -37.6100    7.1960 C.3   261  ALA261      0.0319
     79  N        -32.0120  -36.5410   11.7860 N.3   273  ILE273     -0.1231
     80  CA       -30.8610  -37.3430   11.3920 C.3   273  ILE273      0.1692
     81  C        -30.4000  -36.8160   10.0350 C.2   273  ILE273      0.2592
     82  O        -31.2050  -36.2940    9.2590 O.2   273  ILE273     -0.2718
     83  CB       -31.1850  -38.8650   11.3700 C.3   273  ILE273      0.0266
     84  CG1      -29.9920  -39.6850   10.8890 C.3   273  ILE273      0.0019
     85  CG2      -32.3670  -39.1800   10.4690 C.3   273  ILE273      0.0020
     86  CD1      -29.9050  -41.0710   11.5190 C.3   273  ILE273      0.0001
     87  N        -29.0870  -36.8500    9.7880 N.am  274  ALA274     -0.1966
     88  CA       -28.5420  -36.3040    8.5470 C.3   274  ALA274      0.1728
     89  C        -27.1600  -36.8910    8.2580 C.2   274  ALA274      0.2616
     90  O        -26.4680  -37.3700    9.1610 O.2   274  ALA274     -0.2715
     91  CB       -28.4750  -34.7780    8.6020 C.3   274  ALA274      0.0334
     92  N        -26.7640  -36.8430    6.9740 N.am  275  TYR275     -0.1974
     93  CA       -25.4460  -37.2750    6.5010 C.3   275  TYR275      0.1639
     94  C        -24.8530  -36.1940    5.6070 C.2   275  TYR275      0.2290
     95  O        -25.5770  -35.5330    4.8570 O.2   275  TYR275     -0.2864
     96  CB       -25.5310  -38.6060    5.7210 C.3   275  TYR275      0.0560
     97  CG       -24.2560  -39.0330    5.0050 C.ar  275  TYR275     -0.0198
     98  CD1      -23.1480  -39.4650    5.7140 C.ar  275  TYR275     -0.0009
     99  CD2      -24.1740  -39.0270    3.6190 C.ar  275  TYR275     -0.0009
    100  CE1      -21.9890  -39.8620    5.0650 C.ar  275  TYR275      0.0417
    101  CE2      -23.0170  -39.4210    2.9640 C.ar  275  TYR275      0.0417
    102  CZ       -21.9310  -39.8380    3.6950 C.ar  275  TYR275      0.1957
    103  OH       -20.7790  -40.2340    3.0670 O.3   275  TYR275     -0.2866
    104  N        -22.1140  -38.1550   10.1460 N.3   295  PHE295     -0.1241
    105  CA       -23.5210  -38.4370   10.3760 C.3   295  PHE295      0.1605
    106  C        -24.0110  -37.5340   11.4990 C.2   295  PHE295      0.2264
    107  O        -23.2900  -37.3180   12.4790 O.2   295  PHE295     -0.2867
    108  CB       -23.7190  -39.8920   10.8100 C.3   295  PHE295      0.0534
    109  CG       -23.6380  -40.8970    9.7050 C.ar  295  PHE295     -0.0203
    110  CD1      -22.4460  -41.5310    9.4330 C.ar  295  PHE295     -0.0042
    111  CD2      -24.7600  -41.2630    8.9900 C.ar  295  PHE295     -0.0042
    112  CE1      -22.3520  -42.4740    8.4410 C.ar  295  PHE295     -0.0003
    113  CE2      -24.6720  -42.2100    7.9920 C.ar  295  PHE295     -0.0003
    114  CZ       -23.4650  -42.8160    7.7210 C.ar  295  PHE295     -0.0000
@<TRIPOS>BOND
     1    19    17    1
     2    18    17    1
     3    17    16    1
     4     5     6    1
     5     5     2    1
     6    16    13    1
     7     4     3    2
     8     6     8   ar
     9     6     7   ar
    10    12    13    1
    11    13    14    1
    12     3     2    1
    13     8    10   ar
    14     7     9   ar
    15    10    11   ar
    16     2     1    1
    17     9    11   ar
    18    14    20   am
    19    14    15    2
    20    20    21    1
    21    57    56    2
    22    23    22    2
    23    56    55    1
    24    58    55    1
    25    21    22    1
    26    21    24    1
    27    22    29   am
    28    27    28    1
    29    27    26    1
    30    25    24    1
    31    25    26    1
    32    55    54    1
    33    54    51   am
    34    35    37   ar
    35    35    34   ar
    36    29    30    1
    37    37    39   ar
    38    30    33    1
    39    30    31    1
    40    33    34    1
    41    66    64    1
    42    34    36   ar
    43    51    50    1
    44    51    52    2
    45    64    65    1
    46    64    63    1
    47    50    53    1
    48    50    49    1
    49    39    40    1
    50    39    38   ar
    51    31    32    2
    52    44    43    2
    53    36    38   ar
    54    49    43   am
    55    43    42    1
    56    59    60    1
    57   101    99   ar
    58   101   102   ar
    59   103   102    1
    60    63    60    1
    61    60    61    1
    62    45    42    1
    63    45    46    1
    64    47    46    1
    65    99    97   ar
    66   102   100   ar
    67    42    41    1
    68    46    48    1
    69    61    67   am
    70    61    62    2
    71    67    68    1
    72    95    94    2
    73    97    98   ar
    74    97    96    1
    75   100    98   ar
    76    70    69    2
    77    94    93    1
    78    96    93    1
    79    68    69    1
    80    68    71    1
    81    69    74   am
    82    71    73    1
    83    71    72    1
    84    93    92    1
    85    92    89   am
    86    74    75    1
    87    78    75    1
    88    75    76    1
    89   114   113   ar
    90   114   112   ar
    91   113   111   ar
    92    89    88    1
    93    89    90    2
    94   112   110   ar
    95    88    91    1
    96    88    87    1
    97    76    77    2
    98   111   109   ar
    99    82    81    2
   100   110   109   ar
   101   109   108    1
   102    87    81   am
   103    81    80    1
   104   104   105    1
   105   105   108    1
   106   105   106    1
   107    85    83    1
   108    84    83    1
   109    84    86    1
   110    83    80    1
   111    80    79    1
   112   106   107    2
