@<TRIPOS>MOLECULE
tmp/5nurA01.pdb
 71 68 0 0 0
SMALL
GASTEIGER

@<TRIPOS>ATOM
      1  N         44.2460  -64.7670   34.7420 N.3    19  GLY19      -0.1225
      2  CA        45.4930  -64.0500   34.9040 C.3    19  GLY19       0.1811
      3  C         45.3000  -63.0760   36.0340 C.2    19  GLY19       0.2280
      4  O         44.6180  -62.0720   35.8310 O.2    19  GLY19      -0.2866
      5  N         46.7970  -60.6940   39.4880 N.3    21  HIS21      -0.1241
      6  CA        47.9430  -60.0150   40.0750 C.3    21  HIS21       0.1621
      7  C         47.4660  -59.1240   41.2090 C.2    21  HIS21       0.2264
      8  O         46.4960  -58.3870   41.0420 O.2    21  HIS21      -0.2867
      9  CB        48.6900  -59.1910   39.0560 C.3    21  HIS21       0.0745
     10  CG        50.0420  -58.7700   39.5160 C.ar   21  HIS21       0.0817
     11  ND1       51.1970  -59.3880   39.0880 N.ar   21  HIS21      -0.2268
     12  CD2       50.4270  -57.8080   40.3820 C.ar   21  HIS21       0.1154
     13  CE1       52.2390  -58.8030   39.6490 C.ar   21  HIS21       0.1986
     14  NE2       51.7990  -57.8390   40.4350 N.ar   21  HIS21      -0.2212
     15  N         48.2940  -56.2280   44.3280 N.3    23  PHE23      -0.1227
     16  CA        49.1700  -55.1150   44.6420 C.3    23  PHE23       0.1736
     17  C         48.9160  -54.7820   46.1000 C.2    23  PHE23       0.2596
     18  O         47.7670  -54.5340   46.4840 O.2    23  PHE23      -0.2718
     19  CB        48.9170  -53.9010   43.7420 C.3    23  PHE23       0.0547
     20  CG        49.1750  -54.1470   42.2690 C.ar   23  PHE23      -0.0202
     21  CD1       48.1980  -54.7110   41.4510 C.ar   23  PHE23      -0.0042
     22  CD2       50.4210  -53.8590   41.7070 C.ar   23  PHE23      -0.0042
     23  CE1       48.4530  -54.9520   40.0980 C.ar   23  PHE23      -0.0003
     24  CE2       50.6760  -54.1060   40.3490 C.ar   23  PHE23      -0.0003
     25  CZ        49.6930  -54.6550   39.5550 C.ar   23  PHE23      -0.0000
     26  N         49.9710  -54.8740   46.9200 N.am   24  SER24      -0.1938
     27  CA        49.9410  -54.5140   48.3360 C.3    24  SER24       0.2055
     28  C         51.2770  -53.9130   48.7190 C.2    24  SER24       0.2643
     29  O         52.2850  -54.1240   48.0350 O.2    24  SER24      -0.2714
     30  CB        49.6300  -55.6900   49.2340 C.3    24  SER24       0.2130
     31  OG        48.4550  -56.3300   48.8050 O.3    24  SER24      -0.2179
     32  N         51.2620  -53.1270   49.7980 N.am   25  LYS25      -0.1963
     33  CA        52.4540  -52.3900   50.1950 C.3    25  LYS25       0.1728
     34  C         53.6260  -53.3230   50.4420 C.2    25  LYS25       0.2616
     35  O         53.4480  -54.4560   50.8930 O.2    25  LYS25      -0.2715
     36  CB        52.1610  -51.5540   51.4360 C.3    25  LYS25       0.0311
     37  CG        52.4560  -50.0600   51.2490 C.3    25  LYS25       0.0038
     38  CD        51.5020  -49.4110   50.2140 C.3    25  LYS25       0.0206
     39  CE        52.0240  -48.0730   49.6700 C.3    25  LYS25       0.1093
     40  NZ        51.0580  -47.4370   48.7280 N.3    25  LYS25      -0.1314
     41  N         54.8200  -52.8700   50.0710 N.am   26  GLY26      -0.1955
     42  CA        56.0080  -53.6660   50.3440 C.3    26  GLY26       0.1869
     43  C         55.9830  -55.0560   49.7210 C.2    26  GLY26       0.2309
     44  O         55.4050  -55.2780   48.6540 O.2    26  GLY26      -0.2863
     45  N         51.0900  -59.9620   47.7590 N.3    35  ASN35      -0.1240
     46  CA        51.6200  -59.0800   46.7160 C.3    35  ASN35       0.1653
     47  C         52.3520  -59.8730   45.6470 C.2    35  ASN35       0.2266
     48  O         53.3050  -60.5810   45.9740 O.2    35  ASN35      -0.2867
     49  CB        52.5780  -58.0570   47.3470 C.3    35  ASN35       0.1155
     50  CG        53.1750  -57.0920   46.3450 C.2    35  ASN35       0.2627
     51  OD1       52.4580  -56.3480   45.6770 O.2    35  ASN35      -0.2716
     52  ND2       54.5030  -57.0820   46.2560 N.am   35  ASN35      -0.0877
     53  N         43.7080  -57.2730   40.2470 N.3   334  VAL334     -0.1231
     54  CA        43.2740  -57.0580   38.8730 C.3   334  VAL334      0.1692
     55  C         43.3230  -58.3820   38.1330 C.2   334  VAL334      0.2593
     56  O         44.3670  -59.0380   38.1180 O.2   334  VAL334     -0.2718
     57  CB        44.1690  -56.0120   38.1840 C.3   334  VAL334      0.0266
     58  CG1       44.1770  -56.1870   36.6700 C.3   334  VAL334      0.0020
     59  CG2       43.6910  -54.6460   38.5620 C.3   334  VAL334      0.0020
     60  N         42.2110  -58.7570   37.5010 N.am  335  GLY335     -0.1942
     61  CA        42.1340  -60.0080   36.7610 C.3   335  GLY335      0.2014
     62  C         41.5470  -59.9050   35.3620 C.2   335  GLY335      0.2638
     63  O         40.6710  -59.0890   35.0820 O.2   335  GLY335     -0.2714
     64  N         42.0330  -60.7800   34.4830 N.am  336  ILE336     -0.1977
     65  CA        41.3970  -61.0890   33.2070 C.3   336  ILE336      0.1596
     66  C         41.1050  -62.5920   33.1710 C.2   336  ILE336      0.2287
     67  O         41.9510  -63.4100   33.5460 O.2   336  ILE336     -0.2864
     68  CB        42.2540  -60.6500   32.0030 C.3   336  ILE336      0.0276
     69  CG1       41.6530  -61.2110   30.7240 C.3   336  ILE336      0.0022
     70  CG2       43.7230  -61.0450   32.1430 C.3   336  ILE336      0.0022
     71  CD1       42.3380  -60.7290   29.5240 C.3   336  ILE336      0.0001
@<TRIPOS>BOND
     1    71    69    1
     2    69    68    1
     3    68    70    1
     4    68    65    1
     5    66    65    1
     6    66    67    2
     7    65    64    1
     8    64    62   am
     9     1     2    1
    10     2     3    1
    11    63    62    2
    12    62    61    1
    13     4     3    2
    14    58    57    1
    15    61    60    1
    16    60    55   am
    17    56    55    2
    18    55    54    1
    19    57    59    1
    20    57    54    1
    21    54    53    1
    22     9    10    1
    23     9     6    1
    24    11    10   ar
    25    11    13   ar
    26     5     6    1
    27    10    12   ar
    28    25    23   ar
    29    25    24   ar
    30    13    14   ar
    31     6     7    1
    32    23    21   ar
    33    24    22   ar
    34    12    14   ar
    35     8     7    2
    36    21    20   ar
    37    22    20   ar
    38    20    19    1
    39    19    16    1
    40    15    16    1
    41    16    17    1
    42    47    48    2
    43    47    46    1
    44    51    50    2
    45    17    18    2
    46    17    26   am
    47    52    50   am
    48    50    49    1
    49    46    49    1
    50    46    45    1
    51    26    27    1
    52    29    28    2
    53    27    28    1
    54    27    30    1
    55    44    43    2
    56    28    32   am
    57    40    39    1
    58    31    30    1
    59    39    38    1
    60    43    42    1
    61    32    33    1
    62    41    42    1
    63    41    34   am
    64    33    34    1
    65    33    36    1
    66    38    37    1
    67    34    35    2
    68    37    36    1
