@<TRIPOS>MOLECULE
tmp/5nurB00.pdb
 72 67 0 0 0
SMALL
GASTEIGER

@<TRIPOS>ATOM
      1  N         47.6440  -45.1690   13.0140 N.3    39  PRO39      -0.2102
      2  CA        47.6280  -45.7950   14.3390 C.3    39  PRO39       0.1504
      3  C         48.3560  -44.9510   15.3790 C.2    39  PRO39       0.2575
      4  O         47.8860  -44.8270   16.5170 O.2    39  PRO39      -0.2718
      5  CB        48.2980  -47.1500   14.0830 C.3    39  PRO39       0.0282
      6  CG        48.0010  -47.4360   12.6710 C.3    39  PRO39       0.0208
      7  CD        48.0900  -46.1190   11.9820 C.3    39  PRO39       0.0893
      8  N         49.4590  -44.3050   14.9940 N.am   40  ALA40      -0.1980
      9  CA        50.1360  -43.4070   15.9200 C.3    40  ALA40       0.1597
     10  C         49.2300  -42.2450   16.2990 C.2    40  ALA40       0.2287
     11  O         49.1470  -41.8730   17.4750 O.2    40  ALA40      -0.2864
     12  CB        51.4480  -42.9050   15.3220 C.3    40  ALA40       0.0319
     13  N         45.7070  -41.6770   16.0650 N.3    42  ASN42      -0.1225
     14  CA        44.5840  -41.9960   16.9390 C.3    42  ASN42       0.1785
     15  C         45.0150  -42.8180   18.1410 C.2    42  ASN42       0.2597
     16  O         44.2090  -42.9960   19.0570 O.2    42  ASN42      -0.2718
     17  CB        43.4110  -42.6600   16.1890 C.3    42  ASN42       0.1169
     18  CG        43.8140  -43.8480   15.3830 C.2    42  ASN42       0.2627
     19  OD1       44.7700  -44.5340   15.7190 O.2    42  ASN42      -0.2716
     20  ND2       43.0530  -44.1330   14.3240 N.am   42  ASN42      -0.0877
     21  N         46.2320  -43.3670   18.1400 N.am   43  GLY43      -0.1957
     22  CA        46.7580  -43.9540   19.3640 C.3    43  GLY43       0.1869
     23  C         47.1580  -42.9170   20.3990 C.2    43  GLY43       0.2309
     24  O         46.9190  -43.0980   21.5960 O.2    43  GLY43      -0.2863
     25  N         43.9940  -41.3950   21.5390 N.3    46  ASN46      -0.1240
     26  CA        43.5110  -42.3530   22.5290 C.3    46  ASN46       0.1653
     27  C         44.1510  -42.1130   23.8760 C.2    46  ASN46       0.2266
     28  O         43.4680  -42.0920   24.9020 O.2    46  ASN46      -0.2867
     29  CB        43.8120  -43.7830   22.0860 C.3    46  ASN46       0.1155
     30  CG        42.5950  -44.5050   21.6030 C.2    46  ASN46       0.2627
     31  OD1       41.6510  -44.6900   22.3690 O.2    46  ASN46      -0.2716
     32  ND2       42.5960  -44.9270   20.3390 N.am   46  ASN46      -0.0877
     33  N         46.4360  -51.4710   26.9730 N.3    84  MET84      -0.1245
     34  CA        47.7780  -50.9270   26.8110 C.3    84  MET84       0.1570
     35  C         47.9220  -49.4770   27.2580 C.2    84  MET84       0.2261
     36  O         48.3910  -48.6300   26.4940 O.2    84  MET84      -0.2867
     37  CB        48.2010  -51.0640   25.3540 C.3    84  MET84       0.0387
     38  CG        49.6620  -51.3330   25.1410 C.3    84  MET84       0.0595
     39  SD        50.2460  -52.7930   26.0080 S.3    84  MET84      -0.1393
     40  CE        52.0050  -52.5190   25.7890 C.3    84  MET84       0.0692
     41  N         46.4640  -46.4830   25.1530 N.3    87  LEU87      -0.1231
     42  CA        46.7660  -46.4310   23.7200 C.3    87  LEU87       0.1693
     43  C         45.6630  -47.0430   22.8730 C.2    87  LEU87       0.2592
     44  O         45.4450  -46.6050   21.7410 O.2    87  LEU87      -0.2718
     45  CB        48.0740  -47.1550   23.4010 C.3    87  LEU87       0.0284
     46  CG        49.3690  -46.3530   23.4680 C.3    87  LEU87       0.0019
     47  CD1       49.2980  -45.4320   24.6400 C.3    87  LEU87       0.0001
     48  CD2       50.5800  -47.2370   23.5980 C.3    87  LEU87       0.0001
     49  N         44.9770  -48.0610   23.3750 N.am   88  ILE88      -0.1966
     50  CA        43.9620  -48.7640   22.6080 C.3    88  ILE88       0.1727
     51  C         42.5930  -48.5910   23.2570 C.2    88  ILE88       0.2616
     52  O         42.4560  -48.7490   24.4720 O.2    88  ILE88      -0.2715
     53  CB        44.3510  -50.2360   22.4550 C.3    88  ILE88       0.0290
     54  CG1       45.6910  -50.2830   21.7230 C.3    88  ILE88       0.0022
     55  CG2       43.3060  -50.9550   21.6970 C.3    88  ILE88       0.0023
     56  CD1       46.5160  -51.4730   21.9870 C.3    88  ILE88       0.0001
     57  N         41.5760  -48.2890   22.4390 N.am   89  ASP89      -0.1971
     58  CA        40.2280  -47.9790   22.9360 C.3    89  ASP89       0.1709
     59  C         39.3960  -49.2590   22.9680 C.2    89  ASP89       0.2293
     60  O         38.5150  -49.4880   22.1330 O.2    89  ASP89      -0.2864
     61  CB        39.5610  -46.9260   22.0520 C.3    89  ASP89       0.1436
     62  CG        38.2400  -46.3910   22.6320 C.2    89  ASP89       0.3671
     63  OD1       38.2500  -45.9460   23.7970 O.co2  89  ASP89      -0.2456
     64  OD2       37.2020  -46.3840   21.9260 O.co2  89  ASP89      -0.2456
     65  N         35.6460  -50.4950   21.5410 N.3    93  MET93      -0.1245
     66  CA        35.5260  -51.7420   20.8060 C.3    93  MET93       0.1570
     67  C         34.5990  -52.7140   21.5220 C.2    93  MET93       0.2261
     68  O         34.0200  -53.5840   20.8710 O.2    93  MET93      -0.2867
     69  CB        36.9070  -52.3560   20.5780 C.3    93  MET93       0.0387
     70  CG        37.7150  -51.5460   19.5860 C.3    93  MET93       0.0595
     71  SD        39.3050  -52.2100   19.0930 S.3    93  MET93      -0.1393
     72  CE        40.2550  -51.7640   20.5340 C.3    93  MET93       0.0692
@<TRIPOS>BOND
     1     7     6    1
     2     7     1    1
     3     6     5    1
     4     1     2    1
     5     5     2    1
     6    20    18   am
     7     2     3    1
     8     8     3   am
     9     8     9    1
    10    12     9    1
    11     3     4    2
    12    18    19    2
    13    18    17    1
    14     9    10    1
    15    13    14    1
    16    17    14    1
    17    10    11    2
    18    14    15    1
    19    21    15   am
    20    21    22    1
    21    15    16    2
    22    71    70    1
    23    71    72    1
    24    22    23    1
    25    70    69    1
    26    32    30   am
    27    23    24    2
    28    69    66    1
    29    66    67    1
    30    66    65    1
    31    68    67    2
    32    25    26    1
    33    30    29    1
    34    30    31    2
    35    55    53    1
    36    54    56    1
    37    54    53    1
    38    44    43    2
    39    64    62   ar
    40    61    62    1
    41    61    58    1
    42    29    26    1
    43    60    59    2
    44    57    58    1
    45    57    51   am
    46    53    50    1
    47    26    27    1
    48    50    51    1
    49    50    49    1
    50    62    63   ar
    51    43    49   am
    52    43    42    1
    53    58    59    1
    54    51    52    2
    55    45    46    1
    56    45    42    1
    57    46    48    1
    58    46    47    1
    59    42    41    1
    60    27    28    2
    61    38    37    1
    62    38    39    1
    63    37    34    1
    64    40    39    1
    65    36    35    2
    66    34    33    1
    67    34    35    1
