@<TRIPOS>MOLECULE
tmp/5nutB00.pdb
 152 153 0 0 0
SMALL
GASTEIGER

@<TRIPOS>ATOM
      1  N         -4.6440    9.5180   11.8720 N.3    80  HIS80      -0.1226
      2  CA        -4.8720    9.1430   13.2640 C.3    80  HIS80       0.1752
      3  C         -5.2140   10.3770   14.0840 C.2    80  HIS80       0.2597
      4  O         -4.4660   11.3620   14.0600 O.2    80  HIS80      -0.2718
      5  CB        -3.6440    8.4470   13.8590 C.3    80  HIS80       0.0759
      6  CG        -3.8640    7.9060   15.2380 C.ar   80  HIS80       0.0818
      7  ND1       -4.5370    6.7210   15.4730 N.ar   80  HIS80      -0.2268
      8  CD2       -3.5500    8.4080   16.4590 C.ar   80  HIS80       0.1154
      9  CE1       -4.5980    6.5080   16.7770 C.ar   80  HIS80       0.1986
     10  NE2       -4.0170    7.5170   17.3970 N.ar   80  HIS80      -0.2212
     11  N         -6.3510   10.3160   14.7710 N.am   81  GLY81      -0.1942
     12  CA        -6.7870   11.3630   15.6900 C.3    81  GLY81       0.2014
     13  C         -6.7610   10.8050   17.0970 C.2    81  GLY81       0.2640
     14  O         -7.1520    9.6660   17.3050 O.2    81  GLY81      -0.2714
     15  N         -6.3010   11.5960   18.0650 N.am   82  SER82      -0.1936
     16  CA        -6.1900   11.1180   19.4370 C.3    82  SER82       0.2040
     17  C         -5.9540   12.2620   20.4080 C.2    82  SER82       0.2485
     18  O         -5.2320   13.1950   20.0720 O.2    82  SER82      -0.2729
     19  CB        -5.0220   10.1380   19.5530 C.3    82  SER82       0.2129
     20  OG        -4.7910    9.7580   20.9100 O.3    82  SER82      -0.2179
     21  N         -6.5060   12.1630   21.6340 N.am   83  PRO83      -0.2715
     22  CA        -6.0680   13.1040   22.6720 C.3    83  PRO83       0.1536
     23  C         -4.5710   13.0360   22.9990 C.2    83  PRO83       0.2598
     24  O         -4.0440   14.0020   23.5470 O.2    83  PRO83      -0.2715
     25  CB        -6.8820   12.6870   23.9080 C.3    83  PRO83       0.0310
     26  CG        -8.0140   11.8960   23.3810 C.3    83  PRO83       0.0237
     27  CD        -7.4830   11.1980   22.1630 C.3    83  PRO83       0.0939
     28  N         -3.9000   11.9320   22.6580 N.am   84  PHE84      -0.1974
     29  CA        -2.4730   11.7340   22.9660 C.3    84  PHE84       0.1639
     30  C         -1.5020   12.0760   21.8280 C.2    84  PHE84       0.2290
     31  O         -0.3440   11.6400   21.8510 O.2    84  PHE84      -0.2864
     32  CB        -2.2470   10.2910   23.4310 C.3    84  PHE84       0.0560
     33  CG        -3.1350    9.8660   24.5750 C.ar   84  PHE84      -0.0200
     34  CD1       -3.3670   10.7100   25.6630 C.ar   84  PHE84      -0.0042
     35  CD2       -3.7260    8.6150   24.5750 C.ar   84  PHE84      -0.0042
     36  CE1       -4.1830   10.3120   26.7150 C.ar   84  PHE84      -0.0003
     37  CE2       -4.5320    8.2060   25.6280 C.ar   84  PHE84      -0.0003
     38  CZ        -4.7660    9.0560   26.6950 C.ar   84  PHE84      -0.0000
     39  N         -0.5450    2.2990   25.0830 N.3    96  ARG96      -0.1231
     40  CA        -1.3350    3.3900   25.6820 C.3    96  ARG96       0.1694
     41  C         -2.2120    4.1260   24.6570 C.2    96  ARG96       0.2592
     42  O         -3.1680    4.8000   25.0320 O.2    96  ARG96      -0.2718
     43  CB        -0.4240    4.4150   26.3660 C.3    96  ARG96       0.0321
     44  CG         0.3690    3.8820   27.5550 C.3    96  ARG96       0.0489
     45  CD         1.4370    4.8730   28.0120 C.3    96  ARG96       0.2205
     46  NE         2.4380    5.1290   26.9750 N.pl3  96  ARG96      -0.0865
     47  CZ         3.4980    5.9310   27.1050 C.cat  96  ARG96       0.5346
     48  NH1        4.3370    6.0830   26.0790 N.pl3  96  ARG96       0.1354
     49  NH2        3.7380    6.5790   28.2470 N.pl3  96  ARG96       0.1354
     50  N         -1.8760    3.9990   23.3740 N.am   97  HIS97      -0.1962
     51  CA        -2.6110    4.6710   22.2890 C.3    97  HIS97       0.1787
     52  C         -3.6400    3.7770   21.5920 C.2    97  HIS97       0.2620
     53  O         -4.3040    4.2170   20.6480 O.2    97  HIS97      -0.2715
     54  CB        -1.5910    5.2730   21.3260 C.3    97  HIS97       0.0785
     55  CG        -0.5670    6.0940   22.0380 C.ar   97  HIS97       0.0821
     56  ND1        0.7840    5.9040   21.8830 N.ar   97  HIS97      -0.2267
     57  CD2       -0.7020    7.0380   22.9980 C.ar   97  HIS97       0.1154
     58  CE1        1.4420    6.7260   22.6790 C.ar   97  HIS97       0.1986
     59  NE2        0.5630    7.4220   23.3700 N.ar   97  HIS97      -0.2212
     60  N         -3.8140    2.5510   22.1040 N.am   98  ALA98      -0.1963
     61  CA        -4.7880    1.6100   21.5580 C.3    98  ALA98       0.1728
     62  C         -6.2020    1.9690   21.9790 C.2    98  ALA98       0.2616
     63  O         -6.4250    2.5440   23.0470 O.2    98  ALA98      -0.2715
     64  CB        -4.4750    0.1840   21.9860 C.3    98  ALA98       0.0334
     65  N         -7.1440    1.6220   21.1080 N.am   99  TYR99      -0.1974
     66  CA        -8.5670    1.7890   21.3470 C.3    99  TYR99       0.1639
     67  C         -9.0610    0.4440   21.8330 C.2    99  TYR99       0.2290
     68  O         -9.3210   -0.4660   21.0330 O.2    99  TYR99      -0.2864
     69  CB        -9.2700    2.2290   20.0510 C.3    99  TYR99       0.0560
     70  CG       -10.7760    2.4590   20.1240 C.ar   99  TYR99      -0.0198
     71  CD1      -11.4620    2.5400   21.3510 C.ar   99  TYR99      -0.0009
     72  CD2      -11.5210    2.6280   18.9540 C.ar   99  TYR99      -0.0009
     73  CE1      -12.8280    2.7630   21.3990 C.ar   99  TYR99       0.0417
     74  CE2      -12.8930    2.8690   18.9990 C.ar   99  TYR99       0.0417
     75  CZ       -13.5410    2.9200   20.2280 C.ar   99  TYR99       0.1957
     76  OH       -14.8950    3.1330   20.3040 O.3    99  TYR99      -0.2866
     77  N         -5.8700    2.3370   15.8840 N.3   109  TYR109     -0.1227
     78  CA        -6.7840    2.5040   14.7670 C.3   109  TYR109      0.1736
     79  C         -6.3920    3.6770   13.8740 C.2   109  TYR109      0.2595
     80  O         -6.0220    4.7410   14.3760 O.2   109  TYR109     -0.2718
     81  CB        -8.2060    2.7390   15.2790 C.3   109  TYR109      0.0548
     82  CG        -8.8970    1.4860   15.7300 C.ar  109  TYR109     -0.0200
     83  CD1       -8.4150    0.7650   16.8160 C.ar  109  TYR109     -0.0009
     84  CD2      -10.0120    1.0040   15.0560 C.ar  109  TYR109     -0.0009
     85  CE1       -9.0360   -0.3970   17.2380 C.ar  109  TYR109      0.0417
     86  CE2      -10.6310   -0.1650   15.4690 C.ar  109  TYR109      0.0417
     87  CZ       -10.1280   -0.8640   16.5510 C.ar  109  TYR109      0.1957
     88  OH       -10.7340   -2.0360   16.9710 O.3   109  TYR109     -0.2866
     89  N         -6.4870    3.4710   12.5610 N.am  110  PHE110     -0.1962
     90  CA        -6.1840    4.4960   11.5590 C.3   110  PHE110      0.1771
     91  C         -7.3050    4.5510   10.5330 C.2   110  PHE110      0.2619
     92  O         -7.9890    3.5450   10.3030 O.2   110  PHE110     -0.2715
     93  CB        -4.8640    4.1630   10.8650 C.3   110  PHE110      0.0574
     94  CG        -3.6900    4.1850   11.7820 C.ar  110  PHE110     -0.0200
     95  CD1       -3.3550    3.0720   12.5370 C.ar  110  PHE110     -0.0042
     96  CD2       -2.9200    5.3340   11.9120 C.ar  110  PHE110     -0.0042
     97  CE1       -2.2830    3.0930   13.4090 C.ar  110  PHE110     -0.0003
     98  CE2       -1.8380    5.3590   12.7770 C.ar  110  PHE110     -0.0003
     99  CZ        -1.5130    4.2370   13.5200 C.ar  110  PHE110     -0.0000
    100  N         -7.4770    5.7130    9.8990 N.am  111  ALA111     -0.1977
    101  CA        -8.5520    5.9280    8.9180 C.3   111  ALA111      0.1597
    102  C         -8.0600    6.4570    7.5820 C.2   111  ALA111      0.2287
    103  O         -7.1650    7.2990    7.5230 O.2   111  ALA111     -0.2864
    104  CB        -9.5680    6.9110    9.4640 C.3   111  ALA111      0.0319
    105  N        -13.1190   10.7500    9.8130 N.3   116  LYS116     -0.1231
    106  CA       -13.2520    9.6710   10.7990 C.3   116  LYS116      0.1693
    107  C        -12.2620    9.9090   11.9460 C.2   116  LYS116      0.2592
    108  O        -12.6570    9.9370   13.1100 O.2   116  LYS116     -0.2718
    109  CB       -13.0790    8.3010   10.1440 C.3   116  LYS116      0.0285
    110  CG       -12.9140    7.1420   11.1020 C.3   116  LYS116      0.0035
    111  CD       -14.0190    7.0140   12.1380 C.3   116  LYS116      0.0206
    112  CE       -15.3860    6.7970   11.5490 C.3   116  LYS116      0.1093
    113  NZ       -16.3180    6.3510   12.6390 N.3   116  LYS116     -0.1314
    114  N        -10.9960   10.1690   11.6150 N.am  117  SER117     -0.1952
    115  CA        -9.9940   10.4770   12.6480 C.3   117  SER117      0.1924
    116  C        -10.3200   11.7450   13.4430 C.2   117  SER117      0.2314
    117  O        -10.0470   11.8040   14.6500 O.2   117  SER117     -0.2863
    118  CB        -8.5810   10.5490   12.0550 C.3   117  SER117      0.2116
    119  OG        -8.1540    9.2640   11.6610 O.3   117  SER117     -0.2180
    120  N        -12.0280   11.5750   16.8550 N.3   120  TYR120     -0.1241
    121  CA       -11.2870   11.1250   18.0270 C.3   120  TYR120      0.1605
    122  C        -10.3160   12.1590   18.5890 C.2   120  TYR120      0.2264
    123  O         -9.6700   11.8850   19.5910 O.2   120  TYR120     -0.2867
    124  CB       -10.5490    9.8260   17.7040 C.3   120  TYR120      0.0534
    125  CG       -11.5110    8.6960   17.4350 C.ar  120  TYR120     -0.0201
    126  CD1      -11.9710    7.8920   18.4750 C.ar  120  TYR120     -0.0009
    127  CD2      -11.9960    8.4590   16.1510 C.ar  120  TYR120     -0.0009
    128  CE1      -12.8680    6.8620   18.2350 C.ar  120  TYR120      0.0417
    129  CE2      -12.9050    7.4420   15.9130 C.ar  120  TYR120      0.0417
    130  CZ       -13.3310    6.6480   16.9580 C.ar  120  TYR120      0.1957
    131  OH       -14.2160    5.6260   16.7210 O.3   120  TYR120     -0.2866
    132  N        -11.2430   12.7600   22.0260 N.3   123  GLY123     -0.1210
    133  CA       -11.5130   11.5190   22.7450 C.3   123  GLY123      0.1956
    134  C        -12.5320   10.6700   22.0220 C.2   123  GLY123      0.2611
    135  O        -13.0830   11.0810   21.0050 O.2   123  GLY123     -0.2717
    136  N        -12.7840    9.4860   22.5760 N.am  124  ILE124     -0.1979
    137  CA       -13.7820    8.5550   22.0350 C.3   124  ILE124      0.1595
    138  C        -15.1500    9.2440   22.0150 C.2   124  ILE124      0.2287
    139  O        -15.5680    9.8450   23.0100 O.2   124  ILE124     -0.2864
    140  CB       -13.8300    7.2590   22.8730 C.3   124  ILE124      0.0276
    141  CG1      -12.5380    6.4510   22.6720 C.3   124  ILE124      0.0022
    142  CG2      -15.0250    6.3920   22.4900 C.3   124  ILE124      0.0022
    143  CD1      -12.2270    5.4860   23.7980 C.3   124  ILE124      0.0001
    144  N        -10.9660    1.4510    7.5440 N.3   186  GLU186     -0.1245
    145  CA       -10.2720    1.7180    8.7830 C.3   186  GLU186      0.1567
    146  C         -9.3270    0.5510    8.9760 C.2   186  GLU186      0.2260
    147  O         -9.5820   -0.5510    8.4690 O.2   186  GLU186     -0.2867
    148  CB       -11.2820    1.8800    9.9190 C.3   186  GLU186      0.0388
    149  CG       -12.2160    3.0560    9.6240 C.3   186  GLU186      0.1160
    150  CD       -13.4750    3.1270   10.4600 C.2   186  GLU186      0.3649
    151  OE1      -13.5010    2.5790   11.5820 O.co2 186  GLU186     -0.2457
    152  OE2      -14.4400    3.7710    9.9900 O.co2 186  GLU186     -0.2457
@<TRIPOS>BOND
     1   103   102    2
     2   144   145    1
     3   102   101    1
     4   147   146    2
     5   145   146    1
     6   145   148    1
     7   101   104    1
     8   101   100    1
     9   149   148    1
    10   149   150    1
    11   105   106    1
    12   100    91   am
    13   152   150   ar
    14   109   106    1
    15   109   110    1
    16    92    91    2
    17   150   151   ar
    18    91    90    1
    19   106   107    1
    20    93    90    1
    21    93    94    1
    22   110   111    1
    23   112   111    1
    24   112   113    1
    25    90    89    1
    26   114   107   am
    27   114   115    1
    28   119   118    1
    29    94    96   ar
    30    94    95   ar
    31     1     2    1
    32    96    98   ar
    33   107   108    2
    34   118   115    1
    35    95    97   ar
    36    89    79   am
    37   115   116    1
    38    98    99   ar
    39     2     5    1
    40     2     3    1
    41    97    99   ar
    42   116   117    2
    43     5     6    1
    44    79    80    2
    45    79    78    1
    46     4     3    2
    47     3    11   am
    48    78    81    1
    49    78    77    1
    50    11    12    1
    51    84    86   ar
    52    84    82   ar
    53     6     7   ar
    54     6     8   ar
    55    81    82    1
    56    86    87   ar
    57     7     9   ar
    58    12    13    1
    59    82    83   ar
    60   129   127   ar
    61   129   130   ar
    62   127   125   ar
    63     8    10   ar
    64    87    88    1
    65    87    85   ar
    66   131   130    1
    67     9    10   ar
    68    83    85   ar
    69   120   121    1
    70   130   128   ar
    71    13    14    2
    72    13    15   am
    73   125   124    1
    74   125   126   ar
    75   124   121    1
    76   121   122    1
    77    15    16    1
    78   128   126   ar
    79   122   123    2
    80    72    74   ar
    81    72    70   ar
    82    74    75   ar
    83    16    19    1
    84    16    17    1
    85    19    20    1
    86    69    70    1
    87    69    66    1
    88    18    17    2
    89    70    71   ar
    90    75    76    1
    91    75    73   ar
    92    17    21   am
    93    53    52    2
    94   135   134    2
    95    68    67    2
    96    65    66    1
    97    65    62   am
    98    54    55    1
    99    54    51    1
   100    66    67    1
   101    71    73   ar
   102    61    62    1
   103    61    64    1
   104    61    60    1
   105    52    60   am
   106    52    51    1
   107    21    27    1
   108    21    22    1
   109    30    31    2
   110    30    29    1
   111    56    55   ar
   112    56    58   ar
   113    62    63    2
   114   138   137    1
   115   138   139    2
   116   134   136   am
   117   134   133    1
   118   132   133    1
   119   137   136    1
   120   137   140    1
   121    55    57   ar
   122    27    26    1
   123    51    50    1
   124   142   140    1
   125    28    29    1
   126    28    23   am
   127   141   140    1
   128   141   143    1
   129    22    23    1
   130    22    25    1
   131    58    59   ar
   132    29    32    1
   133    57    59   ar
   134    23    24    2
   135    50    41   am
   136    26    25    1
   137    32    33    1
   138    33    35   ar
   139    33    34   ar
   140    35    37   ar
   141    41    42    2
   142    41    40    1
   143    39    40    1
   144    37    38   ar
   145    34    36   ar
   146    40    43    1
   147    48    47    1
   148    43    44    1
   149    38    36   ar
   150    46    47    2
   151    46    45    1
   152    47    49    1
   153    44    45    1
