@<TRIPOS>MOLECULE
tmp/5nuuA00.pdb
 245 243 0 0 0
SMALL
GASTEIGER

@<TRIPOS>ATOM
      1  N        107.5100  135.3220  181.3470 N.3    67  TYR67      -0.1241
      2  CA       107.8810  135.0720  182.7060 C.3    67  TYR67       0.1605
      3  C        109.3960  135.2680  182.8260 C.2    67  TYR67       0.2264
      4  O        110.1530  134.9290  181.9200 O.2    67  TYR67      -0.2867
      5  CB       107.4170  133.6900  183.1780 C.3    67  TYR67       0.0534
      6  CG       108.0170  133.3110  184.5140 C.ar   67  TYR67      -0.0201
      7  CD1      109.2900  132.7610  184.5800 C.ar   67  TYR67      -0.0009
      8  CD2      107.3370  133.5390  185.7080 C.ar   67  TYR67      -0.0009
      9  CE1      109.8710  132.4410  185.7910 C.ar   67  TYR67       0.0417
     10  CE2      107.9160  133.2190  186.9220 C.ar   67  TYR67       0.0417
     11  CZ       109.1890  132.6680  186.9540 C.ar   67  TYR67       0.1957
     12  OH       109.8100  132.3240  188.1420 O.3    67  TYR67      -0.2866
     13  N        112.8180  134.7730  185.2960 N.3    69  ASP69      -0.1239
     14  CA       113.4470  133.9080  186.2790 C.3    69  ASP69       0.1674
     15  C        114.1250  134.7900  187.3080 C.2    69  ASP69       0.2266
     16  O        115.0220  135.5570  186.9500 O.2    69  ASP69      -0.2867
     17  CB       114.5050  133.0280  185.5860 C.3    69  ASP69       0.1410
     18  CG       115.1670  132.0240  186.5350 C.2    69  ASP69       0.3668
     19  OD1      114.5420  131.7660  187.5900 O.co2  69  ASP69      -0.2456
     20  OD2      116.2830  131.4920  186.2330 O.co2  69  ASP69      -0.2456
     21  N        115.0440  133.2180  190.4280 N.3    71  GLN71      -0.1245
     22  CA       115.4740  132.1990  191.3510 C.3    71  GLN71       0.1566
     23  C        116.8720  132.4640  191.8780 C.2    71  GLN71       0.2260
     24  O        117.1720  132.1570  193.0120 O.2    71  GLN71      -0.2867
     25  CB       115.4810  130.8720  190.6260 C.3    71  GLN71       0.0367
     26  CG       115.6170  129.6570  191.5040 C.3    71  GLN71       0.0905
     27  CD       114.3810  129.4430  192.3190 C.2    71  GLN71       0.2608
     28  OE1      113.2620  129.6000  191.8200 O.2    71  GLN71      -0.2717
     29  NE2      114.5690  129.0880  193.5830 N.am   71  GLN71      -0.0878
     30  N        121.9690  132.1640  185.1230 N.3    78  SER78      -0.1217
     31  CA       120.5270  132.2070  184.9110 C.3    78  SER78       0.1889
     32  C        120.0390  133.4840  184.2180 C.2    78  SER78       0.2288
     33  O        119.0140  133.4580  183.5030 O.2    78  SER78      -0.2866
     34  CB       119.7590  132.0510  186.2480 C.3    78  SER78       0.2089
     35  OG       119.9290  133.1840  187.0930 O.3    78  SER78      -0.2183
     36  N        119.8000  134.1450  180.2610 N.3    81  TRP81      -0.1241
     37  CA       118.6530  133.5090  179.5530 C.3    81  TRP81       0.1605
     38  C        117.4200  134.4070  179.5810 C.2    81  TRP81       0.2264
     39  O        116.4310  134.1640  178.8610 O.2    81  TRP81      -0.2867
     40  CB       118.1880  132.1440  180.0580 C.3    81  TRP81       0.0550
     41  CG       119.2510  131.1180  180.0760 C.ar   81  TRP81       0.0003
     42  CD1      119.8840  130.6380  181.1520 C.ar   81  TRP81       0.0946
     43  CD2      119.7870  130.4350  178.9510 C.ar   81  TRP81       0.0152
     44  NE1      120.7850  129.7020  180.7880 N.ar   81  TRP81      -0.2442
     45  CE2      120.7500  129.5540  179.4300 C.ar   81  TRP81       0.0810
     46  CE3      119.5500  130.4930  177.5780 C.ar   81  TRP81       0.0012
     47  CZ2      121.4970  128.7180  178.5770 C.ar   81  TRP81       0.0191
     48  CZ3      120.2600  129.6670  176.7500 C.ar   81  TRP81       0.0001
     49  CH2      121.2300  128.7960  177.2510 C.ar   81  TRP81       0.0015
     50  N        114.7230  128.6760  171.9220 N.3   114  GLY114     -0.1210
     51  CA       113.9610  127.8670  172.8950 C.3   114  GLY114      0.1956
     52  C        113.5000  128.6510  174.1130 C.2   114  GLY114      0.2612
     53  O        113.5070  129.8820  174.1360 O.2   114  GLY114     -0.2717
     54  N        113.1440  127.9090  175.1520 N.am  115  GLY115     -0.1956
     55  CA       112.5550  128.4840  176.3870 C.3   115  GLY115      0.1869
     56  C        111.1450  127.9730  176.6590 C.2   115  GLY115      0.2309
     57  O        110.2700  128.7330  177.1160 O.2   115  GLY115     -0.2863
     58  N        107.3460  129.4280  176.5590 N.3   118  TYR118     -0.1227
     59  CA       106.8430  130.3910  177.5710 C.3   118  TYR118      0.1736
     60  C        107.8270  131.5150  177.8270 C.2   118  TYR118      0.2596
     61  O        107.5090  132.4960  178.4690 O.2   118  TYR118     -0.2718
     62  CB       106.5220  129.6680  178.9000 C.3   118  TYR118      0.0548
     63  CG       107.7460  129.2400  179.6780 C.ar  118  TYR118     -0.0200
     64  CD1      108.4780  130.1630  180.4320 C.ar  118  TYR118     -0.0009
     65  CD2      108.2050  127.9340  179.6260 C.ar  118  TYR118     -0.0009
     66  CE1      109.6100  129.7880  181.1320 C.ar  118  TYR118      0.0417
     67  CE2      109.3470  127.5650  180.2900 C.ar  118  TYR118      0.0417
     68  CZ       110.0290  128.4970  181.0650 C.ar  118  TYR118      0.1957
     69  OH       111.1640  128.1260  181.7500 O.3   118  TYR118     -0.2866
     70  N        109.0330  131.3590  177.3270 N.am  119  SER119     -0.1952
     71  CA       110.0350  132.3930  177.3770 C.3   119  SER119      0.1924
     72  C        110.9840  132.2960  176.1400 C.2   119  SER119      0.2314
     73  O        110.9460  131.3220  175.3640 O.2   119  SER119     -0.2863
     74  CB       110.8630  132.1360  178.6260 C.3   119  SER119      0.2116
     75  OG       111.3860  130.8070  178.5700 O.3   119  SER119     -0.2180
     76  N        123.0470  134.2550  171.8500 N.3   127  TYR127     -0.1241
     77  CA       122.5410  134.1300  170.4590 C.3   127  TYR127      0.1605
     78  C        123.1080  135.2020  169.4820 C.2   127  TYR127      0.2264
     79  O        122.5070  135.4950  168.4440 O.2   127  TYR127     -0.2867
     80  CB       121.0210  134.1780  170.3970 C.3   127  TYR127      0.0534
     81  CG       120.2510  133.2370  171.2760 C.ar  127  TYR127     -0.0201
     82  CD1      120.7510  131.9960  171.6690 C.ar  127  TYR127     -0.0009
     83  CD2      118.9780  133.5970  171.7000 C.ar  127  TYR127     -0.0009
     84  CE1      120.0180  131.1700  172.5000 C.ar  127  TYR127      0.0417
     85  CE2      118.2250  132.7660  172.4920 C.ar  127  TYR127      0.0417
     86  CZ       118.7540  131.5660  172.9190 C.ar  127  TYR127      0.1957
     87  OH       117.9410  130.7770  173.7100 O.3   127  TYR127     -0.2866
     88  N        117.0880  125.2420  169.4560 N.3   196  GLU196     -0.1231
     89  CA       117.3250  124.4770  170.6770 C.3   196  GLU196      0.1699
     90  C        116.0660  124.3830  171.4970 C.2   196  GLU196      0.2592
     91  O        115.2480  125.3150  171.5640 O.2   196  GLU196     -0.2718
     92  CB       118.4490  125.0750  171.4300 C.3   196  GLU196      0.0402
     93  CG       119.0560  124.1570  172.4780 C.3   196  GLU196      0.1161
     94  CD       118.4700  124.3720  173.8650 C.2   196  GLU196      0.3649
     95  OE1      117.6980  125.3420  174.0290 O.co2 196  GLU196     -0.2457
     96  OE2      118.7880  123.5720  174.7700 O.co2 196  GLU196     -0.2457
     97  N        115.8300  123.2030  172.0280 N.am  197  SER197     -0.1952
     98  CA       114.7700  123.0380  173.0000 C.3   197  SER197      0.1924
     99  C        113.5080  123.3990  172.2080 C.2   197  SER197      0.2314
    100  O        113.2850  122.8530  171.1540 O.2   197  SER197     -0.2863
    101  CB       115.0020  123.9100  174.2920 C.3   197  SER197      0.2116
    102  OG       113.9970  123.6660  175.2910 O.3   197  SER197     -0.2180
    103  N        100.9080  136.6380  182.8880 N.3   272  ILE272     -0.1231
    104  CA       102.1140  135.9710  183.3050 C.3   272  ILE272      0.1692
    105  C        102.0040  135.5150  184.7690 C.2   272  ILE272      0.2592
    106  O        102.2100  134.3680  185.0540 O.2   272  ILE272     -0.2718
    107  CB       103.3070  136.8850  183.0390 C.3   272  ILE272      0.0266
    108  CG1      103.5160  136.9680  181.5140 C.3   272  ILE272      0.0019
    109  CG2      104.5490  136.3770  183.7560 C.3   272  ILE272      0.0020
    110  CD1      104.2450  138.2200  181.0400 C.3   272  ILE272      0.0001
    111  N        101.6100  136.4160  185.6620 N.am  273  ASP273     -0.1974
    112  CA       101.3950  136.1230  187.0870 C.3   273  ASP273      0.1709
    113  C        100.6590  134.8380  187.4040 C.2   273  ASP273      0.2293
    114  O        101.0660  134.1740  188.3340 O.2   273  ASP273     -0.2864
    115  CB       100.6510  137.2750  187.7880 C.3   273  ASP273      0.1436
    116  CG       101.5620  138.4690  188.1100 C.2   273  ASP273      0.3671
    117  OD1      102.8060  138.3210  188.0680 O.co2 273  ASP273     -0.2456
    118  OD2      101.0280  139.5690  188.4090 O.co2 273  ASP273     -0.2456
    119  N        101.2230  129.6190  185.3560 N.3   276  TRP276     -0.1227
    120  CA       101.6120  128.2920  185.8270 C.3   276  TRP276      0.1737
    121  C        100.5190  127.6080  186.6210 C.2   276  TRP276      0.2595
    122  O        100.5980  126.4330  186.8500 O.2   276  TRP276     -0.2718
    123  CB       102.8900  128.3440  186.6620 C.3   276  TRP276      0.0564
    124  CG       104.1260  128.7840  185.9120 C.ar  276  TRP276      0.0003
    125  CD1      104.5700  130.0780  185.7250 C.ar  276  TRP276      0.0946
    126  CD2      105.0600  127.9420  185.2520 C.ar  276  TRP276      0.0152
    127  NE1      105.7290  130.0830  184.9890 N.ar  276  TRP276     -0.2442
    128  CE2      106.0640  128.7880  184.6880 C.ar  276  TRP276      0.0810
    129  CE3      105.1640  126.5550  185.0840 C.ar  276  TRP276      0.0012
    130  CZ2      107.1590  128.2870  183.9670 C.ar  276  TRP276      0.0191
    131  CZ3      106.2670  126.0500  184.3690 C.ar  276  TRP276      0.0001
    132  CH2      107.2510  126.9190  183.8250 C.ar  276  TRP276      0.0015
    133  N         99.4520  128.3100  186.9540 N.am  277  ASN277     -0.1974
    134  CA        98.4420  127.7370  187.7970 C.3   277  ASN277      0.1688
    135  C         97.3680  127.0090  186.9970 C.2   277  ASN277      0.2292
    136  O         96.2560  126.8200  187.4850 O.2   277  ASN277     -0.2864
    137  CB        97.8630  128.8380  188.7230 C.3   277  ASN277      0.1181
    138  CG        98.9660  129.7310  189.4090 C.2   277  ASN277      0.2629
    139  OD1      100.1740  129.4690  189.3690 O.2   277  ASN277     -0.2716
    140  ND2       98.5160  130.8170  190.0020 N.am  277  ASN277     -0.0877
    141  N        104.6200  122.6930  180.5120 N.3   287  PHE287     -0.1241
    142  CA       104.5010  124.1100  180.2350 C.3   287  PHE287      0.1605
    143  C        103.0730  124.3710  179.8860 C.2   287  PHE287      0.2264
    144  O        102.4050  123.5490  179.2630 O.2   287  PHE287     -0.2867
    145  CB       105.4260  124.4970  179.0940 C.3   287  PHE287      0.0534
    146  CG       106.8530  124.0520  179.2930 C.ar  287  PHE287     -0.0203
    147  CD1      107.5940  124.5240  180.3610 C.ar  287  PHE287     -0.0042
    148  CD2      107.4620  123.1850  178.3990 C.ar  287  PHE287     -0.0042
    149  CE1      108.9190  124.1050  180.5670 C.ar  287  PHE287     -0.0003
    150  CE2      108.7880  122.7760  178.5790 C.ar  287  PHE287     -0.0003
    151  CZ       109.5250  123.2330  179.6700 C.ar  287  PHE287     -0.0000
    152  N        118.7840  120.8370  184.8650 N.3   327  PHE327     -0.1227
    153  CA       118.2550  122.1680  185.0350 C.3   327  PHE327      0.1736
    154  C        116.8120  122.1980  185.6470 C.2   327  PHE327      0.2595
    155  O        116.4680  123.0770  186.4510 O.2   327  PHE327     -0.2718
    156  CB       118.3650  122.8950  183.6640 C.3   327  PHE327      0.0547
    157  CG       117.2470  123.8480  183.3820 C.ar  327  PHE327     -0.0202
    158  CD1      117.0480  124.9540  184.1780 C.ar  327  PHE327     -0.0042
    159  CD2      116.4080  123.6370  182.3250 C.ar  327  PHE327     -0.0042
    160  CE1      115.9990  125.8320  183.9320 C.ar  327  PHE327     -0.0003
    161  CE2      115.3510  124.4960  182.0770 C.ar  327  PHE327     -0.0003
    162  CZ       115.1340  125.5920  182.8880 C.ar  327  PHE327     -0.0000
    163  N        115.9820  121.2440  185.2730 N.am  328  PHE328     -0.1976
    164  CA       114.6040  121.2170  185.7360 C.3   328  PHE328      0.1639
    165  C        114.4960  120.6290  187.1370 C.2   328  PHE328      0.2290
    166  O        113.6630  121.0570  187.8780 O.2   328  PHE328     -0.2864
    167  CB       113.7240  120.3560  184.8140 C.3   328  PHE328      0.0560
    168  CG       113.8270  120.7440  183.4070 C.ar  328  PHE328     -0.0200
    169  CD1      114.8280  120.2220  182.6200 C.ar  328  PHE328     -0.0042
    170  CD2      112.9790  121.6880  182.8900 C.ar  328  PHE328     -0.0042
    171  CE1      114.9960  120.6410  181.3350 C.ar  328  PHE328     -0.0003
    172  CE2      113.1060  122.0790  181.5860 C.ar  328  PHE328     -0.0003
    173  CZ       114.1230  121.5530  180.8090 C.ar  328  PHE328     -0.0000
    174  N        115.4890  123.3640  189.4410 N.3   331  TYR331     -0.1227
    175  CA       114.5010  124.4200  189.6050 C.3   331  TYR331      0.1736
    176  C        113.2100  123.9520  190.1930 C.2   331  TYR331      0.2596
    177  O        112.4720  124.7490  190.7410 O.2   331  TYR331     -0.2718
    178  CB       114.1900  125.0870  188.2720 C.3   331  TYR331      0.0548
    179  CG       115.0960  126.2430  187.9140 C.ar  331  TYR331     -0.0200
    180  CD1      116.4120  126.0290  187.5890 C.ar  331  TYR331     -0.0009
    181  CD2      114.6280  127.5380  187.8980 C.ar  331  TYR331     -0.0009
    182  CE1      117.2500  127.0750  187.2880 C.ar  331  TYR331      0.0417
    183  CE2      115.4650  128.6110  187.5800 C.ar  331  TYR331      0.0417
    184  CZ       116.7770  128.3600  187.2470 C.ar  331  TYR331      0.1957
    185  OH       117.6680  129.3700  186.9130 O.3   331  TYR331     -0.2866
    186  N        112.9050  122.6730  190.0660 N.am  332  GLY332     -0.1957
    187  CA       111.5690  122.1920  190.4470 C.3   332  GLY332      0.1869
    188  C        111.4550  120.8880  191.2400 C.2   332  GLY332      0.2309
    189  O        110.3450  120.4460  191.4880 O.2   332  GLY332     -0.2863
    190  N        127.5370  126.8450  186.9010 N.3   429  TRP429     -0.1241
    191  CA       126.5890  125.9790  187.5520 C.3   429  TRP429      0.1605
    192  C        127.4320  124.8990  188.1950 C.2   429  TRP429      0.2264
    193  O        128.5600  124.6920  187.7830 O.2   429  TRP429     -0.2867
    194  CB       125.6000  125.3480  186.5440 C.3   429  TRP429      0.0550
    195  CG       124.6790  126.3660  185.9520 C.ar  429  TRP429      0.0003
    196  CD1      124.7890  126.9480  184.7180 C.ar  429  TRP429      0.0946
    197  CD2      123.5350  126.9790  186.5660 C.ar  429  TRP429      0.0152
    198  NE1      123.7910  127.8720  184.5330 N.ar  429  TRP429     -0.2442
    199  CE2      123.0010  127.9040  185.6390 C.ar  429  TRP429      0.0810
    200  CE3      122.9040  126.8300  187.7860 C.ar  429  TRP429      0.0012
    201  CZ2      121.8980  128.6770  185.9140 C.ar  429  TRP429      0.0191
    202  CZ3      121.7910  127.6010  188.0520 C.ar  429  TRP429      0.0001
    203  CH2      121.2940  128.4960  187.1180 C.ar  429  TRP429      0.0015
    204  N        125.2510  119.0550  187.9440 N.3   433  MET433     -0.1245
    205  CA       124.3350  119.3370  186.8450 C.3   433  MET433      0.1570
    206  C        124.8600  118.8260  185.4980 C.2   433  MET433      0.2261
    207  O        124.0820  118.6250  184.5780 O.2   433  MET433     -0.2867
    208  CB       124.0280  120.8500  186.7740 C.3   433  MET433      0.0387
    209  CG       123.1980  121.2950  187.9590 C.3   433  MET433      0.0595
    210  SD       122.8830  123.0220  187.8520 S.3   433  MET433     -0.1393
    211  CE       121.4370  123.0100  186.8290 C.3   433  MET433      0.0692
    212  N        124.6250  120.5330  180.4920 N.3   436  ILE436     -0.1231
    213  CA       123.3210  121.0530  180.7840 C.3   436  ILE436      0.1692
    214  C        122.5040  121.5020  179.5480 C.2   436  ILE436      0.2592
    215  O        123.0300  122.0730  178.5620 O.2   436  ILE436     -0.2718
    216  CB       123.5030  122.2960  181.6930 C.3   436  ILE436      0.0266
    217  CG1      124.1140  121.8850  183.0320 C.3   436  ILE436      0.0019
    218  CG2      122.1880  123.0110  181.9670 C.3   436  ILE436      0.0020
    219  CD1      124.3560  123.0540  183.9580 C.3   436  ILE436      0.0001
    220  N        121.1950  121.3300  179.6570 N.am  437  HIS437     -0.1962
    221  CA       120.2640  121.8290  178.6840 C.3   437  HIS437      0.1787
    222  C        120.6350  123.2590  178.3340 C.2   437  HIS437      0.2621
    223  O        120.4770  124.1880  179.1110 O.2   437  HIS437     -0.2715
    224  CB       118.8840  121.6890  179.2540 C.3   437  HIS437      0.0785
    225  CG       117.7780  121.8990  178.2850 C.ar  437  HIS437      0.0821
    226  ND1      117.4980  121.0080  177.2710 N.ar  437  HIS437     -0.2267
    227  CD2      116.8070  122.8440  178.2440 C.ar  437  HIS437      0.1154
    228  CE1      116.4200  121.4150  176.6200 C.ar  437  HIS437      0.1986
    229  NE2      115.9860  122.5320  177.1890 N.ar  437  HIS437     -0.2212
    230  N        121.1510  123.4240  177.1300 N.am  438  GLY438     -0.1940
    231  CA       121.3470  124.7520  176.5680 C.3   438  GLY438      0.2014
    232  C        122.7810  125.1400  176.4350 C.2   438  GLY438      0.2638
    233  O        123.1090  126.1870  175.8900 O.2   438  GLY438     -0.2714
    234  N        123.6750  124.3170  176.9310 N.am  439  TYR439     -0.1973
    235  CA       125.0560  124.7950  177.0500 C.3   439  TYR439      0.1639
    236  C        125.9390  124.3460  175.8880 C.2   439  TYR439      0.2290
    237  O        127.1390  124.6530  175.8710 O.2   439  TYR439     -0.2864
    238  CB       125.6260  124.5220  178.5030 C.3   439  TYR439      0.0560
    239  CG       125.1030  125.5920  179.4500 C.ar  439  TYR439     -0.0198
    240  CD1      123.8040  125.5420  179.9300 C.ar  439  TYR439     -0.0009
    241  CD2      125.8520  126.7130  179.7440 C.ar  439  TYR439     -0.0009
    242  CE1      123.2850  126.5440  180.7660 C.ar  439  TYR439      0.0417
    243  CE2      125.3410  127.7360  180.5540 C.ar  439  TYR439      0.0417
    244  CZ       124.0630  127.6300  181.0690 C.ar  439  TYR439      0.1957
    245  OH       123.5510  128.6290  181.8300 O.3   439  TYR439     -0.2866
@<TRIPOS>BOND
     1    79    78    2
     2    88    89    1
     3    78    77    1
     4    80    77    1
     5    80    81    1
     6    77    76    1
     7    89    92    1
     8    89    90    1
     9   100    99    2
    10    81    82   ar
    11    81    83   ar
    12    92    93    1
    13    90    91    2
    14    90    97   am
    15    82    84   ar
    16    83    85   ar
    17    50    51    1
    18    97    98    1
    19    99    98    1
    20    93    94    1
    21    85    86   ar
    22    84    86   ar
    23    51    52    1
    24    86    87    1
    25    98   101    1
    26    94    95   ar
    27    94    96   ar
    28    52    53    2
    29    52    54   am
    30   101   102    1
    31    54    55    1
    32    73    72    2
    33   237   236    2
    34   236   235    1
    35   233   232    2
    36    72    71    1
    37    55    56    1
    38   232   231    1
    39   232   234   am
    40    58    59    1
    41   231   230    1
    42   228   229   ar
    43   228   226   ar
    44    56    57    2
    45    48    49   ar
    46    48    46   ar
    47   234   235    1
    48   235   238    1
    49   230   222   am
    50   229   227   ar
    51    49    47   ar
    52   226   225   ar
    53    70    71    1
    54    70    60   am
    55    71    74    1
    56    59    60    1
    57    59    62    1
    58    46    43   ar
    59    60    61    2
    60   227   225   ar
    61   225   224    1
    62   222   221    1
    63   222   223    2
    64   148   150   ar
    65   148   146   ar
    66   238   239    1
    67   215   214    2
    68    75    74    1
    69    47    45   ar
    70   150   151   ar
    71   221   224    1
    72   221   220    1
    73    39    38    2
    74    62    63    1
    75    43    45   ar
    76    43    41   ar
    77   145   146    1
    78   145   142    1
    79   144   143    2
    80   146   147   ar
    81    45    44   ar
    82   239   241   ar
    83   239   240   ar
    84   214   220   am
    85   214   213    1
    86    37    38    1
    87    37    40    1
    88    37    36    1
    89    65    63   ar
    90    65    67   ar
    91   151   149   ar
    92    63    64   ar
    93   241   243   ar
    94   143   142    1
    95   240   242   ar
    96    40    41    1
    97    41    42   ar
    98   142   141    1
    99    67    68   ar
   100   147   149   ar
   101    64    66   ar
   102   212   213    1
   103   243   244   ar
   104   242   244   ar
   105   213   216    1
   106    44    42   ar
   107   173   171   ar
   108   173   172   ar
   109   110   108    1
   110    68    66   ar
   111    68    69    1
   112   244   245    1
   113   171   169   ar
   114     1     2    1
   115   108   107    1
   116   172   170   ar
   117   216   218    1
   118   216   217    1
   119     4     3    2
   120   161   159   ar
   121   161   162   ar
   122   159   157   ar
   123   169   168   ar
   124     2     3    1
   125     2     5    1
   126   103   104    1
   127   162   160   ar
   128   170   168   ar
   129   217   219    1
   130   107   104    1
   131   107   109    1
   132     5     6    1
   133   104   105    1
   134   157   156    1
   135   157   158   ar
   136   168   167    1
   137    33    32    2
   138   156   153    1
   139   132   130   ar
   140   132   131   ar
   141   160   158   ar
   142   130   128   ar
   143    32    31    1
   144   131   129   ar
   145     6     7   ar
   146     6     8   ar
   147   198   196   ar
   148   198   199   ar
   149   207   206    2
   150     7     9   ar
   151   128   127   ar
   152   128   126   ar
   153   196   195   ar
   154   105   106    2
   155   105   111   am
   156   167   164    1
   157   152   153    1
   158    31    30    1
   159    31    34    1
   160   127   125   ar
   161   153   154    1
   162   129   126   ar
   163   126   124   ar
   164   163   154   am
   165   163   164    1
   166    13    14    1
   167   119   120    1
   168   206   205    1
   169    17    14    1
   170    17    18    1
   171   199   201   ar
   172   199   197   ar
   173   154   155    2
   174   111   112    1
   175     8    10   ar
   176   125   124   ar
   177   164   165    1
   178     9    11   ar
   179   120   121    1
   180   120   123    1
   181   124   123    1
   182   201   203   ar
   183   195   194    1
   184   195   197   ar
   185    20    18   ar
   186    34    35    1
   187    14    15    1
   188    18    19   ar
   189   194   191    1
   190   197   200   ar
   191   121   122    2
   192   121   133   am
   193   208   205    1
   194   208   209    1
   195   211   210    1
   196   205   204    1
   197   190   191    1
   198   185   184    1
   199    10    11   ar
   200    16    15    2
   201   133   134    1
   202    11    12    1
   203   135   136    2
   204   135   134    1
   205   112   113    1
   206   112   115    1
   207   203   202   ar
   208   165   166    2
   209   184   182   ar
   210   184   183   ar
   211   182   180   ar
   212   113   114    2
   213   191   192    1
   214   183   181   ar
   215   180   179   ar
   216   193   192    2
   217   200   202   ar
   218   115   116    1
   219   134   137    1
   220   210   209    1
   221   181   179   ar
   222   179   178    1
   223   117   116   ar
   224   116   118   ar
   225   178   175    1
   226   137   138    1
   227   139   138    2
   228   138   140   am
   229   174   175    1
   230   175   176    1
   231   186   176   am
   232   186   187    1
   233   176   177    2
   234    21    22    1
   235   187   188    1
   236    25    22    1
   237    25    26    1
   238   188   189    2
   239    22    23    1
   240    26    27    1
   241    28    27    2
   242    23    24    2
   243    27    29   am
