@<TRIPOS>MOLECULE
tmp/5nuzF02.pdb
 101 93 0 0 0
SMALL
GASTEIGER

@<TRIPOS>ATOM
      1  N         24.3320  -16.0870   29.8840 N.3    29  ALA29      -0.1245
      2  CA        23.7480  -16.7220   28.7100 C.3    29  ALA29       0.1562
      3  C         24.4980  -16.2510   27.4590 C.2    29  ALA29       0.2260
      4  O         24.1100  -15.2770   26.8100 O.2    29  ALA29      -0.2867
      5  CB        22.2630  -16.4220   28.6090 C.3    29  ALA29       0.0290
      6  N         24.9100  -18.1120   24.7210 N.3    31  LEU31      -0.1231
      7  CA        24.0650  -18.5470   23.6300 C.3    31  LEU31       0.1693
      8  C         22.5910  -18.4920   24.0160 C.2    31  LEU31       0.2592
      9  O         22.2430  -18.7130   25.1710 O.2    31  LEU31      -0.2718
     10  CB        24.4360  -19.9760   23.2210 C.3    31  LEU31       0.0284
     11  CG        25.9280  -20.2810   22.9960 C.3    31  LEU31       0.0019
     12  CD1       26.1010  -21.7280   22.5560 C.3    31  LEU31       0.0001
     13  CD2       26.5460  -19.3400   21.9790 C.3    31  LEU31       0.0001
     14  N         21.7490  -18.1970   23.0250 N.am   32  LEU32      -0.1966
     15  CA        20.2960  -18.1870   23.1790 C.3    32  LEU32       0.1713
     16  C         19.6690  -18.9680   22.0260 C.2    32  LEU32       0.2458
     17  O         20.2090  -18.9430   20.9210 O.2    32  LEU32      -0.2730
     18  CB        19.7740  -16.7530   23.1760 C.3    32  LEU32       0.0310
     19  CG        20.3100  -15.8580   24.3010 C.3    32  LEU32       0.0022
     20  CD1       20.0070  -14.4080   24.0040 C.3    32  LEU32       0.0001
     21  CD2       19.7230  -16.2710   25.6380 C.3    32  LEU32       0.0001
     22  N         18.5330  -19.6520   22.2740 N.am   33  PRO33      -0.2727
     23  CA        17.9070  -20.4720   21.2170 C.3    33  PRO33       0.1402
     24  C         17.4840  -19.7110   19.9500 C.2    33  PRO33       0.2269
     25  O         17.5040  -20.2840   18.8720 O.2    33  PRO33      -0.2865
     26  CB        16.6970  -21.1050   21.9200 C.3    33  PRO33       0.0296
     27  CG        16.4490  -20.2850   23.1160 C.3    33  PRO33       0.0237
     28  CD        17.7780  -19.7330   23.5390 C.3    33  PRO33       0.0939
     29  N         22.7410  -25.9240   23.3900 N.3    76  LEU76      -0.1245
     30  CA        23.0380  -24.9550   22.3420 C.3    76  LEU76       0.1561
     31  C         24.5020  -24.9780   22.0020 C.2    76  LEU76       0.2260
     32  O         25.3340  -25.2590   22.8710 O.2    76  LEU76      -0.2867
     33  CB        22.6640  -23.5470   22.8110 C.3    76  LEU76       0.0270
     34  CG        21.2180  -23.3350   23.2630 C.3    76  LEU76       0.0019
     35  CD1       21.0670  -21.9940   23.9330 C.3    76  LEU76       0.0001
     36  CD2       20.2710  -23.4280   22.0920 C.3    76  LEU76       0.0001
     37  N         26.7070  -24.8800   25.3330 N.3    89  GLN89      -0.1245
     38  CA        26.1300  -24.3310   26.5400 C.3    89  GLN89       0.1566
     39  C         24.9500  -25.1810   26.9760 C.2    89  GLN89       0.2260
     40  O         24.0000  -25.3640   26.2030 O.2    89  GLN89      -0.2867
     41  CB        25.6620  -22.8970   26.3010 C.3    89  GLN89       0.0367
     42  CG        25.0130  -22.2170   27.5030 C.3    89  GLN89       0.0905
     43  CD        24.4600  -20.8550   27.1380 C.2    89  GLN89       0.2608
     44  OE1       25.2170  -19.9110   26.9430 O.2    89  GLN89      -0.2717
     45  NE2       23.1410  -20.7580   27.0100 N.am   89  GLN89      -0.0878
     46  N         22.0490  -25.7880   30.0670 N.3    91  ASN91      -0.1240
     47  CA        21.3240  -25.1630   31.1700 C.3    91  ASN91       0.1653
     48  C         21.2500  -26.0970   32.3550 C.2    91  ASN91       0.2266
     49  O         20.5030  -27.0790   32.3220 O.2    91  ASN91      -0.2867
     50  CB        19.9170  -24.7710   30.7150 C.3    91  ASN91       0.1155
     51  CG        19.2640  -23.7760   31.6460 C.2    91  ASN91       0.2627
     52  OD1       19.6510  -23.6360   32.8160 O.2    91  ASN91      -0.2716
     53  ND2       18.2610  -23.0600   31.1150 N.am   91  ASN91      -0.0877
     54  N         20.4730  -25.0090   35.4980 N.3    93  SER93      -0.1217
     55  CA        19.7660  -24.2370   36.5230 C.3    93  SER93       0.1889
     56  C         18.8490  -25.1500   37.3430 C.2    93  SER93       0.2288
     57  O         17.9720  -25.8120   36.7900 O.2    93  SER93      -0.2866
     58  CB        18.9430  -23.1170   35.8820 C.3    93  SER93       0.2089
     59  OG        19.7670  -22.2360   35.1420 O.3    93  SER93      -0.2183
     60  N         16.1170  -25.2640   38.9730 N.3    95  THR95      -0.1203
     61  CA        14.9120  -24.4360   39.0650 C.3    95  THR95       0.1994
     62  C         13.8610  -24.7730   37.9910 C.2    95  THR95       0.2618
     63  O         14.2010  -25.0970   36.8420 O.2    95  THR95      -0.2717
     64  CB        15.2110  -22.9120   38.9760 C.3    95  THR95       0.1784
     65  OG1       14.0040  -22.1700   39.2040 O.3    95  THR95      -0.2211
     66  CG2       15.8180  -22.4890   37.6330 C.3    95  THR95       0.0376
     67  N         12.5860  -24.6800   38.3770 N.am   96  GLY96      -0.1942
     68  CA        11.4650  -24.8680   37.4580 C.3    96  GLY96       0.2014
     69  C         11.4510  -26.2120   36.7340 C.2    96  GLY96       0.2639
     70  O         11.7680  -27.2660   37.3170 O.2    96  GLY96      -0.2714
     71  N         11.1190  -26.1550   35.4420 N.am   97  VAL97      -0.1963
     72  CA        11.0590  -27.3410   34.5740 C.3    97  VAL97       0.1727
     73  C         12.4300  -28.0400   34.4560 C.2    97  VAL97       0.2616
     74  O         12.4980  -29.2480   34.1990 O.2    97  VAL97      -0.2715
     75  CB        10.5210  -26.9720   33.1550 C.3    97  VAL97       0.0290
     76  CG1       10.5010  -28.1840   32.2180 C.3    97  VAL97       0.0023
     77  CG2        9.1250  -26.3480   33.2470 C.3    97  VAL97       0.0023
     78  N         13.5100  -27.2820   34.6470 N.am   98  ASN98      -0.1972
     79  CA        14.8620  -27.8090   34.5070 C.3    98  ASN98       0.1688
     80  C         15.3960  -28.5890   35.7230 C.2    98  ASN98       0.2292
     81  O         16.4420  -29.2400   35.6010 O.2    98  ASN98      -0.2864
     82  CB        15.8220  -26.6600   34.1510 C.3    98  ASN98       0.1181
     83  CG        17.0630  -27.1430   33.4410 C.2    98  ASN98       0.2629
     84  OD1       16.9790  -27.8870   32.4460 O.2    98  ASN98      -0.2716
     85  ND2       18.2220  -26.7580   33.9570 N.am   98  ASN98      -0.0877
     86  N         19.9380  -18.9570   38.1080 N.3   125  LEU125     -0.1245
     87  CA        20.2970  -19.2110   36.7110 C.3   125  LEU125      0.1561
     88  C         21.7440  -19.7050   36.6760 C.2   125  LEU125      0.2260
     89  O         22.6140  -19.0540   37.2240 O.2   125  LEU125     -0.2867
     90  CB        20.1400  -17.9350   35.8800 C.3   125  LEU125      0.0270
     91  CG        20.4710  -18.0280   34.3920 C.3   125  LEU125      0.0019
     92  CD1       19.5740  -19.0470   33.7220 C.3   125  LEU125      0.0001
     93  CD2       20.3400  -16.6670   33.7160 C.3   125  LEU125      0.0001
     94  N         24.4940  -21.7880   33.8890 N.3   127  LEU127     -0.1245
     95  CA        24.6770  -22.3120   32.5390 C.3   127  LEU127      0.1561
     96  C         26.1050  -22.7840   32.3790 C.2   127  LEU127      0.2260
     97  O         27.0510  -22.0110   32.5780 O.2   127  LEU127     -0.2867
     98  CB        24.3770  -21.2180   31.5070 C.3   127  LEU127      0.0270
     99  CG        22.9740  -20.6030   31.6380 C.3   127  LEU127      0.0019
    100  CD1       22.8370  -19.2150   31.1100 C.3   127  LEU127      0.0001
    101  CD2       21.9880  -21.5110   30.9590 C.3   127  LEU127      0.0001
@<TRIPOS>BOND
     1    25    24    2
     2    24    23    1
     3    17    16    2
     4    23    26    1
     5    23    22    1
     6    26    27    1
     7    13    11    1
     8    31    30    1
     9    31    32    2
    10    16    22   am
    11    16    15    1
    12    36    34    1
    13    22    28    1
    14    30    33    1
    15    30    29    1
    16    12    11    1
    17    33    34    1
    18    11    10    1
    19    14    15    1
    20    14     8   am
    21    27    28    1
    22    18    15    1
    23    18    19    1
    24    10     7    1
    25    34    35    1
    26     7     8    1
    27     7     6    1
    28    20    19    1
    29     8     9    2
    30    19    21    1
    31    37    38    1
    32    40    39    2
    33    41    38    1
    34    41    42    1
    35    38    39    1
    36     4     3    2
    37    44    43    2
    38    45    43   am
    39    43    42    1
    40     3     2    1
    41     5     2    1
    42     2     1    1
    43    46    47    1
    44    50    47    1
    45    50    51    1
    46   101    99    1
    47   100    99    1
    48    53    51   am
    49    47    48    1
    50    98    99    1
    51    98    95    1
    52    51    52    2
    53    76    75    1
    54    49    48    2
    55    96    95    1
    56    96    97    2
    57    84    83    2
    58    95    94    1
    59    75    77    1
    60    75    72    1
    61    83    85   am
    62    83    82    1
    63    93    91    1
    64    92    91    1
    65    82    79    1
    66    74    73    2
    67    91    90    1
    68    73    72    1
    69    73    78   am
    70    79    78    1
    71    79    80    1
    72    72    71    1
    73    59    58    1
    74    71    69   am
    75    54    55    1
    76    81    80    2
    77    90    87    1
    78    58    55    1
    79    55    56    1
    80    88    87    1
    81    88    89    2
    82    87    86    1
    83    69    70    2
    84    69    68    1
    85    57    56    2
    86    63    62    2
    87    68    67    1
    88    66    64    1
    89    62    67   am
    90    62    61    1
    91    60    61    1
    92    64    61    1
    93    64    65    1
