@<TRIPOS>MOLECULE
tmp/5nv0B00.pdb
 105 102 0 0 0
SMALL
GASTEIGER

@<TRIPOS>ATOM
      1  N         30.3520   -3.7700   18.5680 N.3    17  GLY17      -0.1225
      2  CA        29.8330   -2.7000   17.7660 C.3    17  GLY17       0.1811
      3  C         28.4130   -2.4300   18.1570 C.2    17  GLY17       0.2280
      4  O         27.6240   -3.3450   18.4150 O.2    17  GLY17      -0.2866
      5  N         24.9110   -0.5810   17.1500 N.3    19  ILE19      -0.1245
      6  CA        24.0460    0.1340   16.2190 C.3    19  ILE19       0.1561
      7  C         22.6580    0.3110   16.8220 C.2    19  ILE19       0.2260
      8  O         22.2210   -0.5100   17.6260 O.2    19  ILE19      -0.2867
      9  CB        23.9670   -0.5160   14.8020 C.3    19  ILE19       0.0252
     10  CG1       23.0920   -1.7700   14.7910 C.3    19  ILE19       0.0019
     11  CG2       25.3480   -0.8390   14.2790 C.3    19  ILE19       0.0019
     12  CD1       23.0150   -2.4310   13.3990 C.3    19  ILE19       0.0001
     13  N         20.0250   -2.0890   19.0020 N.3    22  PHE22      -0.1227
     14  CA        20.6640   -3.3760   19.2330 C.3    22  PHE22       0.1736
     15  C         21.6360   -3.3080   20.3900 C.2    22  PHE22       0.2596
     16  O         22.2070   -2.2530   20.6620 O.2    22  PHE22      -0.2718
     17  CB        21.4250   -3.8170   17.9860 C.3    22  PHE22       0.0547
     18  CG        20.5540   -4.3920   16.9170 C.ar   22  PHE22      -0.0202
     19  CD1       20.0670   -5.6890   17.0270 C.ar   22  PHE22      -0.0042
     20  CD2       20.2340   -3.6450   15.7840 C.ar   22  PHE22      -0.0042
     21  CE1       19.2670   -6.2410   16.0260 C.ar   22  PHE22      -0.0003
     22  CE2       19.4340   -4.1810   14.7790 C.ar   22  PHE22      -0.0003
     23  CZ        18.9470   -5.4840   14.9000 C.ar   22  PHE22      -0.0000
     24  N         21.8450   -4.4370   21.0560 N.am   23  SER23      -0.1952
     25  CA        22.8730   -4.5200   22.0880 C.3    23  SER23       0.1924
     26  C         24.2360   -4.4240   21.4370 C.2    23  SER23       0.2314
     27  O         24.3530   -4.5880   20.2300 O.2    23  SER23      -0.2863
     28  CB        22.7820   -5.8740   22.7970 C.3    23  SER23       0.2116
     29  OG        21.5830   -5.9870   23.5440 O.3    23  SER23      -0.2180
     30  N         27.2700   -5.8780   19.8650 N.3    25  TRP25      -0.1241
     31  CA        27.3240   -7.1210   19.1130 C.3    25  TRP25       0.1605
     32  C         28.7430   -7.3900   18.6410 C.2    25  TRP25       0.2264
     33  O         29.4290   -6.4750   18.1900 O.2    25  TRP25      -0.2867
     34  CB        26.4010   -7.0140   17.9150 C.3    25  TRP25       0.0550
     35  CG        25.7680   -8.3160   17.4740 C.ar   25  TRP25       0.0003
     36  CD1       26.2890   -9.2580   16.5920 C.ar   25  TRP25       0.0946
     37  CD2       24.4730   -8.8040   17.8610 C.ar   25  TRP25       0.0152
     38  NE1       25.3900  -10.2980   16.4350 N.ar   25  TRP25      -0.2442
     39  CE2       24.2730  -10.0430   17.1990 C.ar   25  TRP25       0.0810
     40  CE3       23.4640   -8.3090   18.6940 C.ar   25  TRP25       0.0012
     41  CZ2       23.1060  -10.7990   17.3730 C.ar   25  TRP25       0.0191
     42  CZ3       22.3080   -9.0570   18.8540 C.ar   25  TRP25       0.0001
     43  CH2       22.1380  -10.2870   18.1970 C.ar   25  TRP25       0.0015
     44  N         29.2680   -8.7150   11.1870 N.3    49  TRP49      -0.1241
     45  CA        28.7140   -9.2220   12.4360 C.3    49  TRP49       0.1605
     46  C         28.8410  -10.7240   12.5210 C.2    49  TRP49       0.2264
     47  O         28.4480  -11.4370   11.5960 O.2    49  TRP49      -0.2867
     48  CB        27.2270   -8.8630   12.5560 C.3    49  TRP49       0.0550
     49  CG        26.9570   -7.4060   12.4000 C.ar   49  TRP49       0.0003
     50  CD1       26.3540   -6.7830   11.3390 C.ar   49  TRP49       0.0946
     51  CD2       27.2950   -6.3750   13.3330 C.ar   49  TRP49       0.0152
     52  NE1       26.3010   -5.4280   11.5590 N.ar   49  TRP49      -0.2442
     53  CE2       26.8650   -5.1520   12.7790 C.ar   49  TRP49       0.0810
     54  CE3       27.9100   -6.3720   14.5920 C.ar   49  TRP49       0.0012
     55  CZ2       27.0380   -3.9290   13.4400 C.ar   49  TRP49       0.0191
     56  CZ3       28.0840   -5.1570   15.2500 C.ar   49  TRP49       0.0001
     57  CH2       27.6480   -3.9520   14.6690 C.ar   49  TRP49       0.0015
     58  N         25.3490  -13.5360   11.9350 N.3    52  ASP52      -0.1239
     59  CA        24.6140  -13.3780   10.6910 C.3    52  ASP52       0.1674
     60  C         25.4990  -13.0760    9.4850 C.2    52  ASP52       0.2266
     61  O         25.0460  -13.1830    8.3510 O.2    52  ASP52      -0.2867
     62  CB        23.4300  -12.4070   10.8230 C.3    52  ASP52       0.1410
     63  CG        23.8400  -11.0370   11.2820 C.2    52  ASP52       0.3668
     64  OD1       24.6690  -10.3920   10.6100 O.co2  52  ASP52      -0.2456
     65  OD2       23.3360  -10.6040   12.3340 O.co2  52  ASP52      -0.2456
     66  N         26.5270  -10.4230    8.2780 N.3    54  LYS54      -0.1231
     67  CA        26.1120   -9.2150    7.5660 C.3    54  LYS54       0.1693
     68  C         27.1010   -8.0780    7.7870 C.2    54  LYS54       0.2592
     69  O         27.8850   -8.1060    8.7470 O.2    54  LYS54      -0.2718
     70  CB        24.7060   -8.7800    8.0080 C.3    54  LYS54       0.0285
     71  CG        23.5820   -9.7190    7.5820 C.3    54  LYS54       0.0035
     72  CD        22.6210   -9.0050    6.6370 C.3    54  LYS54       0.0206
     73  CE        21.6040   -9.9600    6.0140 C.3    54  LYS54       0.1093
     74  NZ        20.6660  -10.5260    7.0290 N.3    54  LYS54      -0.1314
     75  N         27.0550   -7.0830    6.9060 N.am   55  PHE55      -0.1962
     76  CA        27.9860   -5.9560    6.9470 C.3    55  PHE55       0.1771
     77  C         27.3220   -4.6310    7.3100 C.2    55  PHE55       0.2620
     78  O         26.2150   -4.3510    6.8730 O.2    55  PHE55      -0.2715
     79  CB        28.6480   -5.7630    5.5760 C.3    55  PHE55       0.0574
     80  CG        29.4160   -6.9570    5.0820 C.ar   55  PHE55      -0.0200
     81  CD1       30.7130   -7.1930    5.5190 C.ar   55  PHE55      -0.0042
     82  CD2       28.8560   -7.8200    4.1450 C.ar   55  PHE55      -0.0042
     83  CE1       31.4340   -8.2820    5.0530 C.ar   55  PHE55      -0.0003
     84  CE2       29.5640   -8.9090    3.6690 C.ar   55  PHE55      -0.0003
     85  CZ        30.8580   -9.1430    4.1250 C.ar   55  PHE55      -0.0000
     86  N         28.0370   -3.8020    8.0660 N.am   56  SER56      -0.1950
     87  CA        27.5630   -2.4740    8.4520 C.3    56  SER56       0.1924
     88  C         28.7260   -1.5070    8.4670 C.2    56  SER56       0.2314
     89  O         29.8470   -1.8710    8.8610 O.2    56  SER56      -0.2863
     90  CB        26.9480   -2.4990    9.8680 C.3    56  SER56       0.2116
     91  OG        25.6740   -3.1260    9.8770 O.3    56  SER56      -0.2180
     92  N         17.8740  -14.2300   23.3700 N.3    81  LEU81      -0.1245
     93  CA        17.9020  -14.4230   21.9060 C.3    81  LEU81       0.1561
     94  C         18.9140  -15.4630   21.4810 C.2    81  LEU81       0.2260
     95  O         20.1080  -15.3100   21.7380 O.2    81  LEU81      -0.2867
     96  CB        18.2810  -13.1260   21.1970 C.3    81  LEU81       0.0270
     97  CG        17.4500  -11.8630   21.3750 C.3    81  LEU81       0.0019
     98  CD1       18.1480  -10.7350   20.6350 C.3    81  LEU81       0.0001
     99  CD2       16.0360  -12.0560   20.8490 C.3    81  LEU81       0.0001
    100  N         20.0070  -15.8660   18.5880 N.3    83  SER83      -0.1217
    101  CA        20.8950  -15.2140   17.6130 C.3    83  SER83       0.1889
    102  C         22.1530  -14.6600   18.2850 C.2    83  SER83       0.2288
    103  O         23.2780  -14.8290   17.7880 O.2    83  SER83      -0.2866
    104  CB        20.1650  -14.1170   16.8250 C.3    83  SER83       0.2089
    105  OG        19.7500  -13.0670   17.6760 O.3    83  SER83      -0.2183
@<TRIPOS>BOND
     1    84    85   ar
     2    84    82   ar
     3    85    83   ar
     4    82    80   ar
     5    83    81   ar
     6    80    81   ar
     7    80    79    1
     8    79    76    1
     9    73    72    1
    10    73    74    1
    11    72    71    1
    12    78    77    2
    13    75    76    1
    14    75    68   am
    15    76    77    1
    16    77    86   am
    17    67    68    1
    18    67    70    1
    19    67    66    1
    20    71    70    1
    21    68    69    2
    22    86    87    1
    23    61    60    2
    24    87    88    1
    25    87    90    1
    26    88    89    2
    27    60    59    1
    28    90    91    1
    29    64    63   ar
    30    59    62    1
    31    59    58    1
    32    62    63    1
    33    44    45    1
    34    63    65   ar
    35    50    52   ar
    36    50    49   ar
    37    52    53   ar
    38    47    46    2
    39    49    48    1
    40    49    51   ar
    41    45    46    1
    42    45    48    1
    43    53    51   ar
    44    53    55   ar
    45    51    54   ar
    46    12    10    1
    47    55    57   ar
    48    11     9    1
    49    54    56   ar
    50    57    56   ar
    51    22    23   ar
    52    22    20   ar
    53    10     9    1
    54     9     6    1
    55    23    21   ar
    56    20    18   ar
    57    21    19   ar
    58     6     7    1
    59     6     5    1
    60    38    36   ar
    61    38    39   ar
    62    36    35   ar
    63     7     8    2
    64   104   101    1
    65   104   105    1
    66    18    19   ar
    67    18    17    1
    68    39    41   ar
    69    39    37   ar
    70    41    43   ar
    71    35    37   ar
    72    35    34    1
    73   101   102    1
    74   101   100    1
    75     2     3    1
    76     2     1    1
    77   103   102    2
    78    37    40   ar
    79    34    31    1
    80    17    14    1
    81     3     4    2
    82    33    32    2
    83    43    42   ar
    84    32    31    1
    85    40    42   ar
    86    13    14    1
    87    31    30    1
    88    14    15    1
    89    27    26    2
    90    15    16    2
    91    15    24   am
    92    98    97    1
    93    99    97    1
    94    24    25    1
    95    96    97    1
    96    96    93    1
    97    26    25    1
    98    94    95    2
    99    94    93    1
   100    93    92    1
   101    25    28    1
   102    28    29    1
