@<TRIPOS>MOLECULE
tmp/5nv2B00.pdb
 94 90 0 0 0
SMALL
GASTEIGER

@<TRIPOS>ATOM
      1  N         24.2430   -0.8550   16.9200 N.3    19  ILE19      -0.1245
      2  CA        23.3030   -0.2190   16.0040 C.3    19  ILE19       0.1561
      3  C         22.0280    0.1500   16.7660 C.2    19  ILE19       0.2260
      4  O         21.5600   -0.6120   17.6260 O.2    19  ILE19      -0.2867
      5  CB        23.0220   -1.0930   14.7560 C.3    19  ILE19       0.0252
      6  CG1       24.2810   -1.1730   13.8830 C.3    19  ILE19       0.0019
      7  CG2       21.8520   -0.5490   13.9460 C.3    19  ILE19       0.0019
      8  CD1       24.9850    0.1650   13.6800 C.3    19  ILE19       0.0001
      9  N         19.5530   -1.8990   19.0510 N.3    22  PHE22      -0.1227
     10  CA        20.1580   -3.2020   19.3050 C.3    22  PHE22       0.1736
     11  C         21.1650   -3.1720   20.4400 C.2    22  PHE22       0.2596
     12  O         21.8000   -2.1470   20.6900 O.2    22  PHE22      -0.2718
     13  CB        20.8560   -3.7090   18.0420 C.3    22  PHE22       0.0547
     14  CG        19.9230   -3.9530   16.9010 C.ar   22  PHE22      -0.0202
     15  CD1       19.3520   -5.2030   16.7150 C.ar   22  PHE22      -0.0042
     16  CD2       19.6050   -2.9280   16.0170 C.ar   22  PHE22      -0.0042
     17  CE1       18.4810   -5.4330   15.6630 C.ar   22  PHE22      -0.0003
     18  CE2       18.7330   -3.1460   14.9630 C.ar   22  PHE22      -0.0003
     19  CZ        18.1710   -4.4010   14.7830 C.ar   22  PHE22      -0.0000
     20  N         21.3290   -4.3080   21.1100 N.am   23  SER23      -0.1952
     21  CA        22.4350   -4.4720   22.0450 C.3    23  SER23       0.1924
     22  C         23.7490   -4.3750   21.2680 C.2    23  SER23       0.2314
     23  O         23.7510   -4.3780   20.0380 O.2    23  SER23      -0.2863
     24  CB        22.3560   -5.8470   22.7200 C.3    23  SER23       0.2116
     25  OG        21.0790   -6.0800   23.2940 O.3    23  SER23      -0.2180
     26  N         26.7150   -5.8930   19.4550 N.3    25  TRP25      -0.1241
     27  CA        26.7860   -7.1290   18.6820 C.3    25  TRP25       0.1605
     28  C         28.2150   -7.3620   18.2130 C.2    25  TRP25       0.2264
     29  O         28.8980   -6.4150   17.8120 O.2    25  TRP25      -0.2867
     30  CB        25.8630   -7.0340   17.4670 C.3    25  TRP25       0.0550
     31  CG        25.1570   -8.3170   17.1260 C.ar   25  TRP25       0.0003
     32  CD1       25.6140   -9.3230   16.3140 C.ar   25  TRP25       0.0946
     33  CD2       23.8560   -8.7250   17.5790 C.ar   25  TRP25       0.0152
     34  NE1       24.6800  -10.3300   16.2430 N.ar   25  TRP25      -0.2442
     35  CE2       23.5910   -9.9870   17.0080 C.ar   25  TRP25       0.0810
     36  CE3       22.8880   -8.1430   18.4090 C.ar   25  TRP25       0.0012
     37  CZ2       22.3960  -10.6800   17.2460 C.ar   25  TRP25       0.0191
     38  CZ3       21.7050   -8.8280   18.6410 C.ar   25  TRP25       0.0001
     39  CH2       21.4700  -10.0820   18.0630 C.ar   25  TRP25       0.0015
     40  N         28.9120   -8.7450   10.7190 N.3    49  TRP49      -0.1241
     41  CA        28.3700   -9.2370   11.9720 C.3    49  TRP49       0.1605
     42  C         28.5150  -10.7460   12.0800 C.2    49  TRP49       0.2264
     43  O         28.1920  -11.4850   11.1420 O.2    49  TRP49      -0.2867
     44  CB        26.8920   -8.8550   12.1010 C.3    49  TRP49       0.0550
     45  CG        26.6360   -7.3840   11.9060 C.ar   49  TRP49       0.0003
     46  CD1       26.1280   -6.7760   10.7900 C.ar   49  TRP49       0.0946
     47  CD2       26.8790   -6.3400   12.8540 C.ar   49  TRP49       0.0152
     48  NE1       26.0340   -5.4190   10.9930 N.ar   49  TRP49      -0.2442
     49  CE2       26.4800   -5.1250   12.2570 C.ar   49  TRP49       0.0810
     50  CE3       27.3710   -6.3190   14.1660 C.ar   49  TRP49       0.0012
     51  CZ2       26.5820   -3.8950   12.9100 C.ar   49  TRP49       0.0191
     52  CZ3       27.4690   -5.0960   14.8210 C.ar   49  TRP49       0.0001
     53  CH2       27.0820   -3.8990   14.1880 C.ar   49  TRP49       0.0015
     54  N         27.3180  -14.3750   13.1380 N.3    51  GLY51      -0.1210
     55  CA        25.9600  -14.8810   13.2420 C.3    51  GLY51       0.1956
     56  C         25.1460  -14.7580   11.9700 C.2    51  GLY51       0.2611
     57  O         24.6600  -15.7650   11.4570 O.2    51  GLY51      -0.2717
     58  N         24.9730  -13.5470   11.4460 N.am   52  ASP52      -0.1973
     59  CA        24.2840  -13.4410   10.1600 C.3    52  ASP52       0.1709
     60  C         25.1910  -13.1070    8.9690 C.2    52  ASP52       0.2293
     61  O         24.7570  -13.1670    7.8210 O.2    52  ASP52      -0.2864
     62  CB        23.0540  -12.5190   10.2300 C.3    52  ASP52       0.1436
     63  CG        23.4080  -11.0610   10.4900 C.2    52  ASP52       0.3671
     64  OD1       24.5950  -10.6860   10.4000 O.co2  52  ASP52      -0.2456
     65  OD2       22.4740  -10.2770   10.7690 O.co2  52  ASP52      -0.2456
     66  N         26.2700  -10.4360    7.7220 N.3    54  LYS54      -0.1245
     67  CA        25.9170   -9.2490    6.9450 C.3    54  LYS54       0.1561
     68  C         26.8900   -8.1020    7.1800 C.2    54  LYS54       0.2260
     69  O         27.6380   -8.1100    8.1610 O.2    54  LYS54      -0.2867
     70  CB        24.4820   -8.8090    7.2560 C.3    54  LYS54       0.0271
     71  CG        23.4550   -9.9070    6.9860 C.3    54  LYS54       0.0035
     72  CD        22.0450   -9.4770    7.3820 C.3    54  LYS54       0.0206
     73  CE        21.1770   -9.1630    6.1660 C.3    54  LYS54       0.1093
     74  NZ        21.0070  -10.3310    5.2420 N.3    54  LYS54      -0.1314
     75  N         27.7310   -3.8880    7.5680 N.3    56  SER56      -0.1217
     76  CA        27.2420   -2.5550    7.9140 C.3    56  SER56       0.1889
     77  C         28.4120   -1.6020    7.9390 C.2    56  SER56       0.2288
     78  O         29.5160   -1.9750    8.3500 O.2    56  SER56      -0.2866
     79  CB        26.6080   -2.5280    9.3150 C.3    56  SER56       0.2089
     80  OG        25.4450   -3.3190    9.3670 O.3    56  SER56      -0.2183
     81  N         17.4900  -14.1610   22.8530 N.3    81  LEU81      -0.1245
     82  CA        17.5930  -14.4180   21.4060 C.3    81  LEU81       0.1561
     83  C         18.6060  -15.5010   21.0310 C.2    81  LEU81       0.2260
     84  O         19.7920  -15.3770   21.3300 O.2    81  LEU81      -0.2867
     85  CB        17.9660  -13.1310   20.6680 C.3    81  LEU81       0.0270
     86  CG        17.1410  -11.8610   20.9080 C.3    81  LEU81       0.0019
     87  CD1       17.6520  -10.7170   20.0350 C.3    81  LEU81       0.0001
     88  CD2       15.6630  -12.0980   20.6570 C.3    81  LEU81       0.0001
     89  N         19.7090  -16.0520   18.1300 N.3    83  SER83      -0.1217
     90  CA        20.6060  -15.4360   17.1510 C.3    83  SER83       0.1889
     91  C         21.8430  -14.8490   17.8340 C.2    83  SER83       0.2288
     92  O         22.9840  -15.0330   17.3810 O.2    83  SER83      -0.2866
     93  CB        19.8650  -14.3420   16.3960 C.3    83  SER83       0.2089
     94  OG        19.2960  -13.4330   17.3150 O.3    83  SER83      -0.2183
@<TRIPOS>BOND
     1    74    73    1
     2    73    72    1
     3    67    68    1
     4    67    70    1
     5    67    66    1
     6    71    70    1
     7    71    72    1
     8    68    69    2
     9    75    76    1
    10    61    60    2
    11    76    77    1
    12    76    79    1
    13    77    78    2
    14    60    59    1
    15    79    80    1
    16    59    62    1
    17    59    58    1
    18    62    63    1
    19    64    63   ar
    20    63    65   ar
    21    40    41    1
    22    46    48   ar
    23    46    45   ar
    24    48    49   ar
    25    43    42    2
    26    58    56   am
    27    57    56    2
    28    45    44    1
    29    45    47   ar
    30    56    55    1
    31    41    42    1
    32    41    44    1
    33    49    47   ar
    34    49    51   ar
    35    47    50   ar
    36    51    53   ar
    37    54    55    1
    38     8     6    1
    39     6     5    1
    40     7     5    1
    41    50    52   ar
    42    53    52   ar
    43     5     2    1
    44    19    18   ar
    45    19    17   ar
    46    18    16   ar
    47    17    15   ar
    48     2     3    1
    49     2     1    1
    50    16    14   ar
    51    34    32   ar
    52    34    35   ar
    53    32    31   ar
    54    93    90    1
    55    93    94    1
    56    15    14   ar
    57     3     4    2
    58    14    13    1
    59    35    37   ar
    60    35    33   ar
    61    31    30    1
    62    31    33   ar
    63    90    91    1
    64    90    89    1
    65    37    39   ar
    66    92    91    2
    67    30    27    1
    68    33    36   ar
    69    29    28    2
    70    13    10    1
    71    39    38   ar
    72    28    27    1
    73    36    38   ar
    74    27    26    1
    75     9    10    1
    76    10    11    1
    77    87    86    1
    78    23    22    2
    79    11    12    2
    80    11    20   am
    81    88    86    1
    82    85    86    1
    83    85    82    1
    84    83    84    2
    85    83    82    1
    86    20    21    1
    87    22    21    1
    88    82    81    1
    89    21    24    1
    90    24    25    1
