@<TRIPOS>MOLECULE
tmp/5nv3E00.pdb
 161 153 0 0 0
SMALL
GASTEIGER

@<TRIPOS>ATOM
      1  N        139.8370  186.2830  142.0390 N.3   163  THR163     -0.1218
      2  CA       139.4320  185.3420  143.0810 C.3   163  THR163      0.1862
      3  C        138.6350  184.2080  142.4370 C.2   163  THR163      0.2287
      4  O        137.7290  184.4580  141.6360 O.2   163  THR163     -0.2866
      5  CB       138.6020  186.0300  144.1900 C.3   163  THR163      0.1770
      6  OG1      139.1520  187.3220  144.4820 O.3   163  THR163     -0.2211
      7  CG2      138.5930  185.1910  145.4690 C.3   163  THR163      0.0375
      8  N        135.9450  181.7720  141.8620 N.3   165  LYS165     -0.1245
      9  CA       134.5150  181.7600  142.1800 C.3   165  LYS165      0.1561
     10  C        133.8590  180.4480  141.7190 C.2   165  LYS165      0.2260
     11  O        134.2140  179.9480  140.6480 O.2   165  LYS165     -0.2867
     12  CB       133.8090  182.9810  141.5650 C.3   165  LYS165      0.0271
     13  CG       134.3230  184.3400  142.0420 C.3   165  LYS165      0.0035
     14  CD       133.9550  184.6420  143.4900 C.3   165  LYS165      0.0206
     15  CE       134.7000  185.8610  144.0090 C.3   165  LYS165      0.1093
     16  NZ       134.4440  186.0950  145.4580 N.3   165  LYS165     -0.1314
     17  N        133.0650  180.9550  146.0530 N.3   167  LYS167     -0.1245
     18  CA       133.8940  180.9880  147.2620 C.3   167  LYS167      0.1561
     19  C        134.1790  179.5780  147.7830 C.2   167  LYS167      0.2260
     20  O        135.3290  179.1450  147.7750 O.2   167  LYS167     -0.2867
     21  CB       133.2520  181.8720  148.3420 C.3   167  LYS167      0.0271
     22  CG       133.0060  183.3150  147.9070 C.3   167  LYS167      0.0035
     23  CD       132.2690  184.1320  148.9610 C.3   167  LYS167      0.0206
     24  CE       133.2070  184.7520  149.9890 C.3   167  LYS167      0.1093
     25  NZ       133.9890  185.8930  149.4380 N.3   167  LYS167     -0.1314
     26  N        139.9400  181.9850  148.2210 N.3   192  ASP192     -0.1225
     27  CA       139.0520  182.8180  149.0240 C.3   192  ASP192      0.1805
     28  C        139.4640  182.7490  150.4970 C.2   192  ASP192      0.2597
     29  O        140.0350  181.7460  150.9380 O.2   192  ASP192     -0.2718
     30  CB       137.6030  182.3710  148.8400 C.3   192  ASP192      0.1424
     31  CG       136.6140  183.4380  149.2460 C.2   192  ASP192      0.3668
     32  OD1      136.3090  183.5400  150.4520 O.co2 192  ASP192     -0.2456
     33  OD2      136.1470  184.1790  148.3560 O.co2 192  ASP192     -0.2456
     34  N        139.1700  183.8130  151.2450 N.am  193  GLU193     -0.1979
     35  CA       139.5970  183.9450  152.6460 C.3   193  GLU193      0.1602
     36  C        139.0090  182.9020  153.6090 C.2   193  GLU193      0.2287
     37  O        139.6170  182.6000  154.6400 O.2   193  GLU193     -0.2864
     38  CB       139.3710  185.3810  153.1620 C.3   193  GLU193      0.0415
     39  CG       137.9320  185.7760  153.4990 C.3   193  GLU193      0.1163
     40  CD       137.0700  186.0940  152.2850 C.2   193  GLU193      0.3649
     41  OE1      137.5950  186.6050  151.2700 O.co2 193  GLU193     -0.2457
     42  OE2      135.8480  185.8390  152.3520 O.co2 193  GLU193     -0.2457
     43  N        145.1920  189.3160  153.6300 N.3   282  HIS282     -0.1226
     44  CA       143.7800  189.5670  153.3980 C.3   282  HIS282      0.1752
     45  C        143.1520  190.0590  154.6950 C.2   282  HIS282      0.2595
     46  O        143.2220  189.3830  155.7280 O.2   282  HIS282     -0.2718
     47  CB       143.0740  188.3110  152.8920 C.3   282  HIS282      0.0759
     48  CG       141.7050  188.5720  152.3520 C.ar  282  HIS282      0.0818
     49  ND1      140.5970  188.7020  153.1610 N.ar  282  HIS282     -0.2268
     50  CD2      141.2650  188.7360  151.0830 C.ar  282  HIS282      0.1154
     51  CE1      139.5330  188.9320  152.4130 C.ar  282  HIS282      0.1986
     52  NE2      139.9110  188.9550  151.1480 N.ar  282  HIS282     -0.2212
     53  N        142.5570  191.2460  154.6330 N.am  283  ARG283     -0.1980
     54  CA       141.9150  191.8540  155.7960 C.3   283  ARG283      0.1597
     55  C        140.4750  191.3520  155.9800 C.2   283  ARG283      0.2287
     56  O        139.5070  191.9580  155.5050 O.2   283  ARG283     -0.2864
     57  CB       142.0140  193.3920  155.7630 C.3   283  ARG283      0.0334
     58  CG       141.6170  194.0460  154.4490 C.3   283  ARG283      0.0492
     59  CD       141.3500  195.5270  154.6260 C.3   283  ARG283      0.2205
     60  NE       140.5090  196.0580  153.5560 N.pl3 283  ARG283     -0.0865
     61  CZ       140.2660  197.3500  153.3440 C.cat 283  ARG283      0.5346
     62  NH1      140.8010  198.2860  154.1220 N.pl3 283  ARG283      0.1354
     63  NH2      139.4770  197.7090  152.3420 N.pl3 283  ARG283      0.1354
     64  N        138.1490  193.1930  159.4140 N.3   286  HIS286     -0.1241
     65  CA       138.7120  194.5100  159.7050 C.3   286  HIS286      0.1621
     66  C        137.6000  195.5300  159.9540 C.2   286  HIS286      0.2264
     67  O        137.7200  196.3730  160.8440 O.2   286  HIS286     -0.2867
     68  CB       139.6450  194.9710  158.5750 C.3   286  HIS286      0.0745
     69  CG       138.9260  195.4570  157.3550 C.ar  286  HIS286      0.0817
     70  ND1      138.7720  196.7960  157.0690 N.ar  286  HIS286     -0.2268
     71  CD2      138.2900  194.7850  156.3670 C.ar  286  HIS286      0.1154
     72  CE1      138.0880  196.9280  155.9470 C.ar  286  HIS286      0.1986
     73  NE2      137.7850  195.7230  155.4990 N.ar  286  HIS286     -0.2212
     74  N        145.3970  194.5640  151.2390 N.3   315  HIS315     -0.1241
     75  CA       144.1680  195.1600  150.7270 C.3   315  HIS315      0.1621
     76  C        143.9370  196.4910  151.4340 C.2   315  HIS315      0.2264
     77  O        143.8210  196.5380  152.6620 O.2   315  HIS315     -0.2867
     78  CB       142.9780  194.2280  150.9540 C.3   315  HIS315      0.0745
     79  CG       143.0060  192.9910  150.1140 C.ar  315  HIS315      0.0817
     80  ND1      142.1900  192.8210  149.0160 N.ar  315  HIS315     -0.2268
     81  CD2      143.7450  191.8620  150.2110 C.ar  315  HIS315      0.1154
     82  CE1      142.4260  191.6410  148.4730 C.ar  315  HIS315      0.1986
     83  NE2      143.3660  191.0390  149.1790 N.ar  315  HIS315     -0.2212
     84  N        141.6960  198.9650  149.8650 N.3   317  GLY317     -0.1225
     85  CA       140.3360  199.3590  149.5150 C.3   317  GLY317      0.1811
     86  C        140.2000  200.0490  148.1750 C.2   317  GLY317      0.2280
     87  O        141.1740  200.5760  147.6270 O.2   317  GLY317     -0.2866
     88  N        132.4770  197.9650  145.5350 N.3   322  LYS322     -0.1231
     89  CA       131.2690  197.6050  146.2940 C.3   322  LYS322      0.1693
     90  C        131.3980  197.8170  147.8090 C.2   322  LYS322      0.2591
     91  O        130.3890  197.9280  148.5110 O.2   322  LYS322     -0.2718
     92  CB       130.8310  196.1620  145.9810 C.3   322  LYS322      0.0285
     93  CG       131.7640  195.0660  146.4850 C.3   322  LYS322      0.0035
     94  CD       131.1490  193.6880  146.3120 C.3   322  LYS322      0.0206
     95  CE       131.9790  192.6260  147.0150 C.3   322  LYS322      0.1093
     96  NZ       131.4620  191.2530  146.7560 N.3   322  LYS322     -0.1314
     97  N        132.6390  197.8680  148.2940 N.am  323  LEU323     -0.1980
     98  CA       132.9350  198.0170  149.7210 C.3   323  LEU323      0.1596
     99  C        133.2300  199.4730  150.0930 C.2   323  LEU323      0.2287
    100  O        133.5450  200.2890  149.2200 O.2   323  LEU323     -0.2864
    101  CB       134.1030  197.1040  150.1200 C.3   323  LEU323      0.0297
    102  CG       133.9100  195.5890  149.9650 C.3   323  LEU323      0.0022
    103  CD1      135.2200  194.9190  149.5840 C.3   323  LEU323      0.0001
    104  CD2      133.3150  194.9520  151.2140 C.3   323  LEU323      0.0001
    105  N        146.6560  196.4470  147.3900 N.3   365  VAL365     -0.1245
    106  CA       145.7760  195.6600  146.5200 C.3   365  VAL365      0.1561
    107  C        144.3700  196.2650  146.4920 C.2   365  VAL365      0.2260
    108  O        143.7290  196.4210  147.5380 O.2   365  VAL365     -0.2867
    109  CB       145.7170  194.1670  146.9470 C.3   365  VAL365      0.0252
    110  CG1      144.8350  193.3560  146.0050 C.3   365  VAL365      0.0019
    111  CG2      147.1110  193.5510  147.0040 C.3   365  VAL365      0.0019
    112  N        140.6260  195.6600  145.4220 N.3   367  SER367     -0.1202
    113  CA       139.7170  194.5350  145.1860 C.3   367  SER367      0.2020
    114  C        138.3200  194.7910  145.7470 C.2   367  SER367      0.2619
    115  O        138.1550  195.5490  146.7090 O.2   367  SER367     -0.2717
    116  CB       140.2950  193.2490  145.7910 C.3   367  SER367      0.2103
    117  OG       139.5510  192.1090  145.3920 O.3   367  SER367     -0.2182
    118  N        137.3230  194.1510  145.1340 N.am  368  GLY368     -0.1942
    119  CA       135.9480  194.1730  145.6280 C.3   368  GLY368      0.2014
    120  C        134.9980  194.9970  144.7870 C.2   368  GLY368      0.2639
    121  O        134.8530  196.2020  145.0060 O.2   368  GLY368     -0.2714
    122  N        134.3540  194.3360  143.8260 N.am  369  GLY369     -0.1939
    123  CA       133.3240  194.9500  142.9880 C.3   369  GLY369      0.2014
    124  C        133.8480  195.9280  141.9550 C.2   369  GLY369      0.2638
    125  O        133.3750  197.0660  141.8740 O.2   369  GLY369     -0.2714
    126  N        134.8270  195.4800  141.1690 N.am  370  ILE370     -0.1977
    127  CA       135.3830  196.2700  140.0600 C.3   370  ILE370      0.1596
    128  C        135.4130  195.4830  138.7490 C.2   370  ILE370      0.2287
    129  O        135.4250  194.2480  138.7580 O.2   370  ILE370     -0.2864
    130  CB       136.7790  196.8720  140.3790 C.3   370  ILE370      0.0276
    131  CG1      137.7040  195.8430  141.0560 C.3   370  ILE370      0.0022
    132  CG2      136.6200  198.1390  141.2110 C.3   370  ILE370      0.0022
    133  CD1      139.1850  196.1570  140.9550 C.3   370  ILE370      0.0001
    134  N        142.3610  193.3270  141.4290 N.3   389  GLN389     -0.1231
    135  CA       141.7280  192.0090  141.4600 C.3   389  GLN389      0.1698
    136  C        140.2810  192.0440  140.9750 C.2   389  GLN389      0.2592
    137  O        139.4550  192.7980  141.4990 O.2   389  GLN389     -0.2718
    138  CB       141.8160  191.3950  142.8590 C.3   389  GLN389      0.0381
    139  CG       143.1920  190.8450  143.2080 C.3   389  GLN389      0.0905
    140  CD       143.3030  190.3430  144.6390 C.2   389  GLN389      0.2608
    141  OE1      142.3200  190.2930  145.3840 O.2   389  GLN389     -0.2717
    142  NE2      144.5140  189.9660  145.0320 N.am  389  GLN389     -0.0878
    143  N        139.9970  191.2230  139.9660 N.am  390  PHE390     -0.1962
    144  CA       138.6610  191.1080  139.3860 C.3   390  PHE390      0.1771
    145  C        138.1050  189.7020  139.6180 C.2   390  PHE390      0.2620
    146  O        138.3110  188.7950  138.8030 O.2   390  PHE390     -0.2715
    147  CB       138.6810  191.4530  137.8880 C.3   390  PHE390      0.0574
    148  CG       139.2510  192.8090  137.5760 C.ar  390  PHE390     -0.0200
    149  CD1      138.4610  193.9560  137.6760 C.ar  390  PHE390     -0.0042
    150  CD2      140.5770  192.9440  137.1620 C.ar  390  PHE390     -0.0042
    151  CE1      138.9840  195.2120  137.3830 C.ar  390  PHE390     -0.0003
    152  CE2      141.1050  194.1970  136.8690 C.ar  390  PHE390     -0.0003
    153  CZ       140.3090  195.3320  136.9800 C.ar  390  PHE390     -0.0000
    154  N        137.4110  189.5320  140.7420 N.am  391  GLY391     -0.1940
    155  CA       136.8250  188.2450  141.1280 C.3   391  GLY391      0.2014
    156  C        135.6230  187.8710  140.2830 C.2   391  GLY391      0.2639
    157  O        135.6190  186.8270  139.6250 O.2   391  GLY391     -0.2714
    158  N        134.6080  188.7330  140.3050 N.am  392  GLY392     -0.1954
    159  CA       133.3880  188.5430  139.5220 C.3   392  GLY392      0.1869
    160  C        133.5210  188.9700  138.0710 C.2   392  GLY392      0.2309
    161  O        132.9330  188.3490  137.1820 O.2   392  GLY392     -0.2863
@<TRIPOS>BOND
     1   152   153   ar
     2   152   150   ar
     3   153   151   ar
     4   150   148   ar
     5   161   160    2
     6   151   149   ar
     7   148   149   ar
     8   148   147    1
     9   147   144    1
    10   160   159    1
    11   128   129    2
    12   128   127    1
    13   146   145    2
    14   144   145    1
    15   144   143    1
    16   159   158    1
    17   145   154   am
    18   157   156    2
    19   143   136   am
    20   127   130    1
    21   127   126    1
    22   156   158   am
    23   156   155    1
    24   130   131    1
    25   130   132    1
    26    11    10    2
    27   154   155    1
    28   133   131    1
    29   136   135    1
    30   136   137    2
    31   126   124   am
    32   134   135    1
    33   135   138    1
    34    12    13    1
    35    12     9    1
    36     4     3    2
    37    10     9    1
    38     8     9    1
    39   125   124    2
    40   124   123    1
    41     1     2    1
    42    13    14    1
    43     3     2    1
    44   138   139    1
    45   123   122    1
    46     2     5    1
    47   139   140    1
    48    14    15    1
    49   122   120   am
    50    15    16    1
    51     5     6    1
    52     5     7    1
    53   140   142   am
    54   140   141    2
    55   120   121    2
    56   120   119    1
    57   118   119    1
    58   118   114   am
    59   113   112    1
    60   113   114    1
    61   113   116    1
    62   117   116    1
    63    88    89    1
    64   114   115    2
    65    92    89    1
    66    92    93    1
    67   110   109    1
    68    17    18    1
    69    89    90    1
    70    94    93    1
    71    94    95    1
    72   107   106    1
    73   107   108    2
    74   106   109    1
    75   106   105    1
    76    96    95    1
    77   109   111    1
    78    18    19    1
    79    18    21    1
    80    87    86    2
    81    20    19    2
    82    90    97   am
    83    90    91    2
    84    22    21    1
    85    22    23    1
    86    86    85    1
    87    26    27    1
    88    97    98    1
    89    33    31   ar
    90    82    80   ar
    91    82    83   ar
    92    30    27    1
    93    30    31    1
    94    23    24    1
    95    80    79   ar
    96    27    28    1
    97    83    81   ar
    98   100    99    2
    99    31    32   ar
   100    25    24    1
   101    85    84    1
   102   103   102    1
   103    98    99    1
   104    98   101    1
   105   102   101    1
   106   102   104    1
   107    79    81   ar
   108    79    78    1
   109    28    29    2
   110    28    34   am
   111    75    78    1
   112    75    74    1
   113    75    76    1
   114    50    52   ar
   115    50    48   ar
   116    52    51   ar
   117    34    35    1
   118    41    40   ar
   119    76    77    2
   120    40    42   ar
   121    40    39    1
   122    63    61    1
   123    48    47    1
   124    48    49   ar
   125    51    49   ar
   126    35    38    1
   127    35    36    1
   128    47    44    1
   129    38    39    1
   130    61    60    2
   131    61    62    1
   132    44    43    1
   133    44    45    1
   134    60    59    1
   135    36    37    2
   136    58    59    1
   137    58    57    1
   138    53    45   am
   139    53    54    1
   140    45    46    2
   141    73    72   ar
   142    73    71   ar
   143    56    55    2
   144    57    54    1
   145    54    55    1
   146    72    70   ar
   147    71    69   ar
   148    70    69   ar
   149    69    68    1
   150    68    65    1
   151    64    65    1
   152    65    66    1
   153    66    67    2
