@<TRIPOS>MOLECULE
tmp/5nv8A00.pdb
 214 210 0 0 0
SMALL
GASTEIGER

@<TRIPOS>ATOM
      1  N         44.7920   29.5060    5.9040 N.3    11  ASP11      -0.1225
      2  CA        45.9030   28.6030    6.1780 C.3    11  ASP11       0.1805
      3  C         47.1470   29.0350    5.4090 C.2    11  ASP11       0.2598
      4  O         47.2940   28.6860    4.2400 O.2    11  ASP11      -0.2718
      5  CB        45.5350   27.1650    5.7990 C.3    11  ASP11       0.1424
      6  CG        44.5720   26.5270    6.7800 C.2    11  ASP11       0.3668
      7  OD1       44.1090   27.2260    7.7050 O.co2  11  ASP11      -0.2456
      8  OD2       44.2770   25.3240    6.6240 O.co2  11  ASP11      -0.2456
      9  N         48.0320   29.7990    6.0530 N.am   12  ASN12      -0.1960
     10  CA        49.2850   30.2010    5.4200 C.3    12  ASN12       0.1819
     11  C         50.4220   30.3270    6.4290 C.2    12  ASN12       0.2621
     12  O         50.9540   29.3080    6.8820 O.2    12  ASN12      -0.2715
     13  CB        49.1090   31.5090    4.6460 C.3    12  ASN12       0.1195
     14  CG        48.2290   31.3460    3.4230 C.2    12  ASN12       0.2630
     15  OD1       48.6170   30.6980    2.4490 O.2    12  ASN12      -0.2716
     16  ND2       47.0370   31.9290    3.4650 N.am   12  ASN12      -0.0877
     17  N         50.8120   31.5570    6.7780 N.am   13  TYR13      -0.1960
     18  CA        51.9490   31.7460    7.6710 C.3    13  TYR13       0.1771
     19  C         51.7280   31.0290    8.9990 C.2    13  TYR13       0.2620
     20  O         50.6140   30.6330    9.3520 O.2    13  TYR13      -0.2715
     21  CB        52.2210   33.2250    7.9620 C.3    13  TYR13       0.0574
     22  CG        51.9350   34.2140    6.8580 C.ar   13  TYR13      -0.0198
     23  CD1       52.7870   34.3380    5.7680 C.ar   13  TYR13      -0.0009
     24  CD2       50.8480   35.0740    6.9410 C.ar   13  TYR13      -0.0009
     25  CE1       52.5350   35.2600    4.7640 C.ar   13  TYR13       0.0417
     26  CE2       50.5910   36.0020    5.9480 C.ar   13  TYR13       0.0417
     27  CZ        51.4400   36.0950    4.8650 C.ar   13  TYR13       0.1957
     28  OH        51.1810   37.0170    3.8760 O.3    13  TYR13      -0.2866
     29  N         52.8150   30.8800    9.7460 N.am   14  GLY14      -0.1940
     30  CA        52.7750   30.1480   10.9930 C.3    14  GLY14       0.2014
     31  C         53.5150   28.8360   10.8680 C.2    14  GLY14       0.2638
     32  O         54.2600   28.4430   11.7690 O.2    14  GLY14      -0.2714
     33  N         53.3110   28.1430    9.7470 N.am   15  ASP15      -0.1971
     34  CA        54.1400   26.9810    9.4470 C.3    15  ASP15       0.1709
     35  C         55.5470   27.4160    9.0620 C.2    15  ASP15       0.2293
     36  O         56.5360   26.9100    9.6040 O.2    15  ASP15      -0.2864
     37  CB        53.5030   26.1510    8.3310 C.3    15  ASP15       0.1436
     38  CG        52.0580   25.7970    8.6200 C.2    15  ASP15       0.3671
     39  OD1       51.7520   25.4160    9.7710 O.co2  15  ASP15      -0.2456
     40  OD2       51.2280   25.8970    7.6930 O.co2  15  ASP15      -0.2456
     41  N         56.5000   30.5080    9.6000 N.3    17  GLY17      -0.1225
     42  CA        56.8980   31.4050   10.6730 C.3    17  GLY17       0.1811
     43  C         57.6800   30.7040   11.7670 C.2    17  GLY17       0.2280
     44  O         58.6690   31.2380   12.2740 O.2    17  GLY17      -0.2866
     45  N         61.9540   30.7890   11.9720 N.3    21  ARG21      -0.1245
     46  CA        62.5070   31.2810   13.2320 C.3    21  ARG21       0.1563
     47  C         63.4620   30.2640   13.8460 C.2    21  ARG21       0.2260
     48  O         64.5600   30.6180   14.2930 O.2    21  ARG21      -0.2867
     49  CB        61.3790   31.6150   14.2110 C.3    21  ARG21       0.0307
     50  CG        61.8710   32.0690   15.5710 C.3    21  ARG21       0.0489
     51  CD        60.7240   32.4890   16.4860 C.3    21  ARG21       0.2205
     52  NE        59.8140   33.4450   15.8550 N.pl3  21  ARG21      -0.0865
     53  CZ        60.1230   34.7080   15.5780 C.cat  21  ARG21       0.5346
     54  NH1       61.3280   35.1830   15.8660 N.pl3  21  ARG21       0.1354
     55  NH2       59.2250   35.4980   15.0070 N.pl3  21  ARG21       0.1354
     56  N         46.2800   41.8390   14.8000 N.3   124  PHE124     -0.1241
     57  CA        46.6310   40.8890   13.7510 C.3   124  PHE124      0.1605
     58  C         45.8880   39.5980   14.0680 C.2   124  PHE124      0.2264
     59  O         46.2520   38.8870   15.0130 O.2   124  PHE124     -0.2867
     60  CB        48.1450   40.6730   13.6990 C.3   124  PHE124      0.0534
     61  CG        48.5720   39.4760   12.8980 C.ar  124  PHE124     -0.0203
     62  CD1       48.3950   39.4340   11.5230 C.ar  124  PHE124     -0.0042
     63  CD2       49.1720   38.3970   13.5230 C.ar  124  PHE124     -0.0042
     64  CE1       48.8000   38.3270   10.7890 C.ar  124  PHE124     -0.0003
     65  CE2       49.5800   37.2910   12.7990 C.ar  124  PHE124     -0.0003
     66  CZ        49.3930   37.2540   11.4290 C.ar  124  PHE124     -0.0000
     67  N         42.3870   36.7390   12.4890 N.3   126  TYR126     -0.1241
     68  CA        41.5750   36.2420   11.3890 C.3   126  TYR126      0.1605
     69  C         40.3100   37.0970   11.2890 C.2   126  TYR126      0.2264
     70  O         40.2770   38.2340   11.7690 O.2   126  TYR126     -0.2867
     71  CB        41.2640   34.7560   11.5990 C.3   126  TYR126      0.0534
     72  CG        42.4590   33.9170   11.9920 C.ar  126  TYR126     -0.0201
     73  CD1       43.3220   33.4050   11.0310 C.ar  126  TYR126     -0.0009
     74  CD2       42.7210   33.6340   13.3260 C.ar  126  TYR126     -0.0009
     75  CE1       44.4130   32.6350   11.3890 C.ar  126  TYR126      0.0417
     76  CE2       43.8080   32.8700   13.6930 C.ar  126  TYR126      0.0417
     77  CZ        44.6490   32.3710   12.7230 C.ar  126  TYR126      0.1957
     78  OH        45.7320   31.6120   13.0950 O.3   126  TYR126     -0.2866
     79  N         48.4460   45.5990   10.2790 N.3   150  PRO150     -0.2102
     80  CA        49.1830   45.0510    9.1350 C.3   150  PRO150      0.1504
     81  C         48.2450   44.4290    8.1110 C.2   150  PRO150      0.2575
     82  O         47.1020   44.0700    8.4040 O.2   150  PRO150     -0.2718
     83  CB        50.0900   43.9910    9.7760 C.3   150  PRO150      0.0282
     84  CG        50.2040   44.4080   11.2160 C.3   150  PRO150      0.0208
     85  CD        48.8720   45.0100   11.5540 C.3   150  PRO150      0.0893
     86  N         48.7510   44.3040    6.8850 N.am  151  GLN151     -0.1980
     87  CA        47.9620   43.7390    5.7950 C.3   151  GLN151      0.1601
     88  C         47.6630   42.2720    6.0800 C.2   151  GLN151      0.2287
     89  O         48.5830   41.4740    6.2880 O.2   151  GLN151     -0.2864
     90  CB        48.7040   43.8900    4.4690 C.3   151  GLN151      0.0394
     91  CG        47.9290   43.3890    3.2510 C.3   151  GLN151      0.0908
     92  CD        46.6600   44.1870    2.9880 C.2   151  GLN151      0.2608
     93  OE1       46.6340   45.4090    3.1480 O.2   151  GLN151     -0.2717
     94  NE2       45.5990   43.4940    2.5900 N.am  151  GLN151     -0.0878
     95  N         51.9450   47.6020    6.1290 N.3   184  PRO184     -0.2102
     96  CA        52.3850   46.5390    5.2220 C.3   184  PRO184      0.1504
     97  C         52.9290   45.3560    6.0170 C.2   184  PRO184      0.2576
     98  O         53.0350   45.3910    7.2410 O.2   184  PRO184     -0.2718
     99  CB        53.4820   47.2160    4.4000 C.3   184  PRO184      0.0282
    100  CG        54.0670   48.2150    5.3390 C.3   184  PRO184      0.0208
    101  CD        52.9200   48.7060    6.1970 C.3   184  PRO184      0.0893
    102  N         53.2730   44.2940    5.2920 N.am  185  PHE185     -0.1963
    103  CA        53.8990   43.1110    5.8820 C.3   185  PHE185      0.1771
    104  C         55.4080   43.3230    5.8550 C.2   185  PHE185      0.2619
    105  O         56.0560   43.1320    4.8230 O.2   185  PHE185     -0.2715
    106  CB        53.4910   41.8510    5.1270 C.3   185  PHE185      0.0574
    107  CG        53.4480   40.6160    5.9850 C.ar  185  PHE185     -0.0200
    108  CD1       52.3060   40.2920    6.6990 C.ar  185  PHE185     -0.0042
    109  CD2       54.5490   39.7780    6.0740 C.ar  185  PHE185     -0.0042
    110  CE1       52.2620   39.1580    7.4870 C.ar  185  PHE185     -0.0003
    111  CE2       54.5120   38.6420    6.8610 C.ar  185  PHE185     -0.0003
    112  CZ        53.3660   38.3330    7.5700 C.ar  185  PHE185     -0.0000
    113  N         55.9720   43.7190    6.9950 N.am  186  VAL186     -0.1963
    114  CA        57.3890   44.0610    7.0860 C.3   186  VAL186      0.1727
    115  C         58.2130   42.8030    7.3290 C.2   186  VAL186      0.2617
    116  O         57.8730   41.7210    6.8380 O.2   186  VAL186     -0.2715
    117  CB        57.6310   45.1060    8.1900 C.3   186  VAL186      0.0290
    118  CG1       57.1630   46.4780    7.7280 C.3   186  VAL186      0.0023
    119  CG2       56.9160   44.7020    9.4750 C.3   186  VAL186      0.0023
    120  N         59.2930   42.9330    8.0940 N.am  187  SER187     -0.1936
    121  CA        60.1430   41.8110    8.4630 C.3   187  SER187      0.2055
    122  C         59.7510   41.2710    9.8350 C.2   187  SER187      0.2642
    123  O         59.1040   41.9500   10.6370 O.2   187  SER187     -0.2714
    124  CB        61.6170   42.2250    8.4660 C.3   187  SER187      0.2130
    125  OG        61.9050   43.0870    9.5540 O.3   187  SER187     -0.2179
    126  N         60.1470   40.0210   10.0920 N.am  188  GLN188     -0.1976
    127  CA        59.8170   39.3880   11.3670 C.3   188  GLN188      0.1601
    128  C         60.4160   40.1560   12.5390 C.2   188  GLN188      0.2287
    129  O         59.8050   40.2450   13.6110 O.2   188  GLN188     -0.2864
    130  CB        60.2980   37.9350   11.3740 C.3   188  GLN188      0.0394
    131  CG        59.3020   36.9590   11.9830 C.3   188  GLN188      0.0908
    132  CD        59.7370   35.5110   11.8590 C.2   188  GLN188      0.2608
    133  OE1       60.9290   35.2050   11.8260 O.2   188  GLN188     -0.2717
    134  NE2       58.7660   34.6090   11.8000 N.am  188  GLN188     -0.0878
    135  N         58.3590   43.2750   13.0970 N.3   191  PHE191     -0.1241
    136  CA        57.1240   42.9250   13.7880 C.3   191  PHE191      0.1605
    137  C         57.3430   42.8170   15.2920 C.2   191  PHE191      0.2264
    138  O         56.4340   43.1250   16.0710 O.2   191  PHE191     -0.2867
    139  CB        56.5560   41.6170   13.2340 C.3   191  PHE191      0.0534
    140  CG        55.2640   41.1980   13.8770 C.ar  191  PHE191     -0.0203
    141  CD1       54.0780   41.8440   13.5660 C.ar  191  PHE191     -0.0042
    142  CD2       55.2340   40.1600   14.7950 C.ar  191  PHE191     -0.0042
    143  CE1       52.8870   41.4670   14.1600 C.ar  191  PHE191     -0.0003
    144  CE2       54.0440   39.7740   15.3900 C.ar  191  PHE191     -0.0003
    145  CZ        52.8700   40.4300   15.0730 C.ar  191  PHE191     -0.0000
    146  N         57.2670   46.3000   16.3990 N.3   194  LEU194     -0.1245
    147  CA        55.8680   46.7080   16.4870 C.3   194  LEU194      0.1561
    148  C         55.2610   46.2930   17.8220 C.2   194  LEU194      0.2260
    149  O         54.6650   47.1150   18.5270 O.2   194  LEU194     -0.2867
    150  CB        55.0730   46.1100   15.3260 C.3   194  LEU194      0.0270
    151  CG        53.6580   46.6600   15.1190 C.3   194  LEU194      0.0019
    152  CD1       53.6770   48.1770   15.0120 C.3   194  LEU194      0.0001
    153  CD2       53.0150   46.0440   13.8910 C.3   194  LEU194      0.0001
    154  N         47.5960   36.2100   16.9930 N.3   204  ARG204     -0.1231
    155  CA        46.8240   35.0460   16.5770 C.3   204  ARG204      0.1694
    156  C         47.7770   33.8830   16.3310 C.2   204  ARG204      0.2593
    157  O         49.0000   34.0170   16.4420 O.2   204  ARG204     -0.2718
    158  CB        46.0210   35.3500   15.3120 C.3   204  ARG204      0.0321
    159  CG        46.9110   35.4810   14.0930 C.3   204  ARG204      0.0489
    160  CD        46.1440   35.4140   12.7930 C.3   204  ARG204      0.2205
    161  NE        46.9990   34.9480   11.7060 N.pl3 204  ARG204     -0.0865
    162  CZ        46.8070   35.2450   10.4270 C.cat 204  ARG204      0.5346
    163  NH1       45.7870   36.0150   10.0740 N.pl3 204  ARG204      0.1354
    164  NH2       47.6370   34.7800    9.5040 N.pl3 204  ARG204      0.1354
    165  N         47.1980   32.7370   15.9900 N.am  205  GLY205     -0.1942
    166  CA        47.9880   31.6350   15.4620 C.3   205  GLY205      0.2014
    167  C         48.9480   31.0650   16.4850 C.2   205  GLY205      0.2639
    168  O         48.5890   30.8070   17.6390 O.2   205  GLY205     -0.2714
    169  N         50.1970   30.8750   16.0590 N.am  206  GLU206     -0.1963
    170  CA        51.1900   30.1630   16.8560 C.3   206  GLU206      0.1733
    171  C         52.3600   31.0490   17.2670 C.2   206  GLU206      0.2616
    172  O         52.6270   31.1860   18.4650 O.2   206  GLU206     -0.2715
    173  CB        51.6940   28.9430   16.0760 C.3   206  GLU206      0.0429
    174  CG        52.8890   28.2550   16.7080 C.3   206  GLU206      0.1163
    175  CD        52.6600   26.7720   16.9100 C.2   206  GLU206      0.3649
    176  OE1       53.5960   26.0810   17.3630 O.co2 206  GLU206     -0.2457
    177  OE2       51.5420   26.3010   16.6160 O.co2 206  GLU206     -0.2457
    178  N         53.0700   31.6500   16.3100 N.am  207  ASP207     -0.1957
    179  CA        54.3190   32.3320   16.6340 C.3   207  ASP207      0.1840
    180  C         54.0780   33.7360   17.1830 C.2   207  ASP207      0.2622
    181  O         54.6710   34.1180   18.1990 O.2   207  ASP207     -0.2715
    182  CB        55.2230   32.3810   15.4010 C.3   207  ASP207      0.1450
    183  CG        56.5690   33.0130   15.6920 C.2   207  ASP207      0.3671
    184  OD1       57.3660   32.4100   16.4470 O.co2 207  ASP207     -0.2456
    185  OD2       56.8290   34.1160   15.1690 O.co2 207  ASP207     -0.2456
    186  N         53.2180   34.5200   16.5220 N.am  208  SER208     -0.1950
    187  CA        52.9010   35.8520   17.0320 C.3   208  SER208      0.1924
    188  C         52.2710   35.7780   18.4140 C.2   208  SER208      0.2314
    189  O         52.4290   36.7010   19.2230 O.2   208  SER208     -0.2863
    190  CB        51.9710   36.5860   16.0680 C.3   208  SER208      0.2116
    191  OG        50.6650   36.0320   16.0920 O.3   208  SER208     -0.2180
    192  N         55.4450   35.5080   20.4270 N.3   211  ARG211     -0.1245
    193  CA        56.2110   36.7430   20.2870 C.3   211  ARG211      0.1563
    194  C         55.6300   37.8590   21.1480 C.2   211  ARG211      0.2260
    195  O         56.3760   38.6300   21.7620 O.2   211  ARG211     -0.2867
    196  CB        56.2490   37.1670   18.8210 C.3   211  ARG211      0.0307
    197  CG        57.1020   36.2700   17.9470 C.3   211  ARG211      0.0489
    198  CD        58.5630   36.6280   18.0980 C.3   211  ARG211      0.2205
    199  NE        59.3120   35.5900   18.7910 N.pl3 211  ARG211     -0.0865
    200  CZ        60.6260   35.6200   18.9710 C.cat 211  ARG211      0.5346
    201  NH1       61.3370   36.6420   18.5090 N.pl3 211  ARG211      0.1354
    202  NH2       61.2290   34.6280   19.6110 N.pl3 211  ARG211      0.1354
    203  N         42.7260   30.3660   15.6240 N.3   224  TYR224     -0.1241
    204  CA        42.1810   29.7510   14.4110 C.3   224  TYR224      0.1605
    205  C         40.6600   29.6710   14.3420 C.2   224  TYR224      0.2264
    206  O         40.0980   28.5760   14.2380 O.2   224  TYR224     -0.2867
    207  CB        42.7620   28.3430   14.2500 C.3   224  TYR224      0.0534
    208  CG        44.1350   28.4160   13.6720 C.ar  224  TYR224     -0.0201
    209  CD1       44.3070   28.7090   12.3290 C.ar  224  TYR224     -0.0009
    210  CD2       45.2110   28.1640   14.5090 C.ar  224  TYR224     -0.0009
    211  CE1       45.5920   28.7440   11.8070 C.ar  224  TYR224      0.0417
    212  CE2       46.4920   28.2070   13.9790 C.ar  224  TYR224      0.0417
    213  CZ        46.6950   28.4890   12.6490 C.ar  224  TYR224      0.1957
    214  OH        48.0080   28.5120   12.1970 O.3   224  TYR224     -0.2866
@<TRIPOS>BOND
     1    15    14    2
     2    94    92   am
     3    92    93    2
     4    92    91    1
     5    91    90    1
     6    14    16   am
     7    14    13    1
     8    28    27    1
     9     4     3    2
    10    99    96    1
    11    99   100    1
    12    90    87    1
    13    13    10    1
    14    25    27   ar
    15    25    23   ar
    16   105   104    2
    17    27    26   ar
    18   106   103    1
    19   106   107    1
    20    96    97    1
    21    96    95    1
    22   102   103    1
    23   102    97   am
    24   100   101    1
    25     3     9   am
    26     3     2    1
    27    10     9    1
    28    10    11    1
    29    23    22   ar
    30    87    88    1
    31    87    86    1
    32     5     2    1
    33     5     6    1
    34   104   103    1
    35   104   113   am
    36     1     2    1
    37    26    24   ar
    38   107   109   ar
    39   107   108   ar
    40    97    98    2
    41   109   111   ar
    42    88    89    2
    43    95   101    1
    44    11    17   am
    45    11    12    2
    46     8     6   ar
    47   108   110   ar
    48    17    18    1
    49     6     7   ar
    50   116   115    2
    51    22    24   ar
    52    22    21    1
    53   111   112   ar
    54    86    81   am
    55   113   114    1
    56   114   115    1
    57   114   117    1
    58   115   120   am
    59   110   112   ar
    60    18    21    1
    61    18    19    1
    62    40    38   ar
    63   118   117    1
    64   120   121    1
    65    81    82    2
    66    81    80    1
    67   117   119    1
    68    37    38    1
    69    37    34    1
    70   121   124    1
    71   121   122    1
    72   124   125    1
    73    38    39   ar
    74    19    20    2
    75    19    29   am
    76    35    34    1
    77    35    36    2
    78    80    83    1
    79    80    79    1
    80    34    33    1
    81   164   162    1
    82    41    42    1
    83    29    30    1
    84    33    31   am
    85    83    84    1
    86   122   126   am
    87   122   123    2
    88   163   162    1
    89   126   127    1
    90    79    85    1
    91   162   161    2
    92    42    43    1
    93    64    66   ar
    94    64    62   ar
    95    31    30    1
    96    31    32    2
    97    73    75   ar
    98    73    72   ar
    99    84    85    1
   100    69    68    1
   101    69    70    2
   102   127   130    1
   103   127   128    1
   104   130   131    1
   105    75    77   ar
   106    68    71    1
   107    68    67    1
   108    66    65   ar
   109    62    61   ar
   110    71    72    1
   111   161   160    1
   112    43    44    2
   113   134   132   am
   114   211   209   ar
   115   211   213   ar
   116   133   132    2
   117   132   131    1
   118    45    46    1
   119    72    74   ar
   120   214   213    1
   121   209   208   ar
   122   128   129    2
   123   213   212   ar
   124    77    78    1
   125    77    76   ar
   126   160   159    1
   127    65    63   ar
   128    61    63   ar
   129    61    60    1
   130   135   136    1
   131    46    47    1
   132    46    49    1
   133   139   136    1
   134   139   140    1
   135    74    76   ar
   136   141   140   ar
   137   141   143   ar
   138   208   207    1
   139   208   210   ar
   140    60    57    1
   141    57    58    1
   142    57    56    1
   143   136   137    1
   144    47    48    2
   145   140   142   ar
   146   153   151    1
   147   212   210   ar
   148    58    59    2
   149   159   158    1
   150   143   145   ar
   151    49    50    1
   152   206   205    2
   153   207   204    1
   154   205   204    1
   155   204   203    1
   156   142   144   ar
   157    55    53    1
   158   152   151    1
   159   145   144   ar
   160   151   150    1
   161   185   183   ar
   162   137   138    2
   163   158   155    1
   164   150   147    1
   165   182   183    1
   166   182   179    1
   167   166   165    1
   168   166   167    1
   169    50    51    1
   170    53    52    2
   171    53    54    1
   172   183   184   ar
   173    52    51    1
   174   165   156   am
   175   169   167   am
   176   169   170    1
   177   190   191    1
   178   190   187    1
   179   173   174    1
   180   173   170    1
   181   178   179    1
   182   178   171   am
   183   156   157    2
   184   156   155    1
   185   146   147    1
   186   167   168    2
   187   147   148    1
   188   186   187    1
   189   186   180   am
   190   155   154    1
   191   177   175   ar
   192   179   180    1
   193   174   175    1
   194   170   171    1
   195   175   176   ar
   196   187   188    1
   197   180   181    2
   198   171   172    2
   199   148   149    2
   200   197   198    1
   201   197   196    1
   202   198   199    1
   203   188   189    2
   204   201   200    1
   205   199   200    2
   206   196   193    1
   207   200   202    1
   208   193   192    1
   209   193   194    1
   210   194   195    2
