@<TRIPOS>MOLECULE
tmp/5nvaA00.pdb
 148 140 0 0 0
SMALL
GASTEIGER

@<TRIPOS>ATOM
      1  N         10.3110   96.7570   24.5830 N.3    51  PHE51      -0.1241
      2  CA        10.7850   98.1360   24.6100 C.3    51  PHE51       0.1605
      3  C         10.4200   98.8700   23.3250 C.2    51  PHE51       0.2264
      4  O          9.8900   99.9860   23.3630 O.2    51  PHE51      -0.2867
      5  CB        12.2960   98.1550   24.8330 C.3    51  PHE51       0.0534
      6  CG        12.8800   99.5320   24.8970 C.ar   51  PHE51      -0.0203
      7  CD1       12.6380  100.3490   25.9890 C.ar   51  PHE51      -0.0042
      8  CD2       13.6720  100.0110   23.8670 C.ar   51  PHE51      -0.0042
      9  CE1       13.1750  101.6190   26.0530 C.ar   51  PHE51      -0.0003
     10  CE2       14.2130  101.2790   23.9250 C.ar   51  PHE51      -0.0003
     11  CZ        13.9650  102.0850   25.0190 C.ar   51  PHE51      -0.0000
     12  N          6.5600   99.6360   23.0400 N.3    54  THR54      -0.1203
     13  CA         6.0140  100.7370   23.8230 C.3    54  THR54       0.1994
     14  C          6.5630  102.0850   23.3710 C.2    54  THR54       0.2618
     15  O          5.8280  103.0760   23.3570 O.2    54  THR54      -0.2717
     16  CB         6.2950  100.5140   25.3100 C.3    54  THR54       0.1784
     17  OG1        7.7070  100.3970   25.5210 O.3    54  THR54      -0.2211
     18  CG2        5.6080   99.2470   25.7960 C.3    54  THR54       0.0376
     19  N          7.8370  102.1500   22.9900 N.am   55  LEU55      -0.1965
     20  CA         8.4630  103.4090   22.5920 C.3    55  LEU55       0.1728
     21  C          8.1950  103.6540   21.1100 C.2    55  LEU55       0.2616
     22  O          8.7880  102.9990   20.2470 O.2    55  LEU55      -0.2715
     23  CB         9.9630  103.3860   22.8860 C.3    55  LEU55       0.0311
     24  CG        10.6770  104.7430   22.9380 C.3    55  LEU55       0.0022
     25  CD1       11.9160  104.6580   23.8090 C.3    55  LEU55       0.0001
     26  CD2       11.0460  105.2630   21.5500 C.3    55  LEU55       0.0001
     27  N          7.3210  104.6110   20.8160 N.am   56  SER56      -0.1950
     28  CA         6.9420  104.9460   19.4530 C.3    56  SER56       0.1924
     29  C          7.5070  106.3120   19.0730 C.2    56  SER56       0.2314
     30  O          8.3620  106.8740   19.7670 O.2    56  SER56      -0.2863
     31  CB         5.4200  104.9150   19.3100 C.3    56  SER56       0.2116
     32  OG         4.8230  106.0160   19.9740 O.3    56  SER56      -0.2180
     33  N          5.8650  108.7970   19.4550 N.3    58  ILE58      -0.1231
     34  CA         5.3890  109.6510   20.5410 C.3    58  ILE58       0.1692
     35  C          6.5470  110.0300   21.4550 C.2    58  ILE58       0.2592
     36  O          6.8480  111.2130   21.6540 O.2    58  ILE58      -0.2718
     37  CB         4.2640  108.9500   21.3220 C.3    58  ILE58       0.0266
     38  CG1        3.0330  108.7580   20.4330 C.3    58  ILE58       0.0019
     39  CG2        3.9120  109.7370   22.5730 C.3    58  ILE58       0.0020
     40  CD1        1.9090  107.9980   21.1050 C.3    58  ILE58       0.0001
     41  N          7.2190  109.0240   22.0210 N.am   59  THR59      -0.1953
     42  CA         8.3690  109.2930   22.8790 C.3    59  THR59       0.1897
     43  C          9.4980  109.9570   22.1000 C.2    59  THR59       0.2313
     44  O         10.1070  110.9220   22.5770 O.2    59  THR59      -0.2863
     45  CB         8.8620  107.9950   23.5220 C.3    59  THR59       0.1794
     46  OG1        7.9150  107.5520   24.5010 O.3    59  THR59      -0.2208
     47  CG2       10.2170  108.2030   24.1900 C.3    59  THR59       0.0378
     48  N          9.0840  113.6720   23.8690 N.3    63  ILE63      -0.1245
     49  CA         9.8910  113.6930   25.0880 C.3    63  ILE63       0.1561
     50  C         10.9880  114.7470   24.9520 C.2    63  ILE63       0.2260
     51  O         11.1710  115.5480   25.8810 O.2    63  ILE63      -0.2867
     52  CB        10.4680  112.3060   25.4180 C.3    63  ILE63       0.0252
     53  CG1        9.3650  111.3810   25.9360 C.3    63  ILE63       0.0019
     54  CG2       11.5860  112.4240   26.4440 C.3    63  ILE63       0.0019
     55  CD1        8.7120  111.8670   27.2130 C.3    63  ILE63       0.0001
     56  N          9.0540  114.0590   33.9160 N.3    74  PHE74      -0.1241
     57  CA         8.3220  112.9320   33.3490 C.3    74  PHE74       0.1605
     58  C          9.1560  111.6570   33.3020 C.2    74  PHE74       0.2264
     59  O          8.5870  110.5680   33.1690 O.2    74  PHE74      -0.2867
     60  CB         7.8220  113.2770   31.9440 C.3    74  PHE74       0.0534
     61  CG         6.4910  113.9760   31.9270 C.ar   74  PHE74      -0.0203
     62  CD1        6.2120  114.9920   32.8290 C.ar   74  PHE74      -0.0042
     63  CD2        5.5190  113.6180   31.0080 C.ar   74  PHE74      -0.0042
     64  CE1        4.9900  115.6360   32.8140 C.ar   74  PHE74      -0.0003
     65  CE2        4.2940  114.2580   30.9880 C.ar   74  PHE74      -0.0003
     66  CZ         4.0290  115.2690   31.8930 C.ar   74  PHE74      -0.0000
     67  N          8.3120  108.4710   35.3280 N.3    77  GLY77      -0.1210
     68  CA         7.4530  107.4140   34.8240 C.3    77  GLY77       0.1956
     69  C          8.2170  106.2730   34.1860 C.2    77  GLY77       0.2611
     70  O          7.7190  105.1450   34.1240 O.2    77  GLY77      -0.2717
     71  N          9.4290  106.5440   33.6990 N.am   78  GLN78      -0.1979
     72  CA        10.2560  105.4790   33.1430 C.3    78  GLN78       0.1601
     73  C         10.6680  104.4900   34.2250 C.2    78  GLN78       0.2287
     74  O         10.5570  103.2720   34.0440 O.2    78  GLN78      -0.2864
     75  CB        11.4890  106.0720   32.4590 C.3    78  GLN78       0.0394
     76  CG        11.1760  107.0990   31.3880 C.3    78  GLN78       0.0908
     77  CD        10.5390  106.4790   30.1620 C.2    78  GLN78       0.2608
     78  OE1       10.6810  105.2820   29.9110 O.2    78  GLN78      -0.2717
     79  NE2        9.8310  107.2930   29.3880 N.am   78  GLN78      -0.0878
     80  N          7.9580  102.3330   35.6270 N.3    81  ALA81      -0.1245
     81  CA         7.6800  101.1830   34.7730 C.3    81  ALA81       0.1562
     82  C          8.5980  100.0150   35.1100 C.2    81  ALA81       0.2260
     83  O          8.1770   98.8530   35.0680 O.2    81  ALA81      -0.2867
     84  CB         7.8210  101.5730   33.3020 C.3    81  ALA81       0.0290
     85  N         -4.1620  104.2930   18.1310 N.3   131  ARG131     -0.1245
     86  CA        -2.7350  104.4140   18.4190 C.3   131  ARG131      0.1563
     87  C         -1.9040  104.2860   17.1480 C.2   131  ARG131      0.2260
     88  O         -0.9340  105.0270   16.9570 O.2   131  ARG131     -0.2867
     89  CB        -2.3100  103.3650   19.4480 C.3   131  ARG131      0.0307
     90  CG        -0.8080  103.3290   19.7090 C.3   131  ARG131      0.0489
     91  CD        -0.4490  102.3780   20.8440 C.3   131  ARG131      0.2205
     92  NE         0.9720  102.0390   20.8530 N.pl3 131  ARG131     -0.0865
     93  CZ         1.9170  102.7720   21.4360 C.cat 131  ARG131      0.5346
     94  NH1        1.5990  103.8970   22.0630 N.pl3 131  ARG131      0.1354
     95  NH2        3.1830  102.3810   21.3910 N.pl3 131  ARG131      0.1354
     96  N          1.5940  107.8260   36.1090 N.3   239  PHE239     -0.1241
     97  CA         2.4610  106.9080   35.3800 C.3   239  PHE239      0.1605
     98  C          2.4970  105.5300   36.0250 C.2   239  PHE239      0.2264
     99  O          2.7180  104.5320   35.3300 O.2   239  PHE239     -0.2867
    100  CB         3.8730  107.4810   35.2750 C.3   239  PHE239      0.0534
    101  CG         4.0620  108.4120   34.1130 C.ar  239  PHE239     -0.0203
    102  CD1        3.4850  108.1340   32.8840 C.ar  239  PHE239     -0.0042
    103  CD2        4.8150  109.5660   34.2490 C.ar  239  PHE239     -0.0042
    104  CE1        3.6570  108.9890   31.8110 C.ar  239  PHE239     -0.0003
    105  CE2        4.9950  110.4230   33.1820 C.ar  239  PHE239     -0.0003
    106  CZ         4.4150  110.1350   31.9600 C.ar  239  PHE239     -0.0000
    107  N          1.5550  102.5540   33.6700 N.3   243  ASN243     -0.1240
    108  CA         2.4910  101.4600   33.4390 C.3   243  ASN243      0.1653
    109  C          1.8720  100.1140   33.7940 C.2   243  ASN243      0.2266
    110  O          2.1340   99.1130   33.1170 O.2   243  ASN243     -0.2867
    111  CB         3.7740  101.6870   34.2380 C.3   243  ASN243      0.1155
    112  CG         4.6070  102.8290   33.6900 C.2   243  ASN243      0.2627
    113  OD1        4.6620  103.0450   32.4790 O.2   243  ASN243     -0.2716
    114  ND2        5.2590  103.5690   34.5800 N.am  243  ASN243     -0.0877
    115  N         -0.0050   99.1960   30.9060 N.3   246  GLN246     -0.1231
    116  CA         0.8400   98.8240   29.7790 C.3   246  GLN246      0.1698
    117  C          1.3690   97.4020   29.9070 C.2   246  GLN246      0.2592
    118  O          1.5170   96.7020   28.8990 O.2   246  GLN246     -0.2718
    119  CB         2.0010   99.8140   29.6560 C.3   246  GLN246      0.0381
    120  CG         2.9630   99.5240   28.5150 C.3   246  GLN246      0.0905
    121  CD         2.3230   99.6970   27.1520 C.2   246  GLN246      0.2608
    122  OE1        1.6660   98.7900   26.6400 O.2   246  GLN246     -0.2717
    123  NE2        2.5120  100.8690   26.5550 N.am  246  GLN246     -0.0878
    124  N          1.6400   96.9470   31.1290 N.am  247  PHE247     -0.1976
    125  CA         2.3500   95.6940   31.3370 C.3   247  PHE247      0.1639
    126  C          1.4970   94.5900   31.9500 C.2   247  PHE247      0.2290
    127  O          2.0100   93.4870   32.1670 O.2   247  PHE247     -0.2864
    128  CB         3.5880   95.9390   32.2100 C.3   247  PHE247      0.0560
    129  CG         4.6670   96.7260   31.5180 C.ar  247  PHE247     -0.0200
    130  CD1        5.6670   96.0800   30.8090 C.ar  247  PHE247     -0.0042
    131  CD2        4.6750   98.1110   31.5650 C.ar  247  PHE247     -0.0042
    132  CE1        6.6590   96.7990   30.1670 C.ar  247  PHE247     -0.0003
    133  CE2        5.6630   98.8360   30.9240 C.ar  247  PHE247     -0.0003
    134  CZ         6.6560   98.1790   30.2240 C.ar  247  PHE247     -0.0000
    135  N         14.8790  100.5760   29.4010 N.3   277  VAL277     -0.1245
    136  CA        14.0970  101.6780   29.9560 C.3   277  VAL277      0.1561
    137  C         14.9400  102.5180   30.9050 C.2   277  VAL277      0.2260
    138  O         14.7410  103.7340   31.0210 O.2   277  VAL277     -0.2867
    139  CB        12.8330  101.1300   30.6500 C.3   277  VAL277      0.0252
    140  CG1       12.0620  102.2450   31.3380 C.3   277  VAL277      0.0019
    141  CG2       11.9440  100.4190   29.6420 C.3   277  VAL277      0.0019
    142  N         15.6970  106.1300   27.5480 N.3   281  PRO281     -0.2116
    143  CA        14.8840  107.3480   27.7200 C.3   281  PRO281      0.1372
    144  C         15.6540  108.5350   28.2740 C.2   281  PRO281      0.2244
    145  O         15.2800  109.6800   27.9870 O.2   281  PRO281     -0.2868
    146  CB        13.7790  106.8950   28.6830 C.3   281  PRO281      0.0268
    147  CG        13.6360  105.4520   28.4120 C.3   281  PRO281      0.0207
    148  CD        15.0310  104.9610   28.1540 C.3   281  PRO281      0.0892
@<TRIPOS>BOND
     1    88    87    2
     2    87    86    1
     3    85    86    1
     4    86    89    1
     5    29    28    1
     6    29    30    2
     7    31    28    1
     8    31    32    1
     9    89    90    1
    10    28    27    1
    11    33    34    1
    12    90    91    1
    13    22    21    2
    14    38    40    1
    15    38    37    1
    16    34    37    1
    17    34    35    1
    18    27    21   am
    19    91    92    1
    20    92    93    2
    21    21    20    1
    22    37    39    1
    23    95    93    1
    24    93    94    1
    25    35    36    2
    26    35    41   am
    27    26    24    1
    28    41    42    1
    29    43    44    2
    30    43    42    1
    31    20    23    1
    32    20    19    1
    33    42    45    1
    34    23    24    1
    35    24    25    1
    36    19    14   am
    37    12    13    1
    38     3     4    2
    39     3     2    1
    40    15    14    2
    41    14    13    1
    42    45    47    1
    43    45    46    1
    44    13    16    1
    45     8    10   ar
    46     8     6   ar
    47    48    49    1
    48    10    11   ar
    49     1     2    1
    50     2     5    1
    51     5     6    1
    52     6     7   ar
    53    50    49    1
    54    50    51    2
    55    11     9   ar
    56    49    52    1
    57    16    17    1
    58    16    18    1
    59    52    53    1
    60    52    54    1
    61    53    55    1
    62     7     9   ar
    63   123   121   am
    64   122   121    2
    65   121   120    1
    66   142   143    1
    67   142   148    1
    68   143   144    1
    69   143   146    1
    70   145   144    2
    71   148   147    1
    72   147   146    1
    73   120   119    1
    74   118   117    2
    75    79    77   am
    76   135   136    1
    77   141   139    1
    78   119   116    1
    79   116   117    1
    80   116   115    1
    81   117   124   am
    82    78    77    2
    83   136   139    1
    84   136   137    1
    85    77    76    1
    86   132   134   ar
    87   132   130   ar
    88   134   133   ar
    89   139   140    1
    90   130   129   ar
    91   137   138    2
    92   133   131   ar
    93    65    63   ar
    94    65    66   ar
    95    63    61   ar
    96   124   125    1
    97   125   126    1
    98   125   128    1
    99    76    75    1
   100   129   131   ar
   101   129   128    1
   102   104   106   ar
   103   104   102   ar
   104    66    64   ar
   105    61    60    1
   106    61    62   ar
   107    60    57    1
   108   126   127    2
   109   106   105   ar
   110    75    72    1
   111   113   112    2
   112    64    62   ar
   113   102   101   ar
   114   110   109    2
   115    72    71    1
   116    72    73    1
   117    59    58    2
   118   105   103   ar
   119    58    57    1
   120    84    81    1
   121    57    56    1
   122   108   107    1
   123   108   109    1
   124   108   111    1
   125   112   111    1
   126   112   114   am
   127    71    69   am
   128    74    73    2
   129   101   103   ar
   130   101   100    1
   131    70    69    2
   132    69    68    1
   133    81    82    1
   134    81    80    1
   135    68    67    1
   136    83    82    2
   137   100    97    1
   138    99    98    2
   139    97    98    1
   140    97    96    1
