@<TRIPOS>MOLECULE
tmp/5nvcC00.pdb
 132 134 0 0 0
SMALL
GASTEIGER

@<TRIPOS>ATOM
      1  N         -4.7720    9.5070   11.9510 N.3    80  HIS80      -0.1226
      2  CA        -4.9520    9.1030   13.3340 C.3    80  HIS80       0.1752
      3  C         -5.3210   10.3340   14.1540 C.2    80  HIS80       0.2597
      4  O         -4.5640   11.3130   14.1910 O.2    80  HIS80      -0.2718
      5  CB        -3.7070    8.4220   13.9150 C.3    80  HIS80       0.0759
      6  CG        -3.9040    7.8390   15.2770 C.ar   80  HIS80       0.0818
      7  ND1       -4.4910    6.6080   15.4980 N.ar   80  HIS80      -0.2268
      8  CD2       -3.6140    8.3360   16.5070 C.ar   80  HIS80       0.1154
      9  CE1       -4.5350    6.3650   16.7960 C.ar   80  HIS80       0.1986
     10  NE2       -4.0090    7.3960   17.4320 N.ar   80  HIS80      -0.2212
     11  N         -6.4500   10.2510   14.8410 N.am   81  GLY81      -0.1942
     12  CA        -6.9020   11.3050   15.7560 C.3    81  GLY81       0.2014
     13  C         -6.8430   10.7780   17.1610 C.2    81  GLY81       0.2640
     14  O         -7.2450    9.6610   17.3980 O.2    81  GLY81      -0.2714
     15  N         -6.3630   11.5790   18.1070 N.am   82  SER82      -0.1936
     16  CA        -6.1680   11.0920   19.4660 C.3    82  SER82       0.2040
     17  C         -5.9300   12.2630   20.4210 C.2    82  SER82       0.2485
     18  O         -5.2540   13.2300   20.0610 O.2    82  SER82      -0.2729
     19  CB        -4.9350   10.1920   19.4750 C.3    82  SER82       0.2129
     20  OG        -4.5060    9.8620   20.7700 O.3    82  SER82      -0.2179
     21  N         -6.4300   12.1530   21.6610 N.am   83  PRO83      -0.2715
     22  CA        -5.9880   13.1430   22.6530 C.3    83  PRO83       0.1536
     23  C         -4.5310   12.9440   23.1310 C.2    83  PRO83       0.2598
     24  O         -4.0520   13.7590   23.9250 O.2    83  PRO83      -0.2715
     25  CB        -6.9710   12.9300   23.8130 C.3    83  PRO83       0.0310
     26  CG        -7.3730   11.5130   23.7090 C.3    83  PRO83       0.0237
     27  CD        -7.3520   11.1620   22.2390 C.3    83  PRO83       0.0939
     28  N         -3.8370   11.8990   22.6610 N.am   84  PHE84      -0.1974
     29  CA        -2.4500   11.6140   23.0490 C.3    84  PHE84       0.1639
     30  C         -1.4340   12.0210   21.9740 C.2    84  PHE84       0.2290
     31  O         -0.2860   11.5770   22.0000 O.2    84  PHE84      -0.2864
     32  CB        -2.3120   10.1220   23.3700 C.3    84  PHE84       0.0560
     33  CG        -3.4310    9.5900   24.2260 C.ar   84  PHE84      -0.0200
     34  CD1       -3.7050   10.1660   25.4610 C.ar   84  PHE84      -0.0042
     35  CD2       -4.2450    8.5590   23.7790 C.ar   84  PHE84      -0.0042
     36  CE1       -4.7490    9.7000   26.2450 C.ar   84  PHE84      -0.0003
     37  CE2       -5.2900    8.0890   24.5620 C.ar   84  PHE84      -0.0003
     38  CZ        -5.5410    8.6570   25.7960 C.ar   84  PHE84      -0.0000
     39  N         -2.0340    3.9580   23.4100 N.3    97  HIS97      -0.1226
     40  CA        -2.7460    4.6230   22.3040 C.3    97  HIS97       0.1752
     41  C         -3.7390    3.7060   21.5840 C.2    97  HIS97       0.2596
     42  O         -4.3310    4.1000   20.5660 O.2    97  HIS97      -0.2718
     43  CB        -1.7010    5.2200   21.3680 C.3    97  HIS97       0.0759
     44  CG        -0.6840    6.0250   22.1040 C.ar   97  HIS97       0.0818
     45  ND1        0.6680    5.8170   21.9720 N.ar   97  HIS97      -0.2268
     46  CD2       -0.8230    6.9640   23.0670 C.ar   97  HIS97       0.1154
     47  CE1        1.3240    6.6280   22.7790 C.ar   97  HIS97       0.1986
     48  NE2        0.4410    7.3270   23.4650 N.ar   97  HIS97      -0.2212
     49  N         -3.9490    2.5080   22.1420 N.am   98  ALA98      -0.1966
     50  CA        -4.9120    1.5550   21.6030 C.3    98  ALA98       0.1728
     51  C         -6.3320    1.8830   22.0410 C.2    98  ALA98       0.2616
     52  O         -6.5590    2.5510   23.0570 O.2    98  ALA98      -0.2715
     53  CB        -4.5600    0.1300   22.0040 C.3    98  ALA98       0.0334
     54  N         -7.2800    1.4250   21.2310 N.am   99  TYR99      -0.1974
     55  CA        -8.7010    1.5920   21.4720 C.3    99  TYR99       0.1639
     56  C         -9.1760    0.2280   21.9160 C.2    99  TYR99       0.2290
     57  O         -9.4250   -0.6650   21.0940 O.2    99  TYR99      -0.2864
     58  CB        -9.3980    2.0670   20.1840 C.3    99  TYR99       0.0560
     59  CG       -10.8890    2.2860   20.2440 C.ar   99  TYR99      -0.0198
     60  CD1      -11.5940    2.3180   21.4620 C.ar   99  TYR99      -0.0009
     61  CD2      -11.6130    2.4920   19.0750 C.ar   99  TYR99      -0.0009
     62  CE1      -12.9550    2.5350   21.4950 C.ar   99  TYR99       0.0417
     63  CE2      -12.9770    2.7110   19.1060 C.ar   99  TYR99       0.0417
     64  CZ       -13.6450    2.7180   20.3230 C.ar   99  TYR99       0.1957
     65  OH       -14.9890    2.9260   20.3880 O.3    99  TYR99      -0.2866
     66  N         -5.9730    2.2040   15.9300 N.3   109  TYR109     -0.1227
     67  CA        -6.8820    2.4210   14.8050 C.3   109  TYR109      0.1736
     68  C         -6.4670    3.5960   13.9330 C.2   109  TYR109      0.2595
     69  O         -6.0910    4.6580   14.4400 O.2   109  TYR109     -0.2718
     70  CB        -8.3120    2.6540   15.3090 C.3   109  TYR109      0.0548
     71  CG        -9.0020    1.3820   15.7240 C.ar  109  TYR109     -0.0200
     72  CD1      -10.0920    0.9120   15.0080 C.ar  109  TYR109     -0.0009
     73  CD2       -8.5400    0.6360   16.7950 C.ar  109  TYR109     -0.0009
     74  CE1      -10.7280   -0.2650   15.3870 C.ar  109  TYR109      0.0417
     75  CE2       -9.1710   -0.5410   17.1720 C.ar  109  TYR109      0.0417
     76  CZ       -10.2540   -0.9870   16.4560 C.ar  109  TYR109      0.1957
     77  OH       -10.8730   -2.1770   16.8150 O.3   109  TYR109     -0.2866
     78  N         -6.5580    3.4020   12.6220 N.am  110  PHE110     -0.1962
     79  CA        -6.2750    4.4280   11.6310 C.3   110  PHE110      0.1771
     80  C         -7.4050    4.4840   10.6190 C.2   110  PHE110      0.2619
     81  O         -8.1480    3.5230   10.4680 O.2   110  PHE110     -0.2715
     82  CB        -4.9700    4.1290   10.9210 C.3   110  PHE110      0.0574
     83  CG        -3.7890    4.1400   11.8360 C.ar  110  PHE110     -0.0200
     84  CD1       -3.0170    5.2870   11.9840 C.ar  110  PHE110     -0.0042
     85  CD2       -3.4630    3.0070   12.5800 C.ar  110  PHE110     -0.0042
     86  CE1       -1.9460    5.2990   12.8630 C.ar  110  PHE110     -0.0003
     87  CE2       -2.3970    3.0110   13.4610 C.ar  110  PHE110     -0.0003
     88  CZ        -1.6340    4.1640   13.5990 C.ar  110  PHE110     -0.0000
     89  N         -7.5380    5.6150    9.9400 N.am  111  ALA111     -0.1977
     90  CA        -8.6380    5.8330    9.0100 C.3   111  ALA111      0.1597
     91  C         -8.1780    6.4200    7.6830 C.2   111  ALA111      0.2287
     92  O         -7.2860    7.2730    7.6300 O.2   111  ALA111     -0.2864
     93  CB        -9.6710    6.7570    9.6190 C.3   111  ALA111      0.0319
     94  N        -13.2630   10.7510    9.9420 N.3   116  LYS116     -0.1231
     95  CA       -13.3880    9.6620   10.9040 C.3   116  LYS116      0.1693
     96  C        -12.3850    9.8750   12.0500 C.2   116  LYS116      0.2592
     97  O        -12.7680    9.8700   13.2080 O.2   116  LYS116     -0.2718
     98  CB       -13.2140    8.2980   10.2240 C.3   116  LYS116      0.0285
     99  CG       -13.0860    7.0950   11.1520 C.3   116  LYS116      0.0035
    100  CD       -14.1750    6.9610   12.2010 C.3   116  LYS116      0.0206
    101  CE       -15.5300    6.6910   11.6110 C.3   116  LYS116      0.1093
    102  NZ       -16.5220    6.2590   12.6710 N.3   116  LYS116     -0.1314
    103  N        -11.1140   10.1010   11.7220 N.am  117  SER117     -0.1952
    104  CA       -10.1190   10.3950   12.7650 C.3   117  SER117      0.1924
    105  C        -10.4550   11.6610   13.5520 C.2   117  SER117      0.2314
    106  O        -10.1940   11.7300   14.7650 O.2   117  SER117     -0.2863
    107  CB        -8.7080   10.4610   12.1590 C.3   117  SER117      0.2116
    108  OG        -8.2770    9.1730   11.7560 O.3   117  SER117     -0.2180
    109  N        -12.1320   11.4320   16.9530 N.3   120  TYR120     -0.1241
    110  CA       -11.3720   10.9360   18.1020 C.3   120  TYR120      0.1605
    111  C        -10.4030   11.9430   18.6900 C.2   120  TYR120      0.2264
    112  O         -9.7210   11.6260   19.6710 O.2   120  TYR120     -0.2867
    113  CB       -10.6350    9.6320   17.7380 C.3   120  TYR120      0.0534
    114  CG       -11.6170    8.4970   17.4830 C.ar  120  TYR120     -0.0201
    115  CD1      -12.0420    7.6710   18.5200 C.ar  120  TYR120     -0.0009
    116  CD2      -12.1830    8.3080   16.2220 C.ar  120  TYR120     -0.0009
    117  CE1      -12.9600    6.6610   18.2890 C.ar  120  TYR120      0.0417
    118  CE2      -13.1110    7.3120   15.9960 C.ar  120  TYR120      0.0417
    119  CZ       -13.4960    6.5000   17.0210 C.ar  120  TYR120      0.1957
    120  OH       -14.4180    5.5010   16.7720 O.3   120  TYR120     -0.2866
    121  N        -11.2460   12.5320   22.1630 N.3   123  GLY123     -0.1210
    122  CA       -11.5220   11.2830   22.8600 C.3   123  GLY123      0.1956
    123  C        -12.5350   10.4190   22.1380 C.2   123  GLY123      0.2611
    124  O        -13.0660   10.8060   21.1090 O.2   123  GLY123     -0.2717
    125  N        -12.8150    9.2580   22.7250 N.am  124  ILE124     -0.1979
    126  CA       -13.7920    8.3150   22.1560 C.3   124  ILE124      0.1595
    127  C        -15.1510    9.0080   22.1100 C.2   124  ILE124      0.2287
    128  O        -15.5840    9.6180   23.1030 O.2   124  ILE124     -0.2864
    129  CB       -13.8400    7.0150   22.9800 C.3   124  ILE124      0.0276
    130  CG1      -12.4920    6.2920   22.8970 C.3   124  ILE124      0.0022
    131  CG2      -14.9230    6.0790   22.4650 C.3   124  ILE124      0.0022
    132  CD1      -12.2680    5.2650   23.9930 C.3   124  ILE124      0.0001
@<TRIPOS>BOND
     1    92    91    2
     2    91    90    1
     3    90    93    1
     4    90    89    1
     5    89    80   am
     6    94    95    1
     7    98    95    1
     8    98    99    1
     9    81    80    2
    10    80    79    1
    11    95    96    1
    12    82    79    1
    13    82    83    1
    14    99   100    1
    15   101   100    1
    16   101   102    1
    17    79    78    1
    18   103    96   am
    19   103   104    1
    20   108   107    1
    21    83    84   ar
    22    83    85   ar
    23     1     2    1
    24    84    86   ar
    25    96    97    2
    26   107   104    1
    27    85    87   ar
    28    78    68   am
    29   104   105    1
    30    86    88   ar
    31     2     5    1
    32     2     3    1
    33    87    88   ar
    34   105   106    2
    35     5     6    1
    36    68    69    2
    37    68    67    1
    38     3     4    2
    39     3    11   am
    40    67    70    1
    41    67    66    1
    42    11    12    1
    43    72    74   ar
    44    72    71   ar
    45     6     7   ar
    46     6     8   ar
    47    70    71    1
    48    74    76   ar
    49     7     9   ar
    50    71    73   ar
    51    12    13    1
    52   118   116   ar
    53   118   119   ar
    54   116   114   ar
    55    76    77    1
    56    76    75   ar
    57     8    10   ar
    58   120   119    1
    59    73    75   ar
    60     9    10   ar
    61   109   110    1
    62   119   117   ar
    63    13    14    2
    64    13    15   am
    65   114   113    1
    66   114   115   ar
    67   113   110    1
    68   110   111    1
    69    15    16    1
    70   117   115   ar
    71   111   112    2
    72    61    63   ar
    73    61    59   ar
    74    63    64   ar
    75    16    19    1
    76    16    17    1
    77    19    20    1
    78    18    17    2
    79    58    59    1
    80    58    55    1
    81    59    60   ar
    82    64    65    1
    83    64    62   ar
    84    17    21   am
    85    42    41    2
    86    57    56    2
    87   124   123    2
    88    54    55    1
    89    54    51   am
    90    43    44    1
    91    43    40    1
    92    60    62   ar
    93    55    56    1
    94    41    49   am
    95    41    40    1
    96    50    53    1
    97    50    51    1
    98    50    49    1
    99    21    27    1
   100    21    22    1
   101    45    44   ar
   102    45    47   ar
   103    30    31    2
   104    30    29    1
   105    51    52    2
   106    44    46   ar
   107   127   126    1
   108   127   128    2
   109   123   125   am
   110   123   122    1
   111   126   125    1
   112   126   129    1
   113   121   122    1
   114    27    26    1
   115    40    39    1
   116   131   129    1
   117    22    23    1
   118    22    25    1
   119    28    29    1
   120    28    23   am
   121    47    48   ar
   122   130   129    1
   123   130   132    1
   124    29    32    1
   125    46    48   ar
   126    23    24    2
   127    32    33    1
   128    26    25    1
   129    35    33   ar
   130    35    37   ar
   131    33    34   ar
   132    37    38   ar
   133    34    36   ar
   134    38    36   ar
