@<TRIPOS>MOLECULE
tmp/5nvfC00.pdb
 151 153 0 0 0
SMALL
GASTEIGER

@<TRIPOS>ATOM
      1  N         -4.7470    9.4410   11.9630 N.3    80  HIS80      -0.1226
      2  CA        -4.9640    9.0470   13.3450 C.3    80  HIS80       0.1752
      3  C         -5.3060   10.2810   14.1760 C.2    80  HIS80       0.2597
      4  O         -4.5370   11.2580   14.1730 O.2    80  HIS80      -0.2718
      5  CB        -3.7270    8.3410   13.9090 C.3    80  HIS80       0.0759
      6  CG        -3.9140    7.7940   15.2850 C.ar   80  HIS80       0.0818
      7  ND1       -4.5640    6.6020   15.5350 N.ar   80  HIS80      -0.2268
      8  CD2       -3.5510    8.2820   16.5000 C.ar   80  HIS80       0.1154
      9  CE1       -4.5750    6.3690   16.8360 C.ar   80  HIS80       0.1986
     10  NE2       -3.9760    7.3770   17.4460 N.ar   80  HIS80      -0.2212
     11  N         -6.4220   10.2040   14.8940 N.am   81  GLY81      -0.1942
     12  CA        -6.8820   11.2170   15.8330 C.3    81  GLY81       0.2014
     13  C         -6.8340   10.6380   17.2310 C.2    81  GLY81       0.2640
     14  O         -7.1900    9.4870   17.4320 O.2    81  GLY81      -0.2714
     15  N         -6.3570   11.4170   18.2000 N.am   82  SER82      -0.1936
     16  CA        -6.1900   10.8900   19.5500 C.3    82  SER82       0.2040
     17  C         -5.9350   12.0160   20.5490 C.2    82  SER82       0.2485
     18  O         -5.2380   12.9890   20.2260 O.2    82  SER82      -0.2729
     19  CB        -5.0210    9.9170   19.5970 C.3    82  SER82       0.2129
     20  OG        -4.6970    9.5200   20.9220 O.3    82  SER82      -0.2179
     21  N         -6.4470   11.8620   21.7760 N.am   83  PRO83      -0.2715
     22  CA        -6.0360   12.8140   22.8220 C.3    83  PRO83       0.1536
     23  C         -4.5430   12.7440   23.1600 C.2    83  PRO83       0.2598
     24  O         -4.0380   13.6740   23.8000 O.2    83  PRO83      -0.2715
     25  CB        -6.8650   12.3910   24.0490 C.3    83  PRO83       0.0310
     26  CG        -7.9350   11.4980   23.5240 C.3    83  PRO83       0.0237
     27  CD        -7.4250   10.8730   22.2690 C.3    83  PRO83       0.0939
     28  N         -3.8450   11.6860   22.7450 N.am   84  PHE84      -0.1974
     29  CA        -2.4380   11.4780   23.1000 C.3    84  PHE84       0.1639
     30  C         -1.4640   11.8090   21.9680 C.2    84  PHE84       0.2290
     31  O         -0.3300   11.3420   21.9700 O.2    84  PHE84      -0.2864
     32  CB        -2.2860   10.0410   23.6150 C.3    84  PHE84       0.0560
     33  CG        -3.2750    9.7120   24.7080 C.ar   84  PHE84      -0.0200
     34  CD1       -3.1560   10.3100   25.9670 C.ar   84  PHE84      -0.0042
     35  CD2       -4.3670    8.8870   24.4630 C.ar   84  PHE84      -0.0042
     36  CE1       -4.0780   10.0490   26.9810 C.ar   84  PHE84      -0.0003
     37  CE2       -5.2970    8.6270   25.4690 C.ar   84  PHE84      -0.0003
     38  CZ        -5.1520    9.2050   26.7270 C.ar   84  PHE84      -0.0000
     39  N         -0.4540    1.9280   25.0280 N.3    96  ARG96      -0.1231
     40  CA        -1.2060    3.0020   25.6840 C.3    96  ARG96       0.1694
     41  C         -2.0840    3.8050   24.7240 C.2    96  ARG96       0.2592
     42  O         -2.9390    4.5600   25.1750 O.2    96  ARG96      -0.2718
     43  CB        -0.2660    3.9760   26.3940 C.3    96  ARG96       0.0321
     44  CG         0.5630    3.3710   27.5200 C.3    96  ARG96       0.0489
     45  CD         1.3920    4.4550   28.1960 C.3    96  ARG96       0.2205
     46  NE         2.3450    5.0780   27.2670 N.pl3  96  ARG96      -0.0865
     47  CZ         3.6460    4.7830   27.1500 C.cat  96  ARG96       0.5346
     48  NH1        4.2330    3.8480   27.9100 N.pl3  96  ARG96       0.1354
     49  NH2        4.3830    5.4410   26.2520 N.pl3  96  ARG96       0.1354
     50  N         -1.8580    3.6580   23.4170 N.am   97  HIS97      -0.1962
     51  CA        -2.5810    4.4320   22.3960 C.3    97  HIS97       0.1787
     52  C         -3.6440    3.6180   21.6710 C.2    97  HIS97       0.2620
     53  O         -4.3220    4.1250   20.7730 O.2    97  HIS97      -0.2715
     54  CB        -1.5630    5.0210   21.4340 C.3    97  HIS97       0.0785
     55  CG        -0.5300    5.8340   22.1370 C.ar   97  HIS97       0.0821
     56  ND1        0.8170    5.6380   21.9600 N.ar   97  HIS97      -0.2267
     57  CD2       -0.6490    6.7740   23.1000 C.ar   97  HIS97       0.1154
     58  CE1        1.4890    6.4630   22.7410 C.ar   97  HIS97       0.1986
     59  NE2        0.6210    7.1510   23.4530 N.ar   97  HIS97      -0.2212
     60  N         -3.8110    2.3710   22.1040 N.am   98  ALA98      -0.1963
     61  CA        -4.8190    1.4760   21.5590 C.3    98  ALA98       0.1728
     62  C         -6.2270    1.8450   22.0040 C.2    98  ALA98       0.2616
     63  O         -6.4380    2.3890   23.0950 O.2    98  ALA98      -0.2715
     64  CB        -4.5170    0.0410   21.9550 C.3    98  ALA98       0.0334
     65  N         -7.1850    1.5620   21.1200 N.am   99  TYR99      -0.1960
     66  CA        -8.6030    1.6840   21.3950 C.3    99  TYR99       0.1771
     67  C         -9.0540    0.3130   21.8610 C.2    99  TYR99       0.2619
     68  O         -9.2700   -0.6070   21.0500 O.2    99  TYR99      -0.2715
     69  CB        -9.3370    2.1360   20.1220 C.3    99  TYR99       0.0574
     70  CG       -10.8350    2.3110   20.2070 C.ar   99  TYR99      -0.0198
     71  CD1      -11.5210    2.3290   21.4300 C.ar   99  TYR99      -0.0009
     72  CD2      -11.5740    2.4980   19.0390 C.ar   99  TYR99      -0.0009
     73  CE1      -12.8870    2.5100   21.4870 C.ar   99  TYR99       0.0417
     74  CE2      -12.9420    2.7010   19.0920 C.ar   99  TYR99       0.0417
     75  CZ       -13.5960    2.6780   20.3110 C.ar   99  TYR99       0.1957
     76  OH       -14.9360    2.8570   20.3550 O.3    99  TYR99      -0.2866
     77  N         -9.1520    0.1690   23.1820 N.am  100  ILE100     -0.1977
     78  CA        -9.3900   -1.1440   23.7720 C.3   100  ILE100      0.1596
     79  C        -10.7340   -1.6860   23.3110 C.2   100  ILE100      0.2287
     80  O        -10.8250   -2.8600   22.9480 O.2   100  ILE100     -0.2864
     81  CB        -9.2990   -1.1410   25.3210 C.3   100  ILE100      0.0276
     82  CG1       -7.9320   -0.6050   25.8070 C.3   100  ILE100      0.0022
     83  CG2       -9.5460   -2.5490   25.8720 C.3   100  ILE100      0.0022
     84  CD1       -6.7190   -1.4160   25.4040 C.3   100  ILE100      0.0001
     85  N         -5.9430    2.2170   15.9550 N.3   109  TYR109     -0.1227
     86  CA        -6.8530    2.4150   14.8220 C.3   109  TYR109      0.1736
     87  C         -6.4550    3.5830   13.9370 C.2   109  TYR109      0.2595
     88  O         -6.0630    4.6390   14.4510 O.2   109  TYR109     -0.2718
     89  CB        -8.2770    2.6380   15.3130 C.3   109  TYR109      0.0548
     90  CG        -8.9550    1.3630   15.7320 C.ar  109  TYR109     -0.0200
     91  CD1      -10.0450    0.8820   15.0310 C.ar  109  TYR109     -0.0009
     92  CD2       -8.4780    0.6280   16.8150 C.ar  109  TYR109     -0.0009
     93  CE1      -10.6620   -0.2910   15.4170 C.ar  109  TYR109      0.0417
     94  CE2       -9.0880   -0.5410   17.2040 C.ar  109  TYR109      0.0417
     95  CZ       -10.1690   -0.9990   16.4980 C.ar  109  TYR109      0.1957
     96  OH       -10.7550   -2.1900   16.8780 O.3   109  TYR109     -0.2866
     97  N         -6.5980    3.3940   12.6250 N.am  110  PHE110     -0.1962
     98  CA        -6.2840    4.4190   11.6280 C.3   110  PHE110      0.1771
     99  C         -7.4080    4.4750   10.6080 C.2   110  PHE110      0.2619
    100  O         -8.1650    3.5150   10.4520 O.2   110  PHE110     -0.2715
    101  CB        -4.9680    4.1140   10.9130 C.3   110  PHE110      0.0574
    102  CG        -3.7880    4.1010   11.8210 C.ar  110  PHE110     -0.0200
    103  CD1       -2.9860    5.2350   11.9690 C.ar  110  PHE110     -0.0042
    104  CD2       -3.4690    2.9650   12.5430 C.ar  110  PHE110     -0.0042
    105  CE1       -1.8840    5.2200   12.8290 C.ar  110  PHE110     -0.0003
    106  CE2       -2.4010    2.9610   13.4260 C.ar  110  PHE110     -0.0003
    107  CZ        -1.6100    4.0850   13.5650 C.ar  110  PHE110     -0.0000
    108  N         -7.5330    5.6130    9.9300 N.am  111  ALA111     -0.1977
    109  CA        -8.6180    5.8280    8.9910 C.3   111  ALA111      0.1597
    110  C         -8.1680    6.4010    7.6680 C.2   111  ALA111      0.2287
    111  O         -7.3100    7.2710    7.6130 O.2   111  ALA111     -0.2864
    112  CB        -9.6500    6.7430    9.5950 C.3   111  ALA111      0.0319
    113  N        -13.2350   10.6960    9.9350 N.3   116  LYS116     -0.1231
    114  CA       -13.3430    9.6210   10.9260 C.3   116  LYS116      0.1693
    115  C        -12.3220    9.8270   12.0650 C.2   116  LYS116      0.2592
    116  O        -12.6880    9.8110   13.2310 O.2   116  LYS116     -0.2718
    117  CB       -13.1820    8.2500   10.2510 C.3   116  LYS116      0.0285
    118  CG       -13.0000    7.0450   11.1770 C.3   116  LYS116      0.0035
    119  CD       -14.0970    6.9040   12.2160 C.3   116  LYS116      0.0206
    120  CE       -15.4680    6.6960   11.6200 C.3   116  LYS116      0.1093
    121  NZ       -16.4610    6.2670   12.6800 N.3   116  LYS116     -0.1314
    122  N        -11.0580   10.0580   11.7300 N.am  117  SER117     -0.1952
    123  CA       -10.0730   10.3730   12.7730 C.3   117  SER117      0.1924
    124  C        -10.4130   11.6360   13.5720 C.2   117  SER117      0.2314
    125  O        -10.1710   11.6940   14.7910 O.2   117  SER117     -0.2863
    126  CB        -8.6660   10.4300   12.2000 C.3   117  SER117      0.2116
    127  OG        -8.2410    9.1440   11.7840 O.3   117  SER117     -0.2180
    128  N        -12.1150   11.4260   16.9950 N.3   120  TYR120     -0.1241
    129  CA       -11.3670   10.9500   18.1630 C.3   120  TYR120      0.1605
    130  C        -10.3880   11.9880   18.7130 C.2   120  TYR120      0.2264
    131  O         -9.7100   11.7100   19.7030 O.2   120  TYR120     -0.2867
    132  CB       -10.6530    9.6450   17.8360 C.3   120  TYR120      0.0534
    133  CG       -11.6300    8.5270   17.5320 C.ar  120  TYR120     -0.0201
    134  CD1      -12.1120    7.7030   18.5510 C.ar  120  TYR120     -0.0009
    135  CD2      -12.1170    8.3300   16.2460 C.ar  120  TYR120     -0.0009
    136  CE1      -12.9970    6.6860   18.2800 C.ar  120  TYR120      0.0417
    137  CE2      -13.0310    7.3360   15.9780 C.ar  120  TYR120      0.0417
    138  CZ       -13.4690    6.5190   16.9880 C.ar  120  TYR120      0.1957
    139  OH       -14.3810    5.5350   16.7370 O.3   120  TYR120     -0.2866
    140  N        -11.2250   12.4390   22.1190 N.3   123  GLY123     -0.1210
    141  CA       -11.4520   11.1500   22.7530 C.3   123  GLY123      0.1956
    142  C        -12.5590   10.3610   22.0830 C.2   123  GLY123      0.2611
    143  O        -13.1610   10.8140   21.1150 O.2   123  GLY123     -0.2717
    144  N        -12.8160    9.1770   22.6260 N.am  124  ILE124     -0.1979
    145  CA       -13.8270    8.2880   22.0750 C.3   124  ILE124      0.1595
    146  C        -15.1730    8.9960   22.1020 C.2   124  ILE124      0.2287
    147  O        -15.5530    9.6030   23.1170 O.2   124  ILE124     -0.2864
    148  CB       -13.8750    6.9650   22.8620 C.3   124  ILE124      0.0276
    149  CG1      -12.5790    6.1630   22.6530 C.3   124  ILE124      0.0022
    150  CG2      -15.0310    6.1070   22.3950 C.3   124  ILE124      0.0022
    151  CD1      -12.2480    5.1650   23.7520 C.3   124  ILE124      0.0001
@<TRIPOS>BOND
     1   111   110    2
     2   110   109    1
     3   109   112    1
     4   109   108    1
     5   108    99   am
     6   113   114    1
     7   117   114    1
     8   117   118    1
     9   100    99    2
    10    99    98    1
    11   101    98    1
    12   101   102    1
    13   114   115    1
    14   118   119    1
    15   120   119    1
    16   120   121    1
    17    98    97    1
    18   122   115   am
    19   122   123    1
    20   127   126    1
    21   102   103   ar
    22   102   104   ar
    23     1     2    1
    24   103   105   ar
    25   115   116    2
    26   126   123    1
    27   104   106   ar
    28    97    87   am
    29   123   124    1
    30   105   107   ar
    31     2     5    1
    32     2     3    1
    33   106   107   ar
    34   124   125    2
    35     5     6    1
    36    87    88    2
    37    87    86    1
    38     4     3    2
    39     3    11   am
    40    86    89    1
    41    86    85    1
    42    11    12    1
    43    91    93   ar
    44    91    90   ar
    45     6     7   ar
    46     6     8   ar
    47    89    90    1
    48    93    95   ar
    49     7     9   ar
    50    90    92   ar
    51    12    13    1
    52   137   135   ar
    53   137   138   ar
    54   135   133   ar
    55    95    96    1
    56    95    94   ar
    57     8    10   ar
    58   139   138    1
    59    92    94   ar
    60     9    10   ar
    61   138   136   ar
    62   128   129    1
    63    13    14    2
    64    13    15   am
    65   133   132    1
    66   133   134   ar
    67   132   129    1
    68   129   130    1
    69    15    16    1
    70   136   134   ar
    71   130   131    2
    72    72    74   ar
    73    72    70   ar
    74    74    75   ar
    75    16    19    1
    76    16    17    1
    77    19    20    1
    78    69    70    1
    79    69    66    1
    80    70    71   ar
    81    18    17    2
    82    75    76    1
    83    75    73   ar
    84    17    21   am
    85    53    52    2
    86    68    67    2
    87   143   142    2
    88    65    66    1
    89    65    62   am
    90    66    67    1
    91    71    73   ar
    92    54    55    1
    93    54    51    1
    94    61    64    1
    95    61    62    1
    96    61    60    1
    97    52    60   am
    98    52    51    1
    99    21    27    1
   100    21    22    1
   101    67    77   am
   102    56    55   ar
   103    56    58   ar
   104    30    31    2
   105    30    29    1
   106    62    63    2
   107   145   146    1
   108   145   144    1
   109   145   148    1
   110   142   144   am
   111   142   141    1
   112   146   147    2
   113   140   141    1
   114    55    57   ar
   115    27    26    1
   116   150   148    1
   117    51    50    1
   118   149   148    1
   119   149   151    1
   120    58    59   ar
   121    28    29    1
   122    28    23   am
   123    22    23    1
   124    22    25    1
   125    80    79    2
   126    57    59   ar
   127    29    32    1
   128    23    24    2
   129    77    78    1
   130    79    78    1
   131    50    41   am
   132    26    25    1
   133    32    33    1
   134    78    81    1
   135    35    33   ar
   136    35    37   ar
   137    33    34   ar
   138    41    42    2
   139    41    40    1
   140    39    40    1
   141    81    82    1
   142    81    83    1
   143    84    82    1
   144    37    38   ar
   145    40    43    1
   146    34    36   ar
   147    49    47    1
   148    43    44    1
   149    38    36   ar
   150    47    46    2
   151    47    48    1
   152    46    45    1
   153    44    45    1
