@<TRIPOS>MOLECULE
tmp/5nvwF00.pdb
 187 188 0 0 0
SMALL
GASTEIGER

@<TRIPOS>ATOM
      1  N         20.4860   14.3710   98.2950 N.3     6  ASN6       -0.1240
      2  CA        19.1590   13.7700   98.3620 C.3     6  ASN6        0.1653
      3  C         18.0690   14.8470   98.2600 C.2     6  ASN6        0.2266
      4  O         17.3370   15.1080   99.2190 O.2     6  ASN6       -0.2867
      5  CB        19.0150   12.9370   99.6440 C.3     6  ASN6        0.1155
      6  CG        17.7720   12.0580   99.6400 C.2     6  ASN6        0.2627
      7  OD1       17.0000   12.0290   98.6730 O.2     6  ASN6       -0.2716
      8  ND2       17.5690   11.3380  100.7300 N.am    6  ASN6       -0.0877
      9  N         15.3050   15.0910   96.2940 N.3     8  ARG8       -0.1245
     10  CA        13.9220   14.6770   96.0690 C.3     8  ARG8        0.1563
     11  C         13.2050   15.6390   95.1090 C.2     8  ARG8        0.2260
     12  O         11.9890   15.7360   95.1220 O.2     8  ARG8       -0.2867
     13  CB        13.1660   14.5640   97.4090 C.3     8  ARG8        0.0307
     14  CG        14.0430   14.0910   98.5660 C.3     8  ARG8        0.0489
     15  CD        13.3490   14.1080   99.9190 C.3     8  ARG8        0.2205
     16  NE        12.9640   12.7560  100.3250 N.pl3   8  ARG8       -0.0865
     17  CZ        11.7300   12.2580  100.2870 C.cat   8  ARG8        0.5346
     18  NH1       10.6980   12.9880   99.8760 N.pl3   8  ARG8        0.1354
     19  NH2       11.5190   11.0090  100.6800 N.pl3   8  ARG8        0.1354
     20  N         19.5900   11.3810   78.0680 N.3    15  PHE15      -0.1241
     21  CA        20.9530   10.8940   77.8980 C.3    15  PHE15       0.1605
     22  C         21.0610   10.6550   76.4130 C.2    15  PHE15       0.2264
     23  O         20.3280    9.8360   75.8960 O.2    15  PHE15      -0.2867
     24  CB        21.2040    9.5730   78.6420 C.3    15  PHE15       0.0534
     25  CG        21.3210    9.6930   80.1440 C.ar   15  PHE15      -0.0203
     26  CD1       21.4540   10.9210   80.7810 C.ar   15  PHE15      -0.0042
     27  CD2       21.3300    8.5410   80.9220 C.ar   15  PHE15      -0.0042
     28  CE1       21.5870   10.9900   82.1590 C.ar   15  PHE15      -0.0003
     29  CE2       21.4670    8.6020   82.3030 C.ar   15  PHE15      -0.0003
     30  CZ        21.5970    9.8310   82.9240 C.ar   15  PHE15      -0.0000
     31  N         26.0970    4.6520   81.8900 N.3    24  PRO24      -0.2116
     32  CA        25.8940    5.7590   82.7940 C.3    24  PRO24       0.1372
     33  C         26.1280    5.2840   84.2100 C.2    24  PRO24       0.2244
     34  O         25.6950    4.1980   84.5460 O.2    24  PRO24      -0.2868
     35  CB        24.4250    6.1280   82.5990 C.3    24  PRO24       0.0268
     36  CG        23.9180    5.2700   81.4970 C.3    24  PRO24       0.0207
     37  CD        24.8260    4.0920   81.4400 C.3    24  PRO24       0.0892
     38  N         25.6420    6.5340   88.2450 N.3    26  TRP26      -0.1241
     39  CA        25.0930    7.4880   89.2090 C.3    26  TRP26       0.1605
     40  C         25.8460    7.3590   90.5290 C.2    26  TRP26       0.2264
     41  O         25.9920    6.2620   91.0440 O.2    26  TRP26      -0.2867
     42  CB        23.6080    7.2000   89.4500 C.3    26  TRP26       0.0550
     43  CG        22.9910    8.0200   90.5600 C.ar   26  TRP26       0.0003
     44  CD1       22.8940    9.3740   90.6120 C.ar   26  TRP26       0.0946
     45  CD2       22.3810    7.5250   91.7700 C.ar   26  TRP26       0.0152
     46  NE1       22.2720    9.7590   91.7790 N.ar   26  TRP26      -0.2442
     47  CE2       21.9440    8.6460   92.5050 C.ar   26  TRP26       0.0810
     48  CE3       22.1740    6.2440   92.3070 C.ar   26  TRP26       0.0012
     49  CZ2       21.3020    8.5280   93.7540 C.ar   26  TRP26       0.0191
     50  CZ3       21.5420    6.1240   93.5580 C.ar   26  TRP26       0.0001
     51  CH2       21.1180    7.2580   94.2640 C.ar   26  TRP26       0.0015
     52  N         24.0620    8.2990   97.4080 N.3    29  PHE29      -0.1241
     53  CA        24.1560    9.2520   98.5160 C.3    29  PHE29       0.1605
     54  C         25.3800    9.0430   99.4090 C.2    29  PHE29       0.2264
     55  O         25.8110    9.9890  100.0790 O.2    29  PHE29      -0.2867
     56  CB        22.8650    9.2510   99.3340 C.3    29  PHE29       0.0534
     57  CG        21.6500    9.4860   98.4990 C.ar   29  PHE29      -0.0203
     58  CD1       21.5410   10.6380   97.7380 C.ar   29  PHE29      -0.0042
     59  CD2       20.6380    8.5410   98.4300 C.ar   29  PHE29      -0.0042
     60  CE1       20.4340   10.8600   96.9460 C.ar   29  PHE29      -0.0003
     61  CE2       19.5270    8.7600   97.6430 C.ar   29  PHE29      -0.0003
     62  CZ        19.4250    9.9210   96.8980 C.ar   29  PHE29      -0.0000
     63  N         26.9120    3.6780   91.1220 N.3    34  GLN34      -0.1245
     64  CA        25.8460    2.7380   90.7760 C.3    34  GLN34       0.1566
     65  C         25.6930    2.7170   89.2580 C.2    34  GLN34       0.2260
     66  O         25.3370    3.7240   88.6640 O.2    34  GLN34      -0.2867
     67  CB        24.5200    3.1150   91.4310 C.3    34  GLN34       0.0367
     68  CG        23.3960    2.1180   91.1170 C.3    34  GLN34       0.0905
     69  CD        22.0910    2.4120   91.8500 C.2    34  GLN34       0.2608
     70  OE1       21.0260    2.5100   91.2340 O.2    34  GLN34      -0.2717
     71  NE2       22.1690    2.5480   93.1660 N.am   34  GLN34      -0.0878
     72  N         24.0100    2.0100   85.6550 N.3    36  TYR36      -0.1228
     73  CA        22.6620    1.9990   85.0750 C.3    36  TYR36       0.1721
     74  C         22.6830    1.3290   83.6960 C.2    36  TYR36       0.2437
     75  O         23.7580    1.0030   83.2020 O.2    36  TYR36      -0.2733
     76  CB        22.1410    3.4410   84.9770 C.3    36  TYR36       0.0547
     77  CG        21.3940    3.8450   86.2240 C.ar   36  TYR36      -0.0200
     78  CD1       22.0760    4.0120   87.4350 C.ar   36  TYR36      -0.0009
     79  CD2       20.0080    3.9980   86.2210 C.ar   36  TYR36      -0.0009
     80  CE1       21.4050    4.3410   88.5930 C.ar   36  TYR36       0.0417
     81  CE2       19.3170    4.3370   87.3970 C.ar   36  TYR36       0.0417
     82  CZ        20.0280    4.5120   88.5760 C.ar   36  TYR36       0.1957
     83  OH        19.3960    4.8480   89.7530 O.3    36  TYR36      -0.2866
     84  N         21.5000    1.0750   83.0910 N.am   37  PRO37      -0.2718
     85  CA        21.4470    0.3730   81.8010 C.3    37  PRO37       0.1535
     86  C         22.2420    1.0750   80.6830 C.2    37  PRO37       0.2599
     87  O         22.3020    2.2960   80.6520 O.2    37  PRO37      -0.2715
     88  CB        19.9430    0.3600   81.4800 C.3    37  PRO37       0.0310
     89  CG        19.2880    0.3560   82.8250 C.3    37  PRO37       0.0237
     90  CD        20.1480    1.2770   83.6470 C.3    37  PRO37       0.0939
     91  N         22.8790    0.3080   79.8090 N.am   38  THR38      -0.1937
     92  CA        23.7540    0.8880   78.7920 C.3    38  THR38       0.2028
     93  C         22.9870    1.5320   77.6230 C.2    38  THR38       0.2642
     94  O         21.8300    1.2110   77.3890 O.2    38  THR38      -0.2714
     95  CB        24.7050   -0.1670   78.2110 C.3    38  THR38       0.1808
     96  OG1       23.9340   -1.2570   77.7180 O.3    38  THR38      -0.2208
     97  CG2       25.6770   -0.6840   79.2700 C.3    38  THR38       0.0379
     98  N         23.6540    2.4300   76.8980 N.am   39  LEU39      -0.1977
     99  CA        23.1320    3.0120   75.6490 C.3    39  LEU39       0.1596
    100  C         24.0060    2.6330   74.4510 C.2    39  LEU39       0.2287
    101  O         25.1990    2.9660   74.4410 O.2    39  LEU39      -0.2864
    102  CB        23.1120    4.5350   75.7170 C.3    39  LEU39       0.0297
    103  CG        22.0780    5.1860   76.6220 C.3    39  LEU39       0.0022
    104  CD1       22.6510    5.4400   78.0080 C.3    39  LEU39       0.0001
    105  CD2       21.6190    6.4910   75.9920 C.3    39  LEU39       0.0001
    106  N         17.8950    8.1670   75.4880 N.3    45  ARG45      -0.1231
    107  CA        16.9120    7.7030   76.4530 C.3    45  ARG45       0.1694
    108  C         16.4630    8.8960   77.2920 C.2    45  ARG45       0.2592
    109  O         17.2890    9.7190   77.7170 O.2    45  ARG45      -0.2718
    110  CB        17.5210    6.6530   77.3900 C.3    45  ARG45       0.0321
    111  CG        18.1590    5.4300   76.7410 C.3    45  ARG45       0.0489
    112  CD        17.2150    4.2460   76.6820 C.3    45  ARG45       0.2205
    113  NE        17.8850    3.0340   76.2090 N.pl3  45  ARG45      -0.0865
    114  CZ        18.0460    2.6930   74.9270 C.cat  45  ARG45       0.5346
    115  NH1       17.6080    3.4700   73.9410 N.pl3  45  ARG45       0.1354
    116  NH2       18.6650    1.5580   74.6210 N.pl3  45  ARG45       0.1354
    117  N         15.1590    8.9880   77.5340 N.am   46  ARG46      -0.1966
    118  CA        14.6040   10.0070   78.4120 C.3    46  ARG46       0.1729
    119  C         14.4500    9.3620   79.7750 C.2    46  ARG46       0.2616
    120  O         13.7660    8.3530   79.8940 O.2    46  ARG46      -0.2715
    121  CB        13.2590   10.4970   77.8870 C.3    46  ARG46       0.0348
    122  CG        12.6390   11.6100   78.7060 C.3    46  ARG46       0.0492
    123  CD        11.3770   12.1530   78.0520 C.3    46  ARG46       0.2205
    124  NE        10.4130   12.5500   79.0720 N.pl3  46  ARG46      -0.0865
    125  CZ        10.3380   13.7490   79.6410 C.cat  46  ARG46       0.5346
    126  NH1       11.1560   14.7180   79.2800 N.pl3  46  ARG46       0.1354
    127  NH2        9.4220   13.9820   80.5770 N.pl3  46  ARG46       0.1354
    128  N         15.0910    9.9380   80.7930 N.am   47  ILE47      -0.1963
    129  CA        15.1690    9.3090   82.1140 C.3    47  ILE47       0.1727
    130  C         14.7510   10.2550   83.2560 C.2    47  ILE47       0.2616
    131  O         14.8380   11.4890   83.1400 O.2    47  ILE47      -0.2715
    132  CB        16.5810    8.6970   82.3870 C.3    47  ILE47       0.0290
    133  CG1       17.6750    9.7630   82.4550 C.3    47  ILE47       0.0022
    134  CG2       16.9500    7.6790   81.3170 C.3    47  ILE47       0.0023
    135  CD1       17.9610   10.2610   83.8560 C.3    47  ILE47       0.0001
    136  N         14.2850    9.6620   84.3550 N.am   48  HIS48      -0.1959
    137  CA        13.9280   10.4180   85.5610 C.3    48  HIS48       0.1787
    138  C         15.0930   10.4570   86.5470 C.2    48  HIS48       0.2621
    139  O         15.5880    9.4180   86.9840 O.2    48  HIS48      -0.2715
    140  CB        12.7000    9.7940   86.2260 C.3    48  HIS48       0.0785
    141  CG        11.4260    9.9770   85.4540 C.ar   48  HIS48       0.0821
    142  ND1       11.3630   10.6310   84.2410 N.ar   48  HIS48      -0.2267
    143  CD2       10.1650    9.5600   85.7140 C.ar   48  HIS48       0.1154
    144  CE1       10.1200   10.6260   83.7960 C.ar   48  HIS48       0.1986
    145  NE2        9.3730    9.9770   84.6690 N.ar   48  HIS48      -0.2212
    146  N         15.5340   11.6590   86.8910 N.am   49  SER49      -0.1936
    147  CA        16.5950   11.8300   87.8820 C.3    49  SER49       0.2055
    148  C         16.1890   12.9730   88.7830 C.2    49  SER49       0.2643
    149  O         15.0050   13.2770   88.8810 O.2    49  SER49      -0.2714
    150  CB        17.9450   12.0790   87.1920 C.3    49  SER49       0.2130
    151  OG        19.0030   12.1340   88.1270 O.3    49  SER49      -0.2179
    152  N         17.1490   13.6020   89.4490 N.am   50  TYR50      -0.1973
    153  CA        16.8470   14.6350   90.4530 C.3    50  TYR50       0.1639
    154  C         17.9240   15.7040   90.5030 C.2    50  TYR50       0.2290
    155  O         19.0770   15.4480   90.1620 O.2    50  TYR50      -0.2864
    156  CB        16.6800   14.0150   91.8440 C.3    50  TYR50       0.0560
    157  CG        15.5520   13.0110   91.9190 C.ar   50  TYR50      -0.0198
    158  CD1       15.7690   11.6750   91.6220 C.ar   50  TYR50      -0.0009
    159  CD2       14.2720   13.4010   92.2800 C.ar   50  TYR50      -0.0009
    160  CE1       14.7440   10.7520   91.6830 C.ar   50  TYR50       0.0417
    161  CE2       13.2290   12.4870   92.3350 C.ar   50  TYR50       0.0417
    162  CZ        13.4750   11.1620   92.0330 C.ar   50  TYR50       0.1957
    163  OH        12.4630   10.2400   92.0900 O.3    50  TYR50      -0.2866
    164  N         21.8660   15.4820   91.7480 N.3    53  HIS53      -0.1241
    165  CA        22.3780   14.1230   91.5630 C.3    53  HIS53       0.1621
    166  C         23.5560   14.1380   90.5760 C.2    53  HIS53       0.2264
    167  O         23.5300   14.8870   89.6070 O.2    53  HIS53      -0.2867
    168  CB        21.2760   13.1920   91.0860 C.3    53  HIS53       0.0745
    169  CG        20.3250   12.7920   92.1670 C.ar   53  HIS53       0.0817
    170  ND1       19.6090   11.6150   92.1310 N.ar   53  HIS53      -0.2268
    171  CD2       19.9880   13.4020   93.3270 C.ar   53  HIS53       0.1154
    172  CE1       18.8680   11.5220   93.2250 C.ar   53  HIS53       0.1986
    173  NE2       19.0800   12.5950   93.9640 N.ar   53  HIS53      -0.2212
    174  N         26.2480   12.2660   87.9330 N.3    55  TRP55      -0.1241
    175  CA        26.3920   11.1800   86.9630 C.3    55  TRP55       0.1605
    176  C         27.7280   11.3060   86.2410 C.2    55  TRP55       0.2264
    177  O         28.2290   12.4180   86.0160 O.2    55  TRP55      -0.2867
    178  CB        25.3110   11.2690   85.8990 C.3    55  TRP55       0.0550
    179  CG        23.8980   11.0090   86.3450 C.ar   55  TRP55       0.0003
    180  CD1       23.0220   11.9070   86.8740 C.ar   55  TRP55       0.0946
    181  CD2       23.1890    9.7790   86.2340 C.ar   55  TRP55       0.0152
    182  NE1       21.8140   11.3050   87.1210 N.ar   55  TRP55      -0.2442
    183  CE2       21.8950    9.9950   86.7380 C.ar   55  TRP55       0.0810
    184  CE3       23.5280    8.5060   85.7720 C.ar   55  TRP55       0.0012
    185  CZ2       20.9450    8.9930   86.7880 C.ar   55  TRP55       0.0191
    186  CZ3       22.5840    7.5090   85.8320 C.ar   55  TRP55       0.0001
    187  CH2       21.3000    7.7610   86.3270 C.ar   55  TRP55       0.0015
@<TRIPOS>BOND
     1   115   114    1
     2   101   100    2
     3   100    99    1
     4   116   114    1
     5   114   113    2
     6   106   107    1
     7    99   102    1
     8    99    98    1
     9   102   103    1
    10    23    22    2
    11   105   103    1
    12   113   112    1
    13    22    21    1
    14   107   108    1
    15   107   110    1
    16   103   104    1
    17   112   111    1
    18   111   110    1
    19    98    93   am
    20   108   117   am
    21   108   109    2
    22    94    93    2
    23   117   118    1
    24    93    92    1
    25    96    95    1
    26   121   118    1
    27   121   122    1
    28    21    20    1
    29    21    24    1
    30   123   122    1
    31   123   124    1
    32    95    92    1
    33    95    97    1
    34   118   119    1
    35    24    25    1
    36    92    91    1
    37   124   125    2
    38   126   125    1
    39   125   127    1
    40   119   120    2
    41   119   128   am
    42    91    86   am
    43    25    26   ar
    44    25    27   ar
    45    87    86    2
    46    86    85    1
    47    26    28   ar
    48   128   129    1
    49    27    29   ar
    50   134   132    1
    51    37    36    1
    52    37    31    1
    53    88    85    1
    54    88    89    1
    55    36    35    1
    56    85    84    1
    57    31    32    1
    58   129   132    1
    59   129   130    1
    60    28    30   ar
    61    29    30   ar
    62   132   133    1
    63   133   135    1
    64    35    32    1
    65    32    33    1
    66    89    90    1
    67    84    90    1
    68    84    74   am
    69   131   130    2
    70    75    74    2
    71   130   136   am
    72    74    73    1
    73   144   142   ar
    74   144   145   ar
    75    33    34    2
    76   142   141   ar
    77   136   137    1
    78   145   143   ar
    79    76    73    1
    80    76    77    1
    81    73    72    1
    82   141   143   ar
    83   141   140    1
    84   137   140    1
    85   137   138    1
    86   184   186   ar
    87   184   181   ar
    88   186   187   ar
    89   178   179    1
    90   178   175    1
    91   177   176    2
    92    79    77   ar
    93    79    81   ar
    94    77    78   ar
    95   181   179   ar
    96   181   183   ar
    97   176   175    1
    98   187   185   ar
    99   179   180   ar
   100   138   146   am
   101   138   139    2
   102   183   185   ar
   103   183   182   ar
   104   180   182   ar
   105   146   147    1
   106   175   174    1
   107   150   147    1
   108   150   151    1
   109    81    82   ar
   110    78    80   ar
   111   147   148    1
   112    38    39    1
   113    82    80   ar
   114    82    83    1
   115    66    65    2
   116   148   149    2
   117   148   152   am
   118    39    42    1
   119    39    40    1
   120    65    64    1
   121   152   153    1
   122    42    43    1
   123   167   166    2
   124   155   154    2
   125   153   154    1
   126   153   156    1
   127    40    41    2
   128    43    44   ar
   129    43    45   ar
   130   166   165    1
   131    44    46   ar
   132    64    63    1
   133    64    67    1
   134   168   165    1
   135   168   169    1
   136    68    67    1
   137    68    69    1
   138    70    69    2
   139   165   164    1
   140   158   160   ar
   141   158   157   ar
   142   160   162   ar
   143    45    48   ar
   144    45    47   ar
   145    46    47   ar
   146   156   157    1
   147    69    71   am
   148   157   159   ar
   149   162   163    1
   150   162   161   ar
   151   170   169   ar
   152   170   172   ar
   153   169   171   ar
   154   159   161   ar
   155    48    50   ar
   156    47    49   ar
   157   172   173   ar
   158   171   173   ar
   159    50    51   ar
   160    49    51   ar
   161    11    12    2
   162    11    10    1
   163    10     9    1
   164    10    13    1
   165    62    60   ar
   166    62    61   ar
   167    60    58   ar
   168    52    53    1
   169    13    14    1
   170    61    59   ar
   171    58    57   ar
   172     3     2    1
   173     3     4    2
   174     1     2    1
   175     2     5    1
   176    59    57   ar
   177    57    56    1
   178    53    56    1
   179    53    54    1
   180    14    15    1
   181     7     6    2
   182    54    55    2
   183     6     5    1
   184     6     8   am
   185    18    17    1
   186    15    16    1
   187    17    16    2
   188    17    19    1
