@<TRIPOS>MOLECULE
tmp/5nw0C00.pdb
 187 188 0 0 0
SMALL
GASTEIGER

@<TRIPOS>ATOM
      1  N         16.3340   61.3800   99.4720 N.3     6  ASN6       -0.1240
      2  CA        14.9820   60.8310   99.4970 C.3     6  ASN6        0.1653
      3  C         13.9450   61.9620   99.5750 C.2     6  ASN6        0.2266
      4  O         13.4630   62.3060  100.6580 O.2     6  ASN6       -0.2867
      5  CB        14.8260   59.8390  100.6630 C.3     6  ASN6        0.1155
      6  CG        13.6110   58.9290  100.5110 C.2     6  ASN6        0.2627
      7  OD1       12.7930   59.0980   99.6090 O.2     6  ASN6       -0.2716
      8  ND2       13.4880   57.9610  101.4050 N.am    6  ASN6       -0.0877
      9  N         10.9880   62.2810   97.4280 N.3     8  ARG8       -0.1245
     10  CA         9.6270   61.8280   97.1420 C.3     8  ARG8        0.1563
     11  C          8.8280   62.7740   96.2220 C.2     8  ARG8        0.2260
     12  O          7.6060   62.6960   96.1960 O.2     8  ARG8       -0.2867
     13  CB         8.8500   61.5960   98.4460 C.3     8  ARG8        0.0307
     14  CG         9.5970   60.7900   99.5000 C.3     8  ARG8        0.0489
     15  CD         9.0380   61.0430  100.8930 C.3     8  ARG8        0.2205
     16  NE         9.2340   59.9000  101.7800 N.pl3   8  ARG8       -0.0865
     17  CZ         8.5490   58.7600  101.7000 C.cat   8  ARG8        0.5346
     18  NH1        7.6130   58.5870  100.7710 N.pl3   8  ARG8        0.1354
     19  NH2        8.8010   57.7780  102.5530 N.pl3   8  ARG8        0.1354
     20  N         15.5540   59.0870   78.9420 N.3    15  PHE15      -0.1241
     21  CA        16.9240   58.6450   78.7370 C.3    15  PHE15       0.1605
     22  C         17.0790   58.4710   77.2270 C.2    15  PHE15       0.2264
     23  O         16.4110   57.6210   76.6520 O.2    15  PHE15      -0.2867
     24  CB        17.2070   57.3050   79.4460 C.3    15  PHE15       0.0534
     25  CG        17.2860   57.3740   80.9610 C.ar   15  PHE15      -0.0203
     26  CD1       17.3910   58.5840   81.6520 C.ar   15  PHE15      -0.0042
     27  CD2       17.3200   56.1920   81.6950 C.ar   15  PHE15      -0.0042
     28  CE1       17.4880   58.6070   83.0300 C.ar   15  PHE15      -0.0003
     29  CE2       17.4240   56.2080   83.0790 C.ar   15  PHE15      -0.0003
     30  CZ        17.5080   57.4180   83.7500 C.ar   15  PHE15      -0.0000
     31  N         22.2720   52.2760   82.7080 N.3    24  PRO24      -0.2116
     32  CA        22.0580   53.3430   83.6770 C.3    24  PRO24       0.1372
     33  C         22.2730   52.8470   85.1090 C.2    24  PRO24       0.2244
     34  O         21.8990   51.7240   85.4370 O.2    24  PRO24      -0.2868
     35  CB        20.6030   53.7700   83.4430 C.3    24  PRO24       0.0268
     36  CG        20.0620   52.9090   82.3520 C.3    24  PRO24       0.0207
     37  CD        21.0060   51.7610   82.1720 C.3    24  PRO24       0.0892
     38  N         21.7840   54.0520   89.1800 N.3    26  TRP26      -0.1241
     39  CA        21.2060   54.9390   90.1950 C.3    26  TRP26       0.1605
     40  C         22.0080   54.7760   91.4770 C.2    26  TRP26       0.2264
     41  O         22.2820   53.6560   91.9000 O.2    26  TRP26      -0.2867
     42  CB        19.7250   54.5830   90.4560 C.3    26  TRP26       0.0550
     43  CG        19.0670   55.3980   91.5560 C.ar   26  TRP26       0.0003
     44  CD1       18.9260   56.7620   91.6020 C.ar   26  TRP26       0.0946
     45  CD2       18.4560   54.8950   92.7540 C.ar   26  TRP26       0.0152
     46  NE1       18.2770   57.1350   92.7570 N.ar   26  TRP26      -0.2442
     47  CE2       17.9830   56.0100   93.4820 C.ar   26  TRP26       0.0810
     48  CE3       18.2790   53.6140   93.2890 C.ar   26  TRP26       0.0012
     49  CZ2       17.3490   55.8800   94.7180 C.ar   26  TRP26       0.0191
     50  CZ3       17.6520   53.4850   94.5080 C.ar   26  TRP26       0.0001
     51  CH2       17.1950   54.6120   95.2150 C.ar   26  TRP26       0.0015
     52  N         20.1910   55.5240   98.4710 N.3    29  PHE29      -0.1241
     53  CA        20.2500   56.4320   99.6230 C.3    29  PHE29       0.1605
     54  C         21.4610   56.2080  100.5530 C.2    29  PHE29       0.2264
     55  O         21.7800   57.0720  101.3660 O.2    29  PHE29      -0.2867
     56  CB        18.9310   56.3830  100.3930 C.3    29  PHE29       0.0534
     57  CG        17.7260   56.6320   99.5220 C.ar   29  PHE29      -0.0203
     58  CD1       17.6570   57.7700   98.7170 C.ar   29  PHE29      -0.0042
     59  CD2       16.6700   55.7270   99.4870 C.ar   29  PHE29      -0.0042
     60  CE1       16.5600   58.0050   97.9030 C.ar   29  PHE29      -0.0003
     61  CE2       15.5740   55.9560   98.6680 C.ar   29  PHE29      -0.0003
     62  CZ        15.5270   57.0940   97.8670 C.ar   29  PHE29      -0.0000
     63  N         23.1560   51.0620   91.9520 N.3    34  GLN34      -0.1245
     64  CA        22.1510   50.0960   91.5430 C.3    34  GLN34       0.1566
     65  C         21.9450   50.1360   90.0330 C.2    34  GLN34       0.2260
     66  O         21.5920   51.1730   89.4820 O.2    34  GLN34      -0.2867
     67  CB        20.8290   50.3800   92.2270 C.3    34  GLN34       0.0367
     68  CG        19.7060   49.4690   91.7400 C.3    34  GLN34       0.0905
     69  CD        18.5340   49.4440   92.6910 C.2    34  GLN34       0.2608
     70  OE1       18.7160   49.4250   93.9110 O.2    34  GLN34      -0.2717
     71  NE2       17.3250   49.4190   92.1450 N.am   34  GLN34      -0.0878
     72  N         20.2120   49.4100   86.3250 N.3    36  TYR36      -0.1228
     73  CA        18.8580   49.4120   85.7540 C.3    36  TYR36       0.1721
     74  C         18.8960   48.7960   84.3460 C.2    36  TYR36       0.2437
     75  O         19.9790   48.5860   83.8020 O.2    36  TYR36      -0.2733
     76  CB        18.3040   50.8490   85.7310 C.3    36  TYR36       0.0547
     77  CG        17.5870   51.2260   87.0120 C.ar   36  TYR36      -0.0200
     78  CD1       18.3030   51.5090   88.1740 C.ar   36  TYR36      -0.0009
     79  CD2       16.1900   51.2700   87.0770 C.ar   36  TYR36      -0.0009
     80  CE1       17.6480   51.8280   89.3620 C.ar   36  TYR36       0.0417
     81  CE2       15.5280   51.5980   88.2630 C.ar   36  TYR36       0.0417
     82  CZ        16.2610   51.8750   89.4070 C.ar   36  TYR36       0.1957
     83  OH        15.6260   52.1960   90.6040 O.3    36  TYR36      -0.2866
     84  N         17.7210   48.4810   83.7510 N.am   37  PRO37      -0.2718
     85  CA        17.7310   47.8160   82.4360 C.3    37  PRO37       0.1535
     86  C         18.4940   48.6160   81.3770 C.2    37  PRO37       0.2599
     87  O         18.5400   49.8410   81.4530 O.2    37  PRO37      -0.2715
     88  CB        16.2350   47.7000   82.0850 C.3    37  PRO37       0.0310
     89  CG        15.5440   47.6810   83.4130 C.3    37  PRO37       0.0237
     90  CD        16.3560   48.5860   84.3010 C.3    37  PRO37       0.0939
     91  N         19.1090   47.9160   80.4240 N.am   38  THR38      -0.1937
     92  CA        20.0150   48.5420   79.4510 C.3    38  THR38       0.2028
     93  C         19.2450   49.1950   78.3080 C.2    38  THR38       0.2642
     94  O         18.0810   48.8880   78.1040 O.2    38  THR38      -0.2714
     95  CB        20.9900   47.5170   78.8440 C.3    38  THR38       0.1808
     96  OG1       20.2530   46.3790   78.3790 O.3    38  THR38      -0.2208
     97  CG2       22.0250   47.0660   79.8760 C.3    38  THR38       0.0379
     98  N         19.9140   50.0890   77.5720 N.am   39  LEU39      -0.1977
     99  CA        19.3580   50.7170   76.3550 C.3    39  LEU39       0.1596
    100  C         20.2120   50.4000   75.1330 C.2    39  LEU39       0.2287
    101  O         21.4080   50.7380   75.1110 O.2    39  LEU39      -0.2864
    102  CB        19.3130   52.2410   76.4900 C.3    39  LEU39       0.0297
    103  CG        18.3030   52.8790   77.4400 C.3    39  LEU39       0.0022
    104  CD1       18.9480   53.2330   78.7630 C.3    39  LEU39       0.0001
    105  CD2       17.7290   54.1340   76.8100 C.3    39  LEU39       0.0001
    106  N         13.9770   55.8470   76.2990 N.3    45  ARG45      -0.1231
    107  CA        12.9690   55.3370   77.2430 C.3    45  ARG45       0.1694
    108  C         12.4500   56.4750   78.1130 C.2    45  ARG45       0.2592
    109  O         13.2330   57.3030   78.5770 O.2    45  ARG45      -0.2718
    110  CB        13.5640   54.2740   78.1690 C.3    45  ARG45       0.0321
    111  CG        14.1630   53.0480   77.4990 C.3    45  ARG45       0.0489
    112  CD        13.1540   51.9380   77.2860 C.3    45  ARG45       0.2205
    113  NE        13.8250   50.6550   77.0750 N.pl3  45  ARG45      -0.0865
    114  CZ        14.3720   50.2470   75.9270 C.cat  45  ARG45       0.5346
    115  NH1       14.3370   51.0090   74.8360 N.pl3  45  ARG45       0.1354
    116  NH2       14.9660   49.0560   75.8700 N.pl3  45  ARG45       0.1354
    117  N         11.1390   56.5090   78.3380 N.am   46  ARG46      -0.1966
    118  CA        10.5500   57.4310   79.3050 C.3    46  ARG46       0.1729
    119  C         10.4520   56.7060   80.6400 C.2    46  ARG46       0.2616
    120  O          9.7950   55.6650   80.7380 O.2    46  ARG46      -0.2715
    121  CB         9.1630   57.8870   78.8510 C.3    46  ARG46       0.0348
    122  CG         8.5310   58.9590   79.7330 C.3    46  ARG46       0.0492
    123  CD         7.3400   59.6170   79.0460 C.3    46  ARG46       0.2205
    124  NE         6.8900   60.8210   79.7440 N.pl3  46  ARG46      -0.0865
    125  CZ         6.0770   60.8440   80.8000 C.cat  46  ARG46       0.5346
    126  NH1        5.5860   59.7210   81.3240 N.pl3  46  ARG46       0.1354
    127  NH2        5.7550   62.0110   81.3430 N.pl3  46  ARG46       0.1354
    128  N         11.0940   57.2610   81.6660 N.am   47  ILE47      -0.1963
    129  CA        11.1720   56.6040   82.9690 C.3    47  ILE47       0.1727
    130  C         10.7360   57.5450   84.0750 C.2    47  ILE47       0.2616
    131  O         10.7500   58.7590   83.9010 O.2    47  ILE47      -0.2715
    132  CB        12.6010   56.0730   83.2540 C.3    47  ILE47       0.0290
    133  CG1       13.6450   57.2050   83.3090 C.3    47  ILE47       0.0022
    134  CG2       13.0210   55.0670   82.1890 C.3    47  ILE47       0.0023
    135  CD1       13.8290   57.8370   84.6750 C.3    47  ILE47       0.0001
    136  N         10.3510   56.9670   85.2140 N.am   48  HIS48      -0.1959
    137  CA         9.9620   57.7350   86.3960 C.3    48  HIS48       0.1787
    138  C         11.0880   57.7630   87.4350 C.2    48  HIS48       0.2621
    139  O         11.5080   56.7220   87.9260 O.2    48  HIS48      -0.2715
    140  CB         8.7040   57.1300   87.0180 C.3    48  HIS48       0.0785
    141  CG         7.5270   57.1180   86.0970 C.ar   48  HIS48       0.0821
    142  ND1        6.9890   58.2710   85.5690 N.ar   48  HIS48      -0.2267
    143  CD2        6.7860   56.0970   85.6060 C.ar   48  HIS48       0.1154
    144  CE1        5.9670   57.9630   84.7920 C.ar   48  HIS48       0.1986
    145  NE2        5.8200   56.6510   84.8000 N.ar   48  HIS48      -0.2212
    146  N         11.5640   58.9580   87.7680 N.am   49  SER49      -0.1936
    147  CA        12.5820   59.1370   88.8070 C.3    49  SER49       0.2055
    148  C         12.1090   60.2150   89.7750 C.2    49  SER49       0.2643
    149  O         10.9120   60.4720   89.8630 O.2    49  SER49      -0.2714
    150  CB        13.9300   59.5030   88.1820 C.3    49  SER49       0.2130
    151  OG        14.9790   59.5130   89.1410 O.3    49  SER49      -0.2179
    152  N         13.0310   60.8240   90.5200 N.am   50  TYR50      -0.1973
    153  CA        12.6690   61.8200   91.5360 C.3    50  TYR50       0.1639
    154  C         13.6870   62.9470   91.5930 C.2    50  TYR50       0.2290
    155  O         14.8360   62.7680   91.1830 O.2    50  TYR50      -0.2864
    156  CB        12.5500   61.1640   92.9140 C.3    50  TYR50       0.0560
    157  CG        11.4310   60.1490   93.0000 C.ar   50  TYR50      -0.0198
    158  CD1       11.6430   58.8220   92.6410 C.ar   50  TYR50      -0.0009
    159  CD2       10.1560   60.5200   93.4190 C.ar   50  TYR50      -0.0009
    160  CE1       10.6180   57.8890   92.7060 C.ar   50  TYR50       0.0417
    161  CE2        9.1190   59.5990   93.4790 C.ar   50  TYR50       0.0417
    162  CZ         9.3570   58.2870   93.1240 C.ar   50  TYR50       0.1957
    163  OH         8.3460   57.3660   93.1870 O.3    50  TYR50      -0.2866
    164  N         17.7210   62.8900   92.8260 N.3    53  HIS53      -0.1241
    165  CA        18.2950   61.5550   92.6250 C.3    53  HIS53       0.1621
    166  C         19.5050   61.6170   91.6900 C.2    53  HIS53       0.2264
    167  O         19.5260   62.4000   90.7410 O.2    53  HIS53      -0.2867
    168  CB        17.2320   60.5920   92.0890 C.3    53  HIS53       0.0745
    169  CG        16.2960   60.0920   93.1410 C.ar   53  HIS53       0.0817
    170  ND1       15.6420   58.8840   93.0440 N.ar   53  HIS53      -0.2268
    171  CD2       15.9310   60.6210   94.3340 C.ar   53  HIS53       0.1154
    172  CE1       14.9070   58.6950   94.1270 C.ar   53  HIS53       0.1986
    173  NE2       15.0610   59.7390   94.9210 N.ar   53  HIS53      -0.2212
    174  N         22.2610   59.9010   88.9920 N.3    55  TRP55      -0.1241
    175  CA        22.4330   58.8820   87.9600 C.3    55  TRP55       0.1605
    176  C         23.7680   59.0480   87.2240 C.2    55  TRP55       0.2264
    177  O         24.2780   60.1580   87.0740 O.2    55  TRP55      -0.2867
    178  CB        21.3450   59.0170   86.9110 C.3    55  TRP55       0.0550
    179  CG        19.9590   58.6890   87.3340 C.ar   55  TRP55       0.0003
    180  CD1       19.0470   59.5460   87.8450 C.ar   55  TRP55       0.0946
    181  CD2       19.2970   57.4200   87.2090 C.ar   55  TRP55       0.0152
    182  NE1       17.8610   58.8960   88.0660 N.ar   55  TRP55      -0.2442
    183  CE2       17.9900   57.5860   87.6920 C.ar   55  TRP55       0.0810
    184  CE3       19.6910   56.1590   86.7470 C.ar   55  TRP55       0.0012
    185  CZ2       17.0680   56.5410   87.7320 C.ar   55  TRP55       0.0191
    186  CZ3       18.7760   55.1180   86.7860 C.ar   55  TRP55       0.0001
    187  CH2       17.4710   55.3200   87.2650 C.ar   55  TRP55       0.0015
@<TRIPOS>BOND
     1   115   114    1
     2   101   100    2
     3   100    99    1
     4   116   114    1
     5   114   113    2
     6   106   107    1
     7    99   102    1
     8    99    98    1
     9   102   103    1
    10    23    22    2
    11   105   103    1
    12   113   112    1
    13    22    21    1
    14   107   108    1
    15   107   110    1
    16   112   111    1
    17   103   104    1
    18   111   110    1
    19    98    93   am
    20    94    93    2
    21   108   117   am
    22   108   109    2
    23    93    92    1
    24   117   118    1
    25    96    95    1
    26    21    20    1
    27    21    24    1
    28    95    92    1
    29    95    97    1
    30   121   118    1
    31   121   122    1
    32   123   122    1
    33   123   124    1
    34   118   119    1
    35    24    25    1
    36    92    91    1
    37   124   125    2
    38    91    86   am
    39   119   120    2
    40   119   128   am
    41   125   126    1
    42   125   127    1
    43    25    26   ar
    44    25    27   ar
    45    86    87    2
    46    86    85    1
    47    26    28   ar
    48   128   129    1
    49    27    29   ar
    50    88    85    1
    51    88    89    1
    52    37    36    1
    53    37    31    1
    54   134   132    1
    55    36    35    1
    56    85    84    1
    57    31    32    1
    58   129   132    1
    59   129   130    1
    60    28    30   ar
    61    29    30   ar
    62   132   133    1
    63   133   135    1
    64    89    90    1
    65    35    32    1
    66    32    33    1
    67    84    90    1
    68    84    74   am
    69    75    74    2
    70   131   130    2
    71   130   136   am
    72    74    73    1
    73   144   145   ar
    74   144   142   ar
    75   145   143   ar
    76    33    34    2
    77   136   137    1
    78   142   141   ar
    79   143   141   ar
    80    76    73    1
    81    76    77    1
    82    73    72    1
    83   141   140    1
    84   137   140    1
    85   137   138    1
    86   184   186   ar
    87   184   181   ar
    88   186   187   ar
    89   178   179    1
    90   178   175    1
    91    77    79   ar
    92    77    78   ar
    93   177   176    2
    94    79    81   ar
    95   181   179   ar
    96   181   183   ar
    97   176   175    1
    98   187   185   ar
    99   179   180   ar
   100   138   146   am
   101   138   139    2
   102   183   185   ar
   103   183   182   ar
   104   146   147    1
   105   180   182   ar
   106   175   174    1
   107    78    80   ar
   108   150   147    1
   109   150   151    1
   110    81    82   ar
   111   147   148    1
   112    38    39    1
   113    80    82   ar
   114    82    83    1
   115    66    65    2
   116   148   149    2
   117   148   152   am
   118    65    64    1
   119    39    42    1
   120    39    40    1
   121    42    43    1
   122   152   153    1
   123   167   166    2
   124   155   154    2
   125    40    41    2
   126   153   154    1
   127   153   156    1
   128    64    63    1
   129    64    67    1
   130    43    44   ar
   131    43    45   ar
   132    44    46   ar
   133   166   165    1
   134    68    67    1
   135    68    69    1
   136   168   165    1
   137   168   169    1
   138    71    69   am
   139   165   164    1
   140   158   160   ar
   141   158   157   ar
   142    69    70    2
   143   160   162   ar
   144    45    48   ar
   145    45    47   ar
   146    46    47   ar
   147   156   157    1
   148   157   159   ar
   149   170   169   ar
   150   170   172   ar
   151   162   163    1
   152   162   161   ar
   153   169   171   ar
   154    48    50   ar
   155   159   161   ar
   156    47    49   ar
   157   172   173   ar
   158   171   173   ar
   159    50    51   ar
   160    49    51   ar
   161    12    11    2
   162    11    10    1
   163    10     9    1
   164    10    13    1
   165    62    60   ar
   166    62    61   ar
   167    60    58   ar
   168    13    14    1
   169    52    53    1
   170    61    59   ar
   171    58    57   ar
   172     1     2    1
   173    59    57   ar
   174     2     3    1
   175     2     5    1
   176    14    15    1
   177    57    56    1
   178     3     4    2
   179     7     6    2
   180    53    56    1
   181    53    54    1
   182     6     5    1
   183     6     8   am
   184    54    55    2
   185    18    17    1
   186    15    16    1
   187    17    16    2
   188    17    19    1
