@<TRIPOS>MOLECULE
tmp/5nw7A00.pdb
 184 171 0 0 0
SMALL
GASTEIGER

@<TRIPOS>ATOM
      1  N         24.7220   17.5970   18.7150 N.3    15  TYR15      -0.1241
      2  CA        24.0380   18.7680   18.2320 C.3    15  TYR15       0.1605
      3  C         23.0660   19.2940   19.3300 C.2    15  TYR15       0.2264
      4  O         22.5290   18.5230   20.1210 O.2    15  TYR15      -0.2867
      5  CB        23.2430   18.4510   16.9600 C.3    15  TYR15       0.0534
      6  CG        24.0270   17.9040   15.7740 C.ar   15  TYR15      -0.0201
      7  CD1       25.3860   18.2320   15.5640 C.ar   15  TYR15      -0.0009
      8  CD2       23.3640   17.0930   14.8040 C.ar   15  TYR15      -0.0009
      9  CE1       26.0750   17.7370   14.4370 C.ar   15  TYR15       0.0417
     10  CE2       24.0400   16.6050   13.6770 C.ar   15  TYR15       0.0417
     11  CZ        25.3850   16.9240   13.5020 C.ar   15  TYR15       0.1957
     12  OH        26.0030   16.4700   12.3660 O.3    15  TYR15      -0.2866
     13  N         20.0500   20.2530   19.5780 N.3    17  TRP17      -0.1241
     14  CA        18.6970   19.7260   19.7030 C.3    17  TRP17       0.1605
     15  C         18.5710   18.3610   20.3640 C.2    17  TRP17       0.2264
     16  O         17.4610   17.8840   20.6090 O.2    17  TRP17      -0.2867
     17  CB        18.0110   19.7650   18.3480 C.3    17  TRP17       0.0550
     18  CG        18.7800   19.0940   17.2610 C.ar   17  TRP17       0.0003
     19  CD1       19.4480   19.7040   16.2400 C.ar   17  TRP17       0.0946
     20  CD2       18.8130   17.7150   17.0110 C.ar   17  TRP17       0.0152
     21  NE1       19.9380   18.7550   15.3710 N.ar   17  TRP17      -0.2442
     22  CE2       19.5690   17.5230   15.8290 C.ar   17  TRP17       0.0810
     23  CE3       18.3110   16.5740   17.6940 C.ar   17  TRP17       0.0012
     24  CZ2       19.7990   16.2390   15.2830 C.ar   17  TRP17       0.0191
     25  CZ3       18.5560   15.3250   17.1800 C.ar   17  TRP17       0.0001
     26  CH2       19.3080   15.1590   15.9540 C.ar   17  TRP17       0.0015
     27  N         22.7810   12.3480   17.7330 N.3    47  GLU47      -0.1245
     28  CA        22.8320   11.3420   16.6510 C.3    47  GLU47       0.1567
     29  C         23.8980   10.3030   16.9250 C.2    47  GLU47       0.2260
     30  O         24.9950   10.6700   17.3270 O.2    47  GLU47      -0.2867
     31  CB        23.1270   12.0060   15.3120 C.3    47  GLU47       0.0388
     32  CG        22.2240   13.1850   14.9530 C.3    47  GLU47       0.1160
     33  CD        22.2670   13.5250   13.4820 C.2    47  GLU47       0.3649
     34  OE1       23.2730   13.1840   12.7850 O.co2  47  GLU47      -0.2457
     35  OE2       21.3390   14.2050   12.9930 O.co2  47  GLU47      -0.2457
     36  N         21.4250    5.6750   11.3320 N.3    99  LYS99      -0.1245
     37  CA        21.5210    6.5190   12.5670 C.3    99  LYS99       0.1561
     38  C         20.4640    6.1880   13.6070 C.2    99  LYS99       0.2260
     39  O         19.3650    5.7310   13.2430 O.2    99  LYS99      -0.2867
     40  CB        21.3470    7.9980   12.1910 C.3    99  LYS99       0.0271
     41  CG        22.4410    8.6370   11.3500 C.3    99  LYS99       0.0035
     42  CD        22.2390   10.1410   11.2170 C.3    99  LYS99       0.0206
     43  CE        23.2140   10.7480   10.2110 C.3    99  LYS99       0.1093
     44  NZ        23.0600   12.2210   10.3150 N.3    99  LYS99      -0.1314
     45  N         18.5010    8.7810   16.1610 N.3   101  LEU101     -0.1245
     46  CA        18.3240   10.1370   16.6120 C.3   101  LEU101      0.1561
     47  C         17.5530   10.1920   17.9120 C.2   101  LEU101      0.2260
     48  O         16.5820    9.4340   18.0670 O.2   101  LEU101     -0.2867
     49  CB        17.5830   11.0110   15.5900 C.3   101  LEU101      0.0270
     50  CG        18.4480   11.7160   14.5190 C.3   101  LEU101      0.0019
     51  CD1       19.2050   10.7770   13.6320 C.3   101  LEU101      0.0001
     52  CD2       17.6760   12.6700   13.6120 C.3   101  LEU101      0.0001
     53  N         14.4950   20.0150   14.8750 N.3   107  LEU107     -0.1231
     54  CA        15.6590   20.2260   13.9930 C.3   107  LEU107      0.1693
     55  C         15.4230   21.3970   13.0960 C.2   107  LEU107      0.2592
     56  O         14.3320   21.9460   13.0800 O.2   107  LEU107     -0.2718
     57  CB        16.0750   18.9870   13.1410 C.3   107  LEU107      0.0284
     58  CG        16.0430   17.5540   13.6760 C.3   107  LEU107      0.0019
     59  CD1       16.8470   16.5450   12.9110 C.3   107  LEU107      0.0001
     60  CD2       16.1790   17.3430   15.1960 C.3   107  LEU107      0.0001
     61  N         16.4670   21.7780   12.3480 N.am  108  SER108     -0.1952
     62  CA        16.3440   22.7880   11.3240 C.3   108  SER108      0.1924
     63  C         15.2620   22.4250   10.3090 C.2   108  SER108      0.2314
     64  O         15.0990   21.2740    9.9880 O.2   108  SER108     -0.2863
     65  CB        17.6690   23.0520   10.5950 C.3   108  SER108      0.2116
     66  OG        18.0460   21.9230    9.7420 O.3   108  SER108     -0.2180
     67  N         14.7610   22.0300    6.9130 N.3   110  GLN110     -0.1245
     68  CA        15.8190   21.5210    6.0770 C.3   110  GLN110      0.1566
     69  C         15.3400   20.7670    4.8490 C.2   110  GLN110      0.2260
     70  O         14.2100   20.2360    4.7700 O.2   110  GLN110     -0.2867
     71  CB        16.7600   20.6670    6.8860 C.3   110  GLN110      0.0367
     72  CG        16.1970   19.3090    7.2450 C.3   110  GLN110      0.0905
     73  CD        17.0260   18.5200    8.2380 C.2   110  GLN110      0.2608
     74  OE1       17.3860   17.2990    7.9940 O.2   110  GLN110     -0.2717
     75  NE2       17.2120   19.1410    9.4120 N.am  110  GLN110     -0.0878
     76  N         17.4670   18.1980    1.6810 N.3   112  HIS112     -0.1241
     77  CA        18.7110   17.6000    1.2080 C.3   112  HIS112      0.1621
     78  C         18.7060   17.6140   -0.3370 C.2   112  HIS112      0.2264
     79  O         17.6510   17.4060   -0.9660 O.2   112  HIS112     -0.2867
     80  CB        18.8380   16.1960    1.7280 C.3   112  HIS112      0.0745
     81  CG        18.6870   16.1100    3.2270 C.ar  112  HIS112      0.0817
     82  ND1       19.5760   16.7050    4.1010 N.ar  112  HIS112     -0.2268
     83  CD2       17.7280   15.5390    3.9930 C.ar  112  HIS112      0.1154
     84  CE1       19.1750   16.4680    5.3460 C.ar  112  HIS112      0.1986
     85  NE2       18.0340   15.8020    5.3070 N.ar  112  HIS112     -0.2212
     86  N         20.5960   12.9550   -0.6880 N.3   135  LYS135     -0.1245
     87  CA        20.1960   12.3060    0.5830 C.3   135  LYS135      0.1561
     88  C         18.6820   12.1420    0.7820 C.2   135  LYS135      0.2260
     89  O         18.0810   12.6930    1.6810 O.2   135  LYS135     -0.2867
     90  CB        20.8440   12.9910    1.7590 C.3   135  LYS135      0.0271
     91  CG        20.9000   12.1340    3.0100 C.3   135  LYS135      0.0035
     92  CD        21.3960   12.8980    4.2400 C.3   135  LYS135      0.0206
     93  CE        20.2650   13.1950    5.1830 C.3   135  LYS135      0.1093
     94  NZ        20.8760   13.5830    6.5110 N.3   135  LYS135     -0.1314
     95  N         15.9760    9.9770    2.5740 N.3   137  GLU137     -0.1245
     96  CA        16.0660    9.3330    3.8900 C.3   137  GLU137      0.1567
     97  C         14.7660    8.6750    4.3360 C.2   137  GLU137      0.2260
     98  O         13.6840    8.9050    3.7620 O.2   137  GLU137     -0.2867
     99  CB        16.5200   10.3580    4.8960 C.3   137  GLU137      0.0388
    100  CG        15.6110   11.5320    5.1020 C.3   137  GLU137      0.1160
    101  CD        16.0440   12.4700    6.2400 C.2   137  GLU137      0.3649
    102  OE1       15.7460   12.1470    7.4250 O.co2 137  GLU137     -0.2457
    103  OE2       16.5710   13.5840    5.9760 O.co2 137  GLU137     -0.2457
    104  N         11.5190   19.4520    5.4060 N.3   284  HIS284     -0.1241
    105  CA        11.1710   18.7240    6.6290 C.3   284  HIS284      0.1621
    106  C         11.8940   19.2400    7.8660 C.2   284  HIS284      0.2264
    107  O         12.8810   19.9900    7.7950 O.2   284  HIS284     -0.2867
    108  CB        11.4360   17.1970    6.5300 C.3   284  HIS284      0.0745
    109  CG        12.8600   16.8120    6.2750 C.ar  284  HIS284      0.0817
    110  ND1       13.4570   16.9690    5.0350 N.ar  284  HIS284     -0.2268
    111  CD2       13.7940   16.2120    7.0720 C.ar  284  HIS284      0.1154
    112  CE1       14.6980   16.4930    5.0930 C.ar  284  HIS284      0.1986
    113  NE2       14.9410   16.0620    6.3180 N.ar  284  HIS284     -0.2212
    114  N         12.2340   17.3980   11.9150 N.3   286  TYR286     -0.1241
    115  CA        11.7780   16.4370   12.9640 C.3   286  TYR286      0.1605
    116  C         11.6340   17.1940   14.2650 C.2   286  TYR286      0.2264
    117  O         12.4780   18.0580   14.5670 O.2   286  TYR286     -0.2867
    118  CB        12.7540   15.2370   13.0550 C.3   286  TYR286      0.0534
    119  CG        12.8370   14.3820   11.7490 C.ar  286  TYR286     -0.0201
    120  CD1       11.8920   14.5590   10.7090 C.ar  286  TYR286     -0.0009
    121  CD2       13.8580   13.4510   11.5110 C.ar  286  TYR286     -0.0009
    122  CE1       11.9600   13.8350    9.5120 C.ar  286  TYR286      0.0417
    123  CE2       13.9310   12.7400   10.2910 C.ar  286  TYR286      0.0417
    124  CZ        12.9610   12.9310    9.3090 C.ar  286  TYR286      0.1957
    125  OH        12.9280   12.2670    8.0790 O.3   286  TYR286     -0.2866
    126  N         16.9690    6.2300   11.7460 N.3   293  GLU293     -0.1245
    127  CA        16.9880    6.8820   10.4710 C.3   293  GLU293      0.1567
    128  C         17.9440    6.1160    9.5570 C.2   293  GLU293      0.2260
    129  O         18.9860    5.5740    9.9860 O.2   293  GLU293     -0.2867
    130  CB        17.3860    8.3170   10.6990 C.3   293  GLU293      0.0388
    131  CG        16.9800    9.3920    9.7260 C.3   293  GLU293      0.1160
    132  CD        17.5380   10.7520   10.1830 C.2   293  GLU293      0.3649
    133  OE1       18.7670   10.8910   10.3670 O.co2 293  GLU293     -0.2457
    134  OE2       16.7520   11.6800   10.4290 O.co2 293  GLU293     -0.2457
    135  N         19.6620    6.6370    5.4370 N.3   295  MET295     -0.1245
    136  CA        19.7240    7.5670    4.3520 C.3   295  MET295      0.1570
    137  C         20.7770    7.1410    3.3730 C.2   295  MET295      0.2261
    138  O         21.6420    6.3380    3.7280 O.2   295  MET295     -0.2867
    139  CB        20.0790    8.9480    4.8960 C.3   295  MET295      0.0387
    140  CG        21.3940    9.0410    5.5970 C.3   295  MET295      0.0595
    141  SD        21.3350   10.0050    7.1380 S.3   295  MET295     -0.1393
    142  CE        20.1990    9.0070    8.0940 C.3   295  MET295      0.0692
    143  N         26.1130   13.9470    4.1610 N.3   299  ASP299     -0.1239
    144  CA        25.7370   14.8810    5.1800 C.3   299  ASP299      0.1674
    145  C         25.4590   16.2680    4.5350 C.2   299  ASP299      0.2266
    146  O         25.7170   17.2950    5.1340 O.2   299  ASP299     -0.2867
    147  CB        26.8300   14.9760    6.2590 C.3   299  ASP299      0.1410
    148  CG        26.2740   15.5570    7.5850 C.2   299  ASP299      0.3668
    149  OD1       25.0830   15.3850    7.8540 O.co2 299  ASP299     -0.2456
    150  OD2       27.0470   16.1750    8.3160 O.co2 299  ASP299     -0.2456
    151  N         23.0130   19.1660    3.6810 N.3   301  VAL301     -0.1245
    152  CA        21.7490   19.6980    4.1430 C.3   301  VAL301      0.1561
    153  C         21.6810   21.1940    3.9480 C.2   301  VAL301      0.2260
    154  O         22.6010   21.8990    4.2300 O.2   301  VAL301     -0.2867
    155  CB        21.4650   19.2780    5.6260 C.3   301  VAL301      0.0252
    156  CG1       22.5280   19.7850    6.5720 C.3   301  VAL301      0.0019
    157  CG2       20.0760   19.7530    6.0790 C.3   301  VAL301      0.0019
    158  N         19.6280   24.3670    5.2200 N.3   303  ARG303     -0.1245
    159  CA        18.7950   24.6930    6.3890 C.3   303  ARG303      0.1563
    160  C         18.2490   26.1000    6.1840 C.2   303  ARG303      0.2260
    161  O         18.9200   26.9210    5.5910 O.2   303  ARG303     -0.2867
    162  CB        19.6400   24.7070    7.6540 C.3   303  ARG303      0.0307
    163  CG        20.4570   23.4540    7.8430 C.3   303  ARG303      0.0489
    164  CD        21.1730   23.4870    9.1840 C.3   303  ARG303      0.2205
    165  NE        22.1500   22.4410    9.2920 N.pl3 303  ARG303     -0.0865
    166  CZ        23.3830   22.4480    8.8000 C.cat 303  ARG303      0.5346
    167  NH1       23.8800   23.4710    8.1050 N.pl3 303  ARG303      0.1354
    168  NH2       24.1510   21.3770    9.0070 N.pl3 303  ARG303      0.1354
    169  N         17.4050   26.9170   13.7640 N.3   307  THR307     -0.1218
    170  CA        18.7740   26.4150   13.9800 C.3   307  THR307      0.1862
    171  C         19.7770   27.5750   14.1500 C.2   307  THR307      0.2287
    172  O         19.6840   28.5610   13.4800 O.2   307  THR307     -0.2866
    173  CB        19.2570   25.4990   12.7840 C.3   307  THR307      0.1770
    174  OG1       20.5690   24.9760   13.0180 O.3   307  THR307     -0.2211
    175  CG2       19.3380   26.2980   11.4630 C.3   307  THR307      0.0375
    176  N         22.8450   26.7490   13.2170 N.3   309  LYS309     -0.1245
    177  CA        23.8290   26.2990   12.2170 C.3   309  LYS309      0.1561
    178  C         23.6660   27.1250   10.9470 C.2   309  LYS309      0.2260
    179  O         22.7810   27.9960   10.8670 O.2   309  LYS309     -0.2867
    180  CB        23.6760   24.7940   11.9090 C.3   309  LYS309      0.0271
    181  CG        23.7900   23.8470   13.1190 C.3   309  LYS309      0.0035
    182  CD        23.3500   22.4420   12.7040 C.3   309  LYS309      0.0206
    183  CE        23.9140   21.3610   13.6000 C.3   309  LYS309      0.1093
    184  NZ        23.6920   20.0010   13.0760 N.3   309  LYS309     -0.1314
@<TRIPOS>BOND
     1    79    78    2
     2    86    87    1
     3    78    77    1
     4    87    88    1
     5    87    90    1
     6    88    89    2
     7    77    76    1
     8    77    80    1
     9    80    81    1
    10    90    91    1
    11    95    96    1
    12    91    92    1
    13    81    83   ar
    14    81    82   ar
    15   137   138    2
    16   137   136    1
    17   151   152    1
    18    98    97    2
    19    96    97    1
    20    96    99    1
    21   153   152    1
    22   153   154    2
    23    83    85   ar
    24    82    84   ar
    25   152   155    1
    26   143   144    1
    27    92    93    1
    28   136   139    1
    29   136   135    1
    30   145   146    2
    31   145   144    1
    32    70    69    2
    33    69    68    1
    34   139   140    1
    35    99   100    1
    36   110   112   ar
    37   110   109   ar
    38   112   113   ar
    39   100   101    1
    40   144   147    1
    41    93    94    1
    42   158   159    1
    43    85    84   ar
    44   104   105    1
    45   161   160    2
    46   140   141    1
    47   155   157    1
    48   155   156    1
    49   103   101   ar
    50    68    71    1
    51    68    67    1
    52   160   159    1
    53   101   102   ar
    54   147   148    1
    55   109   108    1
    56   109   111   ar
    57   113   111   ar
    58   159   162    1
    59   108   105    1
    60   105   106    1
    61    71    72    1
    62   141   142    1
    63    72    73    1
    64   148   149   ar
    65   148   150   ar
    66   162   163    1
    67   107   106    2
    68   163   164    1
    69    74    73    2
    70   125   124    1
    71   167   166    1
    72    73    75   am
    73   166   168    1
    74   166   165    2
    75   164   165    1
    76   124   122   ar
    77   124   123   ar
    78   122   120   ar
    79   128   129    2
    80   128   127    1
    81   131   132    1
    82   131   130    1
    83    66    65    1
    84    64    63    2
    85   132   133   ar
    86   132   134   ar
    87    43    44    1
    88    43    42    1
    89   123   121   ar
    90    63    62    1
    91   127   130    1
    92   127   126    1
    93    65    62    1
    94   120   119   ar
    95   179   178    2
    96   178   177    1
    97    42    41    1
    98    62    61    1
    99    36    37    1
   100    41    40    1
   101   175   173    1
   102   121   119   ar
   103   119   118    1
   104   180   177    1
   105   180   181    1
   106   114   115    1
   107    40    37    1
   108   177   176    1
   109    61    55   am
   110    12    11    1
   111    37    38    1
   112   182   181    1
   113   182   183    1
   114   173   174    1
   115   173   170    1
   116    34    33   ar
   117    59    58    1
   118   115   118    1
   119   115   116    1
   120    35    33   ar
   121   184   183    1
   122    56    55    2
   123    55    54    1
   124    57    58    1
   125    57    54    1
   126    39    38    2
   127   172   171    2
   128    33    32    1
   129    11    10   ar
   130    11     9   ar
   131    52    50    1
   132    51    50    1
   133    58    60    1
   134    10     8   ar
   135   169   170    1
   136   170   171    1
   137    54    53    1
   138   116   117    2
   139     9     7   ar
   140    50    49    1
   141     8     6   ar
   142    32    31    1
   143    24    22   ar
   144    24    26   ar
   145    31    28    1
   146    21    22   ar
   147    21    19   ar
   148     7     6   ar
   149    49    46    1
   150     6     5    1
   151    22    20   ar
   152    26    25   ar
   153    45    46    1
   154    19    18   ar
   155    46    47    1
   156    28    29    1
   157    28    27    1
   158    29    30    2
   159     5     2    1
   160    20    18   ar
   161    20    23   ar
   162    25    23   ar
   163    18    17    1
   164    47    48    2
   165     2     1    1
   166     2     3    1
   167    17    14    1
   168     3     4    2
   169    13    14    1
   170    14    15    1
   171    15    16    2
