@<TRIPOS>MOLECULE
tmp/5nwbA00.pdb
 151 153 0 0 0
SMALL
GASTEIGER

@<TRIPOS>ATOM
      1  N          9.5150   41.7790   17.4450 N.3    80  HIS80      -0.1226
      2  CA         9.1230   41.5390   16.0590 C.3    80  HIS80       0.1752
      3  C         10.3590   41.3220   15.1980 C.2    80  HIS80       0.2597
      4  O         11.2530   42.1600   15.1920 O.2    80  HIS80      -0.2718
      5  CB         8.3350   42.7280   15.5130 C.3    80  HIS80       0.0759
      6  CG         7.7780   42.5130   14.1360 C.ar   80  HIS80       0.0818
      7  ND1        6.6370   41.7710   13.8980 N.ar   80  HIS80      -0.2268
      8  CD2        8.2030   42.9450   12.9220 C.ar   80  HIS80       0.1154
      9  CE1        6.3870   41.7560   12.6030 C.ar   80  HIS80       0.1986
     10  NE2        7.3160   42.4650   11.9880 N.ar   80  HIS80      -0.2212
     11  N         10.3880   40.2070   14.4820 N.am   81  GLY81      -0.1942
     12  CA        11.4430   39.9010   13.5250 C.3    81  GLY81       0.2014
     13  C         10.8490   39.8970   12.1360 C.2    81  GLY81       0.2640
     14  O          9.7530   39.3870   11.9300 O.2    81  GLY81      -0.2714
     15  N         11.5600   40.4900   11.1810 N.am   82  SER82      -0.1936
     16  CA        11.0440   40.6010    9.8280 C.3    82  SER82       0.2040
     17  C         12.1780   40.9310    8.8760 C.2    82  SER82       0.2485
     18  O         13.0960   41.6370    9.2640 O.2    82  SER82      -0.2729
     19  CB        10.0120   41.7120    9.7690 C.3    82  SER82       0.2129
     20  OG         9.6060   41.9910    8.4390 O.3    82  SER82      -0.2179
     21  N         12.1040   40.4530    7.6200 N.am   83  PRO83      -0.2715
     22  CA        13.0590   40.9410    6.6230 C.3    83  PRO83       0.1536
     23  C         12.9030   42.4280    6.3170 C.2    83  PRO83       0.2598
     24  O         13.8030   43.0170    5.7180 O.2    83  PRO83      -0.2715
     25  CB        12.7340   40.1220    5.3660 C.3    83  PRO83       0.0310
     26  CG        11.8840   39.0060    5.8260 C.3    83  PRO83       0.0237
     27  CD        11.1780   39.4610    7.0590 C.3    83  PRO83       0.0939
     28  N         11.7800   43.0280    6.7070 N.am   84  PHE84      -0.1974
     29  CA        11.5110   44.4270    6.3860 C.3    84  PHE84       0.1639
     30  C         11.6870   45.3870    7.5610 C.2    84  PHE84       0.2290
     31  O         11.1020   46.4650    7.5450 O.2    84  PHE84      -0.2864
     32  CB        10.1070   44.5480    5.7850 C.3    84  PHE84       0.0560
     33  CG         9.8520   43.5830    4.6630 C.ar   84  PHE84      -0.0200
     34  CD1       10.7370   43.4990    3.5860 C.ar   84  PHE84      -0.0042
     35  CD2        8.7470   42.7450    4.6830 C.ar   84  PHE84      -0.0042
     36  CE1       10.5150   42.5990    2.5490 C.ar   84  PHE84      -0.0003
     37  CE2        8.5170   41.8470    3.6480 C.ar   84  PHE84      -0.0003
     38  CZ         9.4020   41.7720    2.5830 C.ar   84  PHE84      -0.0000
     39  N          1.6150   45.5670    4.5150 N.3    96  ARG96      -0.1231
     40  CA         2.7780   44.9080    3.8960 C.3    96  ARG96       0.1694
     41  C          3.6470   44.1180    4.8840 C.2    96  ARG96       0.2592
     42  O          4.4620   43.2970    4.4730 O.2    96  ARG96      -0.2718
     43  CB         3.6790   45.9270    3.1960 C.3    96  ARG96       0.0321
     44  CG         3.0460   46.6360    2.0080 C.3    96  ARG96       0.0489
     45  CD         3.9300   47.7930    1.5470 C.3    96  ARG96       0.2205
     46  NE         3.8680   48.9530    2.4480 N.pl3  96  ARG96      -0.0865
     47  CZ         4.6020   50.0660    2.3260 C.cat  96  ARG96       0.5346
     48  NH1        4.4590   51.0530    3.2080 N.pl3  96  ARG96       0.1354
     49  NH2        5.4850   50.2110    1.3380 N.pl3  96  ARG96       0.1354
     50  N          3.4840   44.3840    6.1810 N.am   97  HIS97      -0.1962
     51  CA         4.2630   43.7110    7.2220 C.3    97  HIS97       0.1787
     52  C          3.5160   42.5690    7.9130 C.2    97  HIS97       0.2620
     53  O          4.0400   41.9670    8.8630 O.2    97  HIS97      -0.2715
     54  CB         4.7420   44.7810    8.2080 C.3    97  HIS97       0.0785
     55  CG         5.5480   45.8390    7.5290 C.ar   97  HIS97       0.0821
     56  ND1        5.1690   47.1600    7.4860 N.ar   97  HIS97      -0.2267
     57  CD2        6.6520   45.7450    6.7570 C.ar   97  HIS97       0.1154
     58  CE1        6.0370   47.8460    6.7660 C.ar   97  HIS97       0.1986
     59  NE2        6.9390   47.0080    6.3040 N.ar   97  HIS97      -0.2212
     60  N          2.3220   42.2510    7.4040 N.am   98  ALA98      -0.1963
     61  CA         1.4800   41.1960    7.9530 C.3    98  ALA98       0.1728
     62  C          1.9490   39.8320    7.4930 C.2    98  ALA98       0.2616
     63  O          2.5130   39.6870    6.4010 O.2    98  ALA98      -0.2715
     64  CB         0.0250   41.4070    7.5540 C.3    98  ALA98       0.0334
     65  N          1.7350   38.8460    8.3570 N.am   99  TYR99      -0.1960
     66  CA         1.9600   37.4500    8.0410 C.3    99  TYR99       0.1771
     67  C          0.6310   36.8970    7.5260 C.2    99  TYR99       0.2619
     68  O         -0.2570   36.5290    8.3050 O.2    99  TYR99      -0.2715
     69  CB         2.4430   36.7180    9.2870 C.3    99  TYR99       0.0574
     70  CG         2.7620   35.2450    9.1400 C.ar   99  TYR99      -0.0198
     71  CD1        2.7900   34.5910    7.8860 C.ar   99  TYR99      -0.0009
     72  CD2        3.0700   34.4860   10.2690 C.ar   99  TYR99      -0.0009
     73  CE1        3.0810   33.2440    7.7910 C.ar   99  TYR99       0.0417
     74  CE2        3.3760   33.1440   10.1680 C.ar   99  TYR99       0.0417
     75  CZ         3.3780   32.5220    8.9320 C.ar   99  TYR99       0.1957
     76  OH         3.6650   31.1780    8.8530 O.3    99  TYR99      -0.2866
     77  N          0.5080   36.8210    6.1990 N.am  100  ILE100     -0.1977
     78  CA        -0.7610   36.4530    5.5750 C.3   100  ILE100      0.1596
     79  C         -1.1790   35.0480    6.0410 C.2   100  ILE100      0.2287
     80  O         -2.3310   34.8440    6.4230 O.2   100  ILE100     -0.2864
     81  CB        -0.7310   36.5580    4.0130 C.3   100  ILE100      0.0276
     82  CG1       -0.2920   37.9600    3.5270 C.3   100  ILE100      0.0022
     83  CG2       -2.0870   36.1880    3.4210 C.3   100  ILE100      0.0022
     84  CD1       -0.9800   39.1290    4.1970 C.3   100  ILE100      0.0001
     85  N          2.3680   40.0830   13.5550 N.3   109  TYR109     -0.1227
     86  CA         2.6300   39.1650   14.6650 C.3   109  TYR109      0.1736
     87  C          3.7980   39.6540   15.5370 C.2   109  TYR109      0.2595
     88  O          4.8150   40.1360   15.0180 O.2   109  TYR109     -0.2718
     89  CB         2.9630   37.7640   14.1310 C.3   109  TYR109      0.0548
     90  CG         1.7510   36.9970   13.6650 C.ar  109  TYR109     -0.0200
     91  CD1        1.0040   37.4420   12.5800 C.ar  109  TYR109     -0.0009
     92  CD2        1.3240   35.8500   14.3360 C.ar  109  TYR109     -0.0009
     93  CE1       -0.1270   36.7700   12.1710 C.ar  109  TYR109      0.0417
     94  CE2        0.1940   35.1690   13.9110 C.ar  109  TYR109      0.0417
     95  CZ        -0.5300   35.6440   12.8400 C.ar  109  TYR109      0.1957
     96  OH        -1.6810   34.9700   12.4400 O.3   109  TYR109     -0.2866
     97  N          3.6400   39.4760   16.8440 N.am  110  PHE110     -0.1962
     98  CA         4.6430   39.8290   17.8530 C.3   110  PHE110      0.1771
     99  C          4.8120   38.7010   18.8590 C.2   110  PHE110      0.2619
    100  O          3.8850   37.9290   19.0780 O.2   110  PHE110     -0.2715
    101  CB         4.2320   41.0940   18.5850 C.3   110  PHE110      0.0574
    102  CG         4.1100   42.2930   17.6990 C.ar  110  PHE110     -0.0200
    103  CD1        2.9440   42.5350   16.9820 C.ar  110  PHE110     -0.0042
    104  CD2        5.1740   43.1790   17.5520 C.ar  110  PHE110     -0.0042
    105  CE1        2.8440   43.6280   16.1260 C.ar  110  PHE110     -0.0003
    106  CE2        5.0600   44.2970   16.7210 C.ar  110  PHE110     -0.0003
    107  CZ         3.9030   44.5160   15.9980 C.ar  110  PHE110     -0.0000
    108  N          5.9890   38.5960   19.4700 N.am  111  ALA111     -0.1977
    109  CA         6.2510   37.5200   20.4260 C.3   111  ALA111      0.1597
    110  C          6.7900   38.0530   21.7460 C.2   111  ALA111      0.2287
    111  O          7.5920   38.9960   21.7570 O.2   111  ALA111     -0.2864
    112  CB         7.2520   36.5400   19.8390 C.3   111  ALA111      0.0319
    113  N         11.4940   33.4470   19.3840 N.3   116  LYS116     -0.1231
    114  CA        10.4090   33.2380   18.4230 C.3   116  LYS116      0.1693
    115  C         10.5190   34.2570   17.2820 C.2   116  LYS116      0.2592
    116  O         10.4870   33.8740   16.1240 O.2   116  LYS116     -0.2718
    117  CB         9.0420   33.3100   19.1190 C.3   116  LYS116      0.0285
    118  CG         7.8330   33.3260   18.2010 C.3   116  LYS116      0.0035
    119  CD         7.7860   32.2150   17.1670 C.3   116  LYS116      0.0206
    120  CE         7.7160   30.8330   17.7360 C.3   116  LYS116      0.1093
    121  NZ         7.3130   29.8500   16.6610 N.3   116  LYS116     -0.1314
    122  N         10.6400   35.5400   17.6070 N.am  117  SER117     -0.1952
    123  CA        10.8330   36.5790   16.5720 C.3   117  SER117      0.1924
    124  C         12.1060   36.3660   15.7560 C.2   117  SER117      0.2314
    125  O         12.1350   36.6470   14.5440 O.2   117  SER117     -0.2863
    126  CB        10.8190   37.9750   17.1930 C.3   117  SER117      0.2116
    127  OG         9.5020   38.3050   17.6190 O.3   117  SER117     -0.2180
    128  N         11.9800   34.6590   12.3460 N.3   120  TYR120     -0.1241
    129  CA        11.4040   35.3730   11.2160 C.3   120  TYR120      0.1605
    130  C         12.3170   36.4400   10.6160 C.2   120  TYR120      0.2264
    131  O         11.9340   37.1010    9.6450 O.2   120  TYR120     -0.2867
    132  CB        10.0480   35.9720   11.6260 C.3   120  TYR120      0.0534
    133  CG         9.0250   34.8930   11.8760 C.ar  120  TYR120     -0.0201
    134  CD1        8.2550   34.3760   10.8360 C.ar  120  TYR120     -0.0009
    135  CD2        8.8530   34.3530   13.1420 C.ar  120  TYR120     -0.0009
    136  CE1        7.3280   33.3680   11.0590 C.ar  120  TYR120      0.0417
    137  CE2        7.9370   33.3440   13.3690 C.ar  120  TYR120      0.0417
    138  CZ         7.1810   32.8550   12.3300 C.ar  120  TYR120      0.1957
    139  OH         6.2750   31.8370   12.5670 O.3   120  TYR120     -0.2866
    140  N         12.8850   35.5840    7.1220 N.3   123  GLY123     -0.1210
    141  CA        11.6650   35.2350    6.4230 C.3   123  GLY123      0.1956
    142  C         10.8840   34.1910    7.1890 C.2   123  GLY123      0.2611
    143  O         11.3230   33.7220    8.2310 O.2   123  GLY123     -0.2717
    144  N          9.7380   33.8140    6.6430 N.am  124  ILE124     -0.1979
    145  CA         8.9070   32.7550    7.2400 C.3   124  ILE124      0.1595
    146  C          9.7210   31.4620    7.2640 C.2   124  ILE124      0.2287
    147  O         10.3540   31.1040    6.2630 O.2   124  ILE124     -0.2864
    148  CB         7.6010   32.5540    6.4440 C.3   124  ILE124      0.0276
    149  CG1        6.7080   33.7930    6.5550 C.3   124  ILE124      0.0022
    150  CG2        6.8350   31.3240    6.9380 C.3   124  ILE124      0.0022
    151  CD1        5.7210   33.9430    5.4120 C.3   124  ILE124      0.0001
@<TRIPOS>BOND
     1    49    47    1
     2    45    44    1
     3    45    46    1
     4    44    43    1
     5    47    46    2
     6    47    48    1
     7    36    38   ar
     8    36    34   ar
     9    38    37   ar
    10    43    40    1
    11    83    81    1
    12    82    81    1
    13    82    84    1
    14    34    33   ar
    15    37    35   ar
    16    40    39    1
    17    40    41    1
    18    81    78    1
    19    42    41    2
    20    33    35   ar
    21    33    32    1
    22    41    50   am
    23    25    26    1
    24    25    22    1
    25   151   149    1
    26    78    79    1
    27    78    77    1
    28    24    23    2
    29    32    29    1
    30    26    27    1
    31    79    80    2
    32    50    51    1
    33    77    67   am
    34   147   146    2
    35    59    57   ar
    36    59    58   ar
    37    23    22    1
    38    23    28   am
    39    29    28    1
    40    29    30    1
    41    63    62    2
    42   141   140    1
    43   141   142    1
    44   148   149    1
    45   148   150    1
    46   148   145    1
    47    22    21    1
    48   144   142   am
    49   144   145    1
    50    57    55   ar
    51    58    56   ar
    52    27    21    1
    53   142   143    2
    54    51    52    1
    55    51    54    1
    56   145   146    1
    57    60    52   am
    58    60    61    1
    59    56    55   ar
    60    62    61    1
    61    62    65   am
    62    67    66    1
    63    67    68    2
    64    55    54    1
    65    31    30    2
    66    64    61    1
    67    21    17   am
    68    73    71   ar
    69    73    75   ar
    70    71    70   ar
    71    52    53    2
    72    66    65    1
    73    66    69    1
    74    20    19    1
    75    76    75    1
    76    17    18    2
    77    17    16    1
    78    75    74   ar
    79    70    69    1
    80    70    72   ar
    81   131   130    2
    82    19    16    1
    83    16    15    1
    84    74    72   ar
    85   130   129    1
    86   134   136   ar
    87   134   133   ar
    88   136   138   ar
    89    15    13   am
    90   129   132    1
    91   129   128    1
    92   132   133    1
    93   133   135   ar
    94    14    13    2
    95    10     9   ar
    96    10     8   ar
    97    13    12    1
    98    93    91   ar
    99    93    95   ar
   100   138   139    1
   101   138   137   ar
   102    96    95    1
   103    91    90   ar
   104     9     7   ar
   105    95    94   ar
   106     8     6   ar
   107   135   137   ar
   108    12    11    1
   109    85    86    1
   110    90    89    1
   111    90    92   ar
   112     7     6   ar
   113    94    92   ar
   114    89    86    1
   115     6     5    1
   116    11     3   am
   117   125   124    2
   118    86    87    1
   119    88    87    2
   120     4     3    2
   121     3     2    1
   122     5     2    1
   123    87    97   am
   124   124   123    1
   125   107   105   ar
   126   107   106   ar
   127     2     1    1
   128   116   115    2
   129   105   103   ar
   130   123   126    1
   131   123   122    1
   132   121   120    1
   133   106   104   ar
   134    97    98    1
   135   103   102   ar
   136   119   120    1
   137   119   118    1
   138   126   127    1
   139   115   122   am
   140   115   114    1
   141   104   102   ar
   142   102   101    1
   143    98   101    1
   144    98    99    1
   145   118   117    1
   146   114   117    1
   147   114   113    1
   148    99   100    2
   149    99   108   am
   150   108   109    1
   151   112   109    1
   152   109   110    1
   153   110   111    2
