@<TRIPOS>MOLECULE
tmp/5nwcC00.pdb
 132 134 0 0 0
SMALL
GASTEIGER

@<TRIPOS>ATOM
      1  N         -4.9100    9.4760   11.9490 N.3    80  HIS80      -0.1226
      2  CA        -5.1200    9.0580   13.3310 C.3    80  HIS80       0.1752
      3  C         -5.4450   10.2880   14.1600 C.2    80  HIS80       0.2597
      4  O         -4.6650   11.2600   14.1600 O.2    80  HIS80      -0.2718
      5  CB        -3.8850    8.3570   13.8950 C.3    80  HIS80       0.0759
      6  CG        -4.0750    7.8010   15.2690 C.ar   80  HIS80       0.0818
      7  ND1       -4.7540    6.6250   15.5160 N.ar   80  HIS80      -0.2268
      8  CD2       -3.6800    8.2650   16.4800 C.ar   80  HIS80       0.1154
      9  CE1       -4.7630    6.3880   16.8160 C.ar   80  HIS80       0.1986
     10  NE2       -4.1210    7.3690   17.4230 N.ar   80  HIS80      -0.2212
     11  N         -6.5690   10.2370   14.8620 N.am   81  GLY81      -0.1942
     12  CA        -6.9830   11.2920   15.7800 C.3    81  GLY81       0.2014
     13  C         -6.9490   10.7310   17.1830 C.2    81  GLY81       0.2640
     14  O         -7.3560    9.5910   17.4030 O.2    81  GLY81      -0.2714
     15  N         -6.4570   11.5170   18.1360 N.am   82  SER82      -0.1936
     16  CA        -6.2460   11.0110   19.4890 C.3    82  SER82       0.2040
     17  C         -5.9950   12.1410   20.4730 C.2    82  SER82       0.2485
     18  O         -5.2860   13.0890   20.1440 O.2    82  SER82      -0.2729
     19  CB        -5.0320   10.0870   19.4920 C.3    82  SER82       0.2129
     20  OG        -4.6500    9.7000   20.8020 O.3    82  SER82      -0.2179
     21  N         -6.5170   12.0130   21.7030 N.am   83  PRO83      -0.2715
     22  CA        -6.0950   12.9690   22.7350 C.3    83  PRO83       0.1536
     23  C         -4.6390   12.7820   23.1860 C.2    83  PRO83       0.2598
     24  O         -4.1370   13.6200   23.9400 O.2    83  PRO83      -0.2715
     25  CB        -7.0630   12.6970   23.8950 C.3    83  PRO83       0.0310
     26  CG        -7.5910   11.3360   23.6730 C.3    83  PRO83       0.0237
     27  CD        -7.4790   11.0170   22.2110 C.3    83  PRO83       0.0939
     28  N         -3.9730   11.7160   22.7350 N.am   84  PHE84      -0.1974
     29  CA        -2.5850   11.4190   23.1100 C.3    84  PHE84       0.1639
     30  C         -1.5670   11.8520   22.0400 C.2    84  PHE84       0.2290
     31  O         -0.4210   11.4090   22.0650 O.2    84  PHE84      -0.2864
     32  CB        -2.4480    9.9140   23.3940 C.3    84  PHE84       0.0560
     33  CG        -3.5340    9.3680   24.2910 C.ar   84  PHE84      -0.0200
     34  CD1       -3.7600    9.9320   25.5430 C.ar   84  PHE84      -0.0042
     35  CD2       -4.3450    8.3140   23.8780 C.ar   84  PHE84      -0.0042
     36  CE1       -4.7640    9.4450   26.3730 C.ar   84  PHE84      -0.0003
     37  CE2       -5.3450    7.8210   24.7040 C.ar   84  PHE84      -0.0003
     38  CZ        -5.5580    8.3870   25.9510 C.ar   84  PHE84      -0.0000
     39  N         -2.0860    3.8860   23.5280 N.3    97  HIS97      -0.1226
     40  CA        -2.7620    4.5850   22.4300 C.3    97  HIS97       0.1752
     41  C         -3.7700    3.7030   21.6780 C.2    97  HIS97       0.2596
     42  O         -4.3880    4.1460   20.6980 O.2    97  HIS97      -0.2718
     43  CB        -1.6820    5.1780   21.5180 C.3    97  HIS97       0.0759
     44  CG        -0.6790    5.9930   22.2740 C.ar   97  HIS97       0.0818
     45  ND1        0.6800    5.8540   22.1130 N.ar   97  HIS97      -0.2268
     46  CD2       -0.8460    6.9060   23.2590 C.ar   97  HIS97       0.1154
     47  CE1        1.3090    6.6700   22.9370 C.ar   97  HIS97       0.1986
     48  NE2        0.4060    7.3140   23.6500 N.ar   97  HIS97      -0.2212
     49  N         -3.9750    2.4800   22.1780 N.am   98  ALA98      -0.1966
     50  CA        -4.9610    1.5500   21.6210 C.3    98  ALA98       0.1728
     51  C         -6.3890    1.8750   22.0490 C.2    98  ALA98       0.2616
     52  O         -6.6150    2.5530   23.0540 O.2    98  ALA98      -0.2715
     53  CB        -4.6260    0.1230   22.0240 C.3    98  ALA98       0.0334
     54  N         -7.3340    1.3690   21.2570 N.am   99  TYR99      -0.1974
     55  CA        -8.7680    1.4800   21.4890 C.3    99  TYR99       0.1639
     56  C         -9.2420    0.1440   22.0110 C.2    99  TYR99       0.2290
     57  O         -9.4950   -0.7880   21.2350 O.2    99  TYR99      -0.2864
     58  CB        -9.4650    1.8240   20.1670 C.3    99  TYR99       0.0560
     59  CG       -10.9670    2.0220   20.1870 C.ar   99  TYR99      -0.0198
     60  CD1      -11.6800    2.2490   21.3720 C.ar   99  TYR99      -0.0009
     61  CD2      -11.6750    2.0620   18.9870 C.ar   99  TYR99      -0.0009
     62  CE1      -13.0480    2.4740   21.3510 C.ar   99  TYR99       0.0417
     63  CE2      -13.0360    2.2990   18.9600 C.ar   99  TYR99       0.0417
     64  CZ       -13.7220    2.4910   20.1460 C.ar   99  TYR99       0.1957
     65  OH       -15.0740    2.7130   20.1020 O.3    99  TYR99      -0.2866
     66  N         -6.1070    2.2180   15.9220 N.3   109  TYR109     -0.1227
     67  CA        -7.0300    2.3930   14.8030 C.3   109  TYR109      0.1736
     68  C         -6.6400    3.5880   13.9420 C.2   109  TYR109      0.2595
     69  O         -6.2970    4.6470   14.4690 O.2   109  TYR109     -0.2718
     70  CB        -8.4530    2.5890   15.3220 C.3   109  TYR109      0.0548
     71  CG        -9.1180    1.3150   15.7680 C.ar  109  TYR109     -0.0200
     72  CD1      -10.2670    0.8570   15.1340 C.ar  109  TYR109     -0.0009
     73  CD2       -8.5960    0.5650   16.8180 C.ar  109  TYR109     -0.0009
     74  CE1      -10.8870   -0.3160   15.5500 C.ar  109  TYR109      0.0417
     75  CE2       -9.2100   -0.6080   17.2380 C.ar  109  TYR109      0.0417
     76  CZ       -10.3510   -1.0350   16.5980 C.ar  109  TYR109      0.1957
     77  OH       -10.9410   -2.2140   17.0030 O.3   109  TYR109     -0.2866
     78  N         -6.7260    3.4050   12.6260 N.am  110  PHE110     -0.1962
     79  CA        -6.4090    4.4320   11.6350 C.3   110  PHE110      0.1771
     80  C         -7.5350    4.4890   10.6220 C.2   110  PHE110      0.2619
     81  O         -8.2720    3.5100   10.4540 O.2   110  PHE110     -0.2715
     82  CB        -5.0990    4.1120   10.9320 C.3   110  PHE110      0.0574
     83  CG        -3.9260    4.1090   11.8460 C.ar  110  PHE110     -0.0200
     84  CD1       -3.1510    5.2480   11.9950 C.ar  110  PHE110     -0.0042
     85  CD2       -3.6070    2.9800   12.5910 C.ar  110  PHE110     -0.0042
     86  CE1       -2.0680    5.2590   12.8550 C.ar  110  PHE110     -0.0003
     87  CE2       -2.5330    2.9850   13.4600 C.ar  110  PHE110     -0.0003
     88  CZ        -1.7570    4.1250   13.5870 C.ar  110  PHE110     -0.0000
     89  N         -7.6820    5.6280    9.9490 N.am  111  ALA111     -0.1977
     90  CA        -8.7770    5.8270    9.0000 C.3   111  ALA111      0.1597
     91  C         -8.3030    6.3920    7.6840 C.2   111  ALA111      0.2287
     92  O         -7.4370    7.2610    7.6500 O.2   111  ALA111     -0.2864
     93  CB        -9.8200    6.7630    9.5790 C.3   111  ALA111      0.0319
     94  N        -13.3390   10.7270    9.9010 N.3   116  LYS116     -0.1231
     95  CA       -13.4810    9.6430   10.8760 C.3   116  LYS116      0.1693
     96  C        -12.4830    9.8570   12.0170 C.2   116  LYS116      0.2592
     97  O        -12.8850    9.8750   13.1650 O.2   116  LYS116     -0.2718
     98  CB       -13.3140    8.2720   10.2090 C.3   116  LYS116      0.0285
     99  CG       -13.1950    7.0780   11.1490 C.3   116  LYS116      0.0035
    100  CD       -14.2810    6.9810   12.1950 C.3   116  LYS116      0.0206
    101  CE       -15.6440    6.7610   11.6170 C.3   116  LYS116      0.1093
    102  NZ       -16.5880    6.3020   12.7040 N.3   116  LYS116     -0.1314
    103  N        -11.2070   10.0720   11.6980 N.am  117  SER117     -0.1952
    104  CA       -10.2130   10.3610   12.7450 C.3   117  SER117      0.1924
    105  C        -10.5270   11.6310   13.5360 C.2   117  SER117      0.2314
    106  O        -10.2490   11.6970   14.7310 O.2   117  SER117     -0.2863
    107  CB        -8.8070   10.4300   12.1500 C.3   117  SER117      0.2116
    108  OG        -8.3740    9.1480   11.7490 O.3   117  SER117     -0.2180
    109  N        -12.2260   11.4720   16.9570 N.3   120  TYR120     -0.1241
    110  CA       -11.4680   10.9660   18.1060 C.3   120  TYR120      0.1605
    111  C        -10.4650   11.9570   18.6900 C.2   120  TYR120      0.2264
    112  O         -9.7800   11.6380   19.6650 O.2   120  TYR120     -0.2867
    113  CB       -10.7590    9.6620   17.7260 C.3   120  TYR120      0.0534
    114  CG       -11.7530    8.5710   17.3910 C.ar  120  TYR120     -0.0201
    115  CD1      -12.2690    7.7380   18.3900 C.ar  120  TYR120     -0.0009
    116  CD2      -12.2260    8.4130   16.0890 C.ar  120  TYR120     -0.0009
    117  CE1      -13.2000    6.7610   18.0860 C.ar  120  TYR120      0.0417
    118  CE2      -13.1640    7.4470   15.7820 C.ar  120  TYR120      0.0417
    119  CZ       -13.6470    6.6280   16.7780 C.ar  120  TYR120      0.1957
    120  OH       -14.5810    5.6650   16.4690 O.3   120  TYR120     -0.2866
    121  N        -11.3900   12.5840   22.1760 N.3   123  GLY123     -0.1210
    122  CA       -11.6790   11.3400   22.8700 C.3   123  GLY123      0.1956
    123  C        -12.6440   10.4670   22.1030 C.2   123  GLY123      0.2611
    124  O        -13.1440   10.8510   21.0430 O.2   123  GLY123     -0.2717
    125  N        -12.9280    9.3010   22.6720 N.am  124  ILE124     -0.1979
    126  CA       -13.8450    8.3530   22.0540 C.3   124  ILE124      0.1595
    127  C        -15.2280    9.0040   21.9810 C.2   124  ILE124      0.2287
    128  O        -15.7040    9.5800   22.9610 O.2   124  ILE124     -0.2864
    129  CB       -13.8730    7.0160   22.8220 C.3   124  ILE124      0.0276
    130  CG1      -12.5050    6.3370   22.7310 C.3   124  ILE124      0.0022
    131  CG2      -14.9300    6.0850   22.2380 C.3   124  ILE124      0.0022
    132  CD1      -12.2700    5.2460   23.7520 C.3   124  ILE124      0.0001
@<TRIPOS>BOND
     1    92    91    2
     2    91    90    1
     3    90    93    1
     4    90    89    1
     5    94    95    1
     6    89    80   am
     7    98    95    1
     8    98    99    1
     9    81    80    2
    10    80    79    1
    11    95    96    1
    12    82    79    1
    13    82    83    1
    14    99   100    1
    15   101   100    1
    16   101   102    1
    17    79    78    1
    18   103    96   am
    19   103   104    1
    20   108   107    1
    21    83    84   ar
    22    83    85   ar
    23     1     2    1
    24    84    86   ar
    25    96    97    2
    26   107   104    1
    27    85    87   ar
    28    78    68   am
    29   104   105    1
    30    86    88   ar
    31     2     5    1
    32     2     3    1
    33    87    88   ar
    34   105   106    2
    35     5     6    1
    36    68    69    2
    37    68    67    1
    38     4     3    2
    39     3    11   am
    40    67    70    1
    41    67    66    1
    42    11    12    1
    43    72    74   ar
    44    72    71   ar
    45     6     7   ar
    46     6     8   ar
    47    70    71    1
    48     7     9   ar
    49    74    76   ar
    50    71    73   ar
    51    12    13    1
    52   118   116   ar
    53   118   119   ar
    54   116   114   ar
    55   120   119    1
    56     8    10   ar
    57    76    77    1
    58    76    75   ar
    59   119   117   ar
    60     9    10   ar
    61    73    75   ar
    62   109   110    1
    63    13    14    2
    64    13    15   am
    65   114   113    1
    66   114   115   ar
    67   113   110    1
    68   117   115   ar
    69   110   111    1
    70    15    16    1
    71   111   112    2
    72    63    61   ar
    73    63    64   ar
    74    61    59   ar
    75    16    19    1
    76    16    17    1
    77    19    20    1
    78    65    64    1
    79    18    17    2
    80    64    62   ar
    81    58    59    1
    82    58    55    1
    83    59    60   ar
    84    17    21   am
    85    42    41    2
    86   124   123    2
    87    57    56    2
    88    54    55    1
    89    54    51   am
    90    62    60   ar
    91    55    56    1
    92    43    44    1
    93    43    40    1
    94    50    53    1
    95    50    51    1
    96    50    49    1
    97    41    49   am
    98    41    40    1
    99    21    27    1
   100    21    22    1
   101   127   126    1
   102   127   128    2
   103    30    31    2
   104    30    29    1
   105    51    52    2
   106   126   125    1
   107   126   129    1
   108   123   125   am
   109   123   122    1
   110    45    44   ar
   111    45    47   ar
   112   121   122    1
   113    27    26    1
   114   131   129    1
   115    44    46   ar
   116    40    39    1
   117   130   129    1
   118   130   132    1
   119    22    23    1
   120    22    25    1
   121    28    29    1
   122    28    23   am
   123    47    48   ar
   124    29    32    1
   125    23    24    2
   126    46    48   ar
   127    32    33    1
   128    26    25    1
   129    35    33   ar
   130    35    37   ar
   131    33    34   ar
   132    37    38   ar
   133    34    36   ar
   134    38    36   ar
