@<TRIPOS>MOLECULE
tmp/5nweA00.pdb
 172 161 0 0 0
SMALL
GASTEIGER

@<TRIPOS>ATOM
      1  N          8.6300   -8.7420   41.9630 N.3    37  ARG37      -0.1231
      2  CA         8.5600   -7.3830   41.5030 C.3    37  ARG37       0.1694
      3  C          9.8840   -7.0210   40.8160 C.2    37  ARG37       0.2591
      4  O         10.7720   -7.8470   40.7100 O.2    37  ARG37      -0.2718
      5  CB         8.2010   -6.4550   42.6840 C.3    37  ARG37       0.0321
      6  CG         6.6980   -6.1550   42.8440 C.3    37  ARG37       0.0489
      7  CD         6.5300   -4.7230   43.3410 C.3    37  ARG37       0.2205
      8  NE         6.9780   -3.7550   42.3440 N.pl3  37  ARG37      -0.0865
      9  CZ         7.3430   -2.5020   42.6260 C.cat  37  ARG37       0.5346
     10  NH1        7.3330   -2.0480   43.8690 N.pl3  37  ARG37       0.1354
     11  NH2        7.7420   -1.6930   41.6730 N.pl3  37  ARG37       0.1354
     12  N          9.9770   -5.7870   40.3320 N.am   38  GLU38      -0.1979
     13  CA        11.1730   -5.2550   39.7200 C.3    38  GLU38       0.1602
     14  C         11.5760   -6.0990   38.4940 C.2    38  GLU38       0.2287
     15  O         12.7450   -6.5370   38.3770 O.2    38  GLU38      -0.2864
     16  CB        12.3050   -5.0680   40.7690 C.3    38  GLU38       0.0415
     17  CG        11.9870   -4.0160   41.8460 C.3    38  GLU38       0.1163
     18  CD        11.1870   -4.6060   43.0070 C.2    38  GLU38       0.3649
     19  OE1       11.3350   -5.8130   43.2960 O.co2  38  GLU38      -0.2457
     20  OE2       10.4220   -3.8720   43.6750 O.co2  38  GLU38      -0.2457
     21  N         10.0980   -4.7790   50.7420 N.3    70  ASP70      -0.1225
     22  CA        11.0970   -4.6710   49.6640 C.3    70  ASP70       0.1805
     23  C         12.2750   -5.6020   49.8240 C.2    70  ASP70       0.2597
     24  O         12.7410   -6.1830   48.8490 O.2    70  ASP70      -0.2718
     25  CB        11.5630   -3.2220   49.4730 C.3    70  ASP70       0.1424
     26  CG        10.4570   -2.3280   48.8510 C.2    70  ASP70       0.3668
     27  OD1        9.9630   -2.7040   47.7710 O.co2  70  ASP70      -0.2456
     28  OD2       10.0620   -1.2680   49.4210 O.co2  70  ASP70      -0.2456
     29  N         12.7650   -5.7440   51.0340 N.am   71  ARG71      -0.1979
     30  CA        14.0630   -6.3860   51.2350 C.3    71  ARG71       0.1597
     31  C         13.9540   -7.4880   52.2750 C.2    71  ARG71       0.2287
     32  O         13.3560   -7.3340   53.3500 O.2    71  ARG71      -0.2864
     33  CB        15.1330   -5.3230   51.5970 C.3    71  ARG71       0.0334
     34  CG        15.4160   -4.2920   50.4870 C.3    71  ARG71       0.0492
     35  CD        16.4220   -3.2100   50.9050 C.3    71  ARG71       0.2205
     36  NE        16.0100   -2.5620   52.1570 N.pl3  71  ARG71      -0.0865
     37  CZ        15.0100   -1.6790   52.3050 C.cat  71  ARG71       0.5346
     38  NH1       14.3220   -1.2100   51.2480 N.pl3  71  ARG71       0.1354
     39  NH2       14.7470   -1.1860   53.5190 N.pl3  71  ARG71       0.1354
     40  N         14.6570  -13.0230   48.7600 N.3    75  ARG75      -0.1245
     41  CA        14.5830  -12.5150   47.4200 C.3    75  ARG75       0.1563
     42  C         15.7580  -12.9760   46.6030 C.2    75  ARG75       0.2260
     43  O         16.9010  -12.9340   47.0690 O.2    75  ARG75      -0.2867
     44  CB        14.5220  -10.9870   47.4530 C.3    75  ARG75       0.0307
     45  CG        13.3220  -10.4890   48.2350 C.3    75  ARG75       0.0489
     46  CD        12.8370   -9.1620   47.7660 C.3    75  ARG75       0.2205
     47  NE        12.1230   -9.2970   46.5040 N.pl3  75  ARG75      -0.0865
     48  CZ        11.5040   -8.3100   45.8950 C.cat  75  ARG75       0.5346
     49  NH1       11.4590   -7.1180   46.4840 N.pl3  75  ARG75       0.1354
     50  NH2       10.8990   -8.5200   44.7040 N.pl3  75  ARG75       0.1354
     51  N         17.8660   -8.4030   46.4220 N.3    98  TRP98      -0.1227
     52  CA        16.7540   -7.4870   46.5890 C.3    98  TRP98       0.1737
     53  C         16.8830   -6.1620   45.7870 C.2    98  TRP98       0.2596
     54  O         15.9910   -5.3000   45.8050 O.2    98  TRP98      -0.2718
     55  CB        16.4380   -7.2810   48.0910 C.3    98  TRP98       0.0564
     56  CG        17.5500   -6.9100   49.0810 C.ar   98  TRP98       0.0003
     57  CD1       17.9820   -7.6610   50.1300 C.ar   98  TRP98       0.0946
     58  CD2       18.3100   -5.6900   49.1360 C.ar   98  TRP98       0.0152
     59  NE1       18.9390   -6.9920   50.8370 N.ar   98  TRP98      -0.2442
     60  CE2       19.1610   -5.7810   50.2500 C.ar   98  TRP98       0.0810
     61  CE3       18.3260   -4.5240   48.3720 C.ar   98  TRP98       0.0012
     62  CZ2       20.0200   -4.7680   50.6120 C.ar   98  TRP98       0.0191
     63  CZ3       19.1860   -3.5080   48.7300 C.ar   98  TRP98       0.0001
     64  CH2       20.0180   -3.6320   49.8530 C.ar   98  TRP98       0.0015
     65  N         17.9860   -6.0230   45.0480 N.am   99  SER99      -0.1952
     66  CA        18.1600   -5.0150   44.0000 C.3    99  SER99       0.1924
     67  C         19.1510   -5.5660   42.9820 C.2    99  SER99       0.2314
     68  O         20.0070   -6.3720   43.3260 O.2    99  SER99      -0.2863
     69  CB        18.6550   -3.6790   44.5800 C.3    99  SER99       0.2116
     70  OG        18.6850   -2.6560   43.5830 O.3    99  SER99      -0.2180
     71  N         21.4120    1.3080   52.3570 N.3   142  ILE142     -0.1245
     72  CA        20.6700    0.6070   51.2910 C.3   142  ILE142      0.1561
     73  C         21.3170    0.8440   49.9350 C.2   142  ILE142      0.2260
     74  O         20.7770    1.5520   49.0910 O.2   142  ILE142     -0.2867
     75  CB        19.1700    0.9840   51.2640 C.3   142  ILE142      0.0252
     76  CG1       18.5790    0.9500   52.6740 C.3   142  ILE142      0.0019
     77  CG2       18.3990    0.0600   50.3070 C.3   142  ILE142      0.0019
     78  CD1       17.1090    1.3790   52.7790 C.3   142  ILE142      0.0001
     79  N         21.7750    0.4470   46.3700 N.3   144  ARG144     -0.1245
     80  CA        20.7670    0.0370   45.4290 C.3   144  ARG144      0.1563
     81  C         21.1710    0.3290   44.0230 C.2   144  ARG144      0.2260
     82  O         22.0330    1.1640   43.7790 O.2   144  ARG144     -0.2867
     83  CB        19.4170    0.6410   45.7950 C.3   144  ARG144      0.0307
     84  CG        19.3690    2.1480   45.9570 C.3   144  ARG144      0.0489
     85  CD        18.3030    2.4910   46.9550 C.3   144  ARG144      0.2205
     86  NE        18.1720    3.9070   47.1770 N.pl3 144  ARG144     -0.0865
     87  CZ        18.7880    4.6300   48.1190 C.cat 144  ARG144      0.5346
     88  NH1       19.6490    4.0960   49.0280 N.pl3 144  ARG144      0.1354
     89  NH2       18.5280    5.9380   48.1360 N.pl3 144  ARG144      0.1354
     90  N         17.4900   -1.8280   38.7050 N.3   147  GLU147     -0.1245
     91  CA        16.2790   -2.6450   38.4250 C.3   147  GLU147      0.1567
     92  C         15.9390   -2.6340   36.9190 C.2   147  GLU147      0.2260
     93  O         14.7930   -2.7660   36.5160 O.2   147  GLU147     -0.2867
     94  CB        15.0690   -2.2570   39.2760 C.3   147  GLU147      0.0388
     95  CG        15.3450   -1.8140   40.7240 C.3   147  GLU147      0.1160
     96  CD        16.1040   -2.8030   41.6230 C.2   147  GLU147      0.3649
     97  OE1       16.3340   -3.9950   41.2660 O.co2 147  GLU147     -0.2457
     98  OE2       16.4710   -2.3470   42.7490 O.co2 147  GLU147     -0.2457
     99  N         16.7710    8.3630   50.7600 N.3   166  SER166     -0.1217
    100  CA        15.8160    8.4650   49.6310 C.3   166  SER166      0.1889
    101  C         14.8910    9.7050   49.7250 C.2   166  SER166      0.2288
    102  O         14.0310    9.9200   48.8450 O.2   166  SER166     -0.2866
    103  CB        14.9790    7.1920   49.5440 C.3   166  SER166      0.2089
    104  OG        14.2840    6.9810   50.7350 O.3   166  SER166     -0.2183
    105  N         18.2250    7.5320   41.1470 N.3   196  GLU196     -0.1231
    106  CA        18.0790    6.1200   41.4760 C.3   196  GLU196      0.1699
    107  C         17.3300    5.3610   40.3820 C.2   196  GLU196      0.2592
    108  O         16.6350    5.9600   39.5440 O.2   196  GLU196     -0.2718
    109  CB        17.4630    5.9360   42.8710 C.3   196  GLU196      0.0402
    110  CG        15.9520    6.0770   43.0090 C.3   196  GLU196      0.1161
    111  CD        15.5250    5.8560   44.4560 C.2   196  GLU196      0.3649
    112  OE1       16.0100    4.8660   45.0850 O.co2 196  GLU196     -0.2457
    113  OE2       14.6980    6.6610   44.9520 O.co2 196  GLU196     -0.2457
    114  N         17.5300    4.0380   40.3770 N.am  197  GLU197     -0.1979
    115  CA        16.8330    3.1410   39.4860 C.3   197  GLU197      0.1602
    116  C         16.9370    3.6370   38.0430 C.2   197  GLU197      0.2287
    117  O         15.9410    3.7470   37.3000 O.2   197  GLU197     -0.2864
    118  CB        15.3750    2.9930   39.9320 C.3   197  GLU197      0.0415
    119  CG        15.2090    2.5800   41.3930 C.3   197  GLU197      0.1163
    120  CD        13.7540    2.4680   41.8070 C.2   197  GLU197      0.3649
    121  OE1       12.8780    3.1060   41.1900 O.co2 197  GLU197     -0.2457
    122  OE2       13.4770    1.7570   42.7930 O.co2 197  GLU197     -0.2457
    123  N         15.2540    8.1870   38.4870 N.3   212  ARG212     -0.1245
    124  CA        14.1750    8.5760   39.3930 C.3   212  ARG212      0.1563
    125  C         14.7300    9.5210   40.4820 C.2   212  ARG212      0.2260
    126  O         15.6450    9.1500   41.2170 O.2   212  ARG212     -0.2867
    127  CB        13.5990    7.2860   40.0220 C.3   212  ARG212      0.0307
    128  CG        12.6780    7.4820   41.2200 C.3   212  ARG212      0.0489
    129  CD        12.2320    6.1220   41.7280 C.3   212  ARG212      0.2205
    130  NE        11.4660    6.2360   42.9720 N.pl3 212  ARG212     -0.0865
    131  CZ        10.8280    5.2310   43.5570 C.cat 212  ARG212      0.5346
    132  NH1       10.8560    4.0270   43.0260 N.pl3 212  ARG212      0.1354
    133  NH2       10.1570    5.4290   44.6840 N.pl3 212  ARG212      0.1354
    134  N         13.7160   10.7950   43.7770 N.3   214  ASN214     -0.1240
    135  CA        12.7720   10.5180   44.8540 C.3   214  ASN214      0.1653
    136  C         12.7080   11.6230   45.9210 C.2   214  ASN214      0.2266
    137  O         11.8620   11.5950   46.8100 O.2   214  ASN214     -0.2867
    138  CB        13.1340    9.1900   45.5270 C.3   214  ASN214      0.1155
    139  CG        11.9350    8.4750   46.0910 C.2   214  ASN214      0.2627
    140  OD1       11.0610    8.0840   45.3540 O.2   214  ASN214     -0.2716
    141  ND2       11.9070    8.2750   47.4300 N.am  214  ASN214     -0.0877
    142  N          8.9460   11.3960   46.4380 N.3   263  ASN263     -0.1240
    143  CA         8.5910   10.0730   46.0120 C.3   263  ASN263      0.1653
    144  C          8.8600    9.9520   44.4780 C.2   263  ASN263      0.2266
    145  O          9.4530   10.8660   43.8660 O.2   263  ASN263     -0.2867
    146  CB         7.1560    9.7600   46.4260 C.3   263  ASN263      0.1155
    147  CG         6.9370    8.2800   46.6970 C.2   263  ASN263      0.2627
    148  OD1        7.5990    7.4220   46.1130 O.2   263  ASN263     -0.2716
    149  ND2        5.9770    7.9760   47.5570 N.am  263  ASN263     -0.0877
    150  N          0.2090    4.8890   40.3900 N.3   287  ARG287     -0.1245
    151  CA         0.7680    4.0530   39.3380 C.3   287  ARG287      0.1563
    152  C         -0.3540    3.3990   38.5130 C.2   287  ARG287      0.2260
    153  O         -0.6040    2.1800   38.6120 O.2   287  ARG287     -0.2867
    154  CB         1.7220    3.0120   39.9420 C.3   287  ARG287      0.0307
    155  CG         2.9760    3.6550   40.5290 C.3   287  ARG287      0.0489
    156  CD         3.5980    2.8590   41.6750 C.3   287  ARG287      0.2205
    157  NE         4.8420    3.5020   42.1150 N.pl3 287  ARG287     -0.0865
    158  CZ         5.8510    2.9040   42.7420 C.cat 287  ARG287      0.5346
    159  NH1        5.7920    1.6310   43.0410 N.pl3 287  ARG287      0.1354
    160  NH2        6.9690    3.6020   43.0330 N.pl3 287  ARG287      0.1354
    161  N          6.5020    0.1760   37.6390 N.3   321  TYR321     -0.1241
    162  CA         7.8150    0.4650   37.0780 C.3   321  TYR321      0.1605
    163  C          7.8200    0.3300   35.5320 C.2   321  TYR321      0.2264
    164  O          6.9650   -0.3900   34.9620 O.2   321  TYR321     -0.2867
    165  CB         8.8690   -0.4590   37.7310 C.3   321  TYR321      0.0534
    166  CG         9.4030   -0.0080   39.1040 C.ar  321  TYR321     -0.0201
    167  CD1        8.7250    0.9220   39.8900 C.ar  321  TYR321     -0.0009
    168  CD2       10.6000   -0.5110   39.5930 C.ar  321  TYR321     -0.0009
    169  CE1        9.2120    1.3510   41.0860 C.ar  321  TYR321      0.0417
    170  CE2       11.1190   -0.0940   40.8100 C.ar  321  TYR321      0.0417
    171  CZ        10.4010    0.8480   41.5460 C.ar  321  TYR321      0.1957
    172  OH        10.8910    1.2510   42.7480 O.3   321  TYR321     -0.2866
@<TRIPOS>BOND
     1   164   163    2
     2   163   162    1
     3    93    92    2
     4    92    91    1
     5   162   161    1
     6   162   165    1
     7   117   116    2
     8   165   166    1
     9   116   115    1
    10    15    14    2
    11    91    90    1
    12    91    94    1
    13   123   124    1
    14    14    13    1
    15   152   153    2
    16   152   151    1
    17   166   168   ar
    18   166   167   ar
    19    94    95    1
    20   151   154    1
    21   151   150    1
    22   124   127    1
    23   124   125    1
    24   115   118    1
    25   115   114    1
    26   108   107    2
    27   168   170   ar
    28    13    12    1
    29    13    16    1
    30   167   169   ar
    31   118   119    1
    32   154   155    1
    33   127   128    1
    34    12     3   am
    35   114   107   am
    36   107   106    1
    37   125   126    2
    38   155   156    1
    39     4     3    2
    40    95    96    1
    41    16    17    1
    42   170   171   ar
    43     3     2    1
    44   169   171   ar
    45   105   106    1
    46   121   120   ar
    47   128   129    1
    48    97    96   ar
    49   119   120    1
    50   106   109    1
    51     2     1    1
    52     2     5    1
    53   171   172    1
    54    96    98   ar
    55    11     9    1
    56   156   157    1
    57   129   130    1
    58   120   122   ar
    59    17    18    1
    60   157   158    2
    61     8     9    2
    62     8     7    1
    63     9    10    1
    64     5     6    1
    65   158   160    1
    66   158   159    1
    67     6     7    1
    68   109   110    1
    69   130   131    2
    70    67    68    2
    71    67    66    1
    72    18    19   ar
    73    18    20   ar
    74   110   111    1
    75   132   131    1
    76   131   133    1
    77    70    69    1
    78   134   135    1
    79    82    81    2
    80   145   144    2
    81    66    69    1
    82    66    65    1
    83    81    80    1
    84   111   113   ar
    85   111   112   ar
    86   144   143    1
    87    50    48    1
    88   135   138    1
    89   135   136    1
    90    65    53   am
    91   140   139    2
    92    80    83    1
    93    80    79    1
    94   138   139    1
    95    53    54    2
    96    53    52    1
    97    83    84    1
    98    48    49    1
    99    48    47    2
   100   136   137    2
   101    84    85    1
   102   143   146    1
   103   143   142    1
   104   139   141   am
   105   148   147    2
   106    51    52    1
   107   146   147    1
   108    47    46    1
   109    52    55    1
   110    42    43    2
   111    42    41    1
   112   147   149   am
   113    85    86    1
   114    86    87    2
   115    41    44    1
   116    41    40    1
   117    44    45    1
   118    46    45    1
   119    27    26   ar
   120    55    56    1
   121    87    89    1
   122    87    88    1
   123    61    63   ar
   124    61    58   ar
   125    63    64   ar
   126   102   101    2
   127    24    23    2
   128    26    28   ar
   129    26    25    1
   130    56    58   ar
   131    56    57   ar
   132    74    73    2
   133    58    60   ar
   134    25    22    1
   135   103   100    1
   136   103   104    1
   137   100   101    1
   138   100    99    1
   139    22    23    1
   140    22    21    1
   141    23    29   am
   142    64    62   ar
   143    73    72    1
   144    57    59   ar
   145    60    62   ar
   146    60    59   ar
   147    77    75    1
   148    34    35    1
   149    34    33    1
   150    35    36    1
   151    29    30    1
   152    30    33    1
   153    30    31    1
   154    38    37    1
   155    75    72    1
   156    75    76    1
   157    72    71    1
   158    36    37    2
   159    31    32    2
   160    37    39    1
   161    76    78    1
