@<TRIPOS>MOLECULE
tmp/5nwhA00.pdb
 133 125 0 0 0
SMALL
GASTEIGER

@<TRIPOS>ATOM
      1  N          4.4420   -8.4040   -5.6140 N.3    14  LYS14      -0.1231
      2  CA         5.8180   -8.2140   -5.2070 C.3    14  LYS14       0.1693
      3  C          6.6850   -8.1390   -6.4740 C.2    14  LYS14       0.2592
      4  O          7.4780   -7.2000   -6.6300 O.2    14  LYS14      -0.2718
      5  CB         6.1800   -9.3530   -4.2290 C.3    14  LYS14       0.0285
      6  CG         7.5440  -10.0440   -4.1620 C.3    14  LYS14       0.0035
      7  CD         8.7770   -9.2010   -4.1770 C.3    14  LYS14       0.0206
      8  CE         9.9430  -10.1430   -3.9050 C.3    14  LYS14       0.1093
      9  NZ         9.8520  -11.3260   -4.8230 N.3    14  LYS14      -0.1314
     10  N          6.6270   -9.0990   -7.3890 N.am   15  TRP15      -0.1962
     11  CA         7.3900   -8.8880   -8.6260 C.3    15  TRP15       0.1771
     12  C          6.5770   -8.3320   -9.7600 C.2    15  TRP15       0.2619
     13  O          7.0530   -7.4990  -10.5230 O.2    15  TRP15      -0.2715
     14  CB         8.0200  -10.1540   -9.1770 C.3    15  TRP15       0.0590
     15  CG         9.0290  -10.8710   -8.3900 C.ar   15  TRP15       0.0006
     16  CD1        8.8060  -11.8540   -7.4970 C.ar   15  TRP15       0.0946
     17  CD2       10.4540  -10.7260   -8.4900 C.ar   15  TRP15       0.0152
     18  NE1        9.9970  -12.3480   -7.0320 N.ar   15  TRP15      -0.2442
     19  CE2       11.0250  -11.6480   -7.5980 C.ar   15  TRP15       0.0810
     20  CE3       11.2970   -9.8910   -9.2290 C.ar   15  TRP15       0.0012
     21  CZ2       12.4010  -11.7650   -7.4210 C.ar   15  TRP15       0.0191
     22  CZ3       12.6630  -10.0060   -9.0530 C.ar   15  TRP15       0.0001
     23  CH2       13.2020  -10.9370   -8.1550 C.ar   15  TRP15       0.0015
     24  N          5.3700   -8.8490   -9.9160 N.am   16  VAL16      -0.1977
     25  CA         4.6380   -8.6180  -11.1610 C.3    16  VAL16       0.1596
     26  C          3.3150   -7.9360  -10.8500 C.2    16  VAL16       0.2287
     27  O          2.7200   -8.1830   -9.8020 O.2    16  VAL16      -0.2864
     28  CB         4.3960   -9.9410  -11.9470 C.3    16  VAL16       0.0276
     29  CG1        3.4330  -10.8620  -11.2040 C.3    16  VAL16       0.0022
     30  CG2        3.8830   -9.6520  -13.3410 C.3    16  VAL16       0.0022
     31  N          6.1330   -6.4190  -15.3390 N.3    38  ARG38      -0.1245
     32  CA         7.0270   -6.6930  -14.2240 C.3    38  ARG38       0.1563
     33  C          7.2130   -5.4120  -13.4260 C.2    38  ARG38       0.2260
     34  O          7.4800   -4.3490  -13.9870 O.2    38  ARG38      -0.2867
     35  CB         8.3810   -7.2280  -14.7080 C.3    38  ARG38       0.0307
     36  CG         8.3870   -8.7110  -15.0500 C.3    38  ARG38       0.0489
     37  CD         9.7860   -9.2010  -15.3980 C.3    38  ARG38       0.2205
     38  NE         9.7860  -10.5980  -15.8250 N.pl3  38  ARG38      -0.0865
     39  CZ         9.9950  -11.6260  -15.0080 C.cat  38  ARG38       0.5346
     40  NH1       10.2180  -11.4140  -13.7180 N.pl3  38  ARG38       0.1354
     41  NH2        9.9760  -12.8680  -15.4760 N.pl3  38  ARG38       0.1354
     42  N         14.2290   -6.0720  -19.6500 N.3    47  ASP47      -0.1225
     43  CA        13.9950   -6.7070  -18.3370 C.3    47  ASP47       0.1805
     44  C         15.0930   -7.7210  -18.0090 C.2    47  ASP47       0.2598
     45  O         15.6300   -7.7390  -16.8970 O.2    47  ASP47      -0.2718
     46  CB        12.6250   -7.4080  -18.2690 C.3    47  ASP47       0.1424
     47  CG        11.4610   -6.4570  -18.4570 C.2    47  ASP47       0.3668
     48  OD1       11.2900   -5.9170  -19.5730 O.co2  47  ASP47      -0.2456
     49  OD2       10.7020   -6.2620  -17.4840 O.co2  47  ASP47      -0.2456
     50  N         15.4320   -8.5560  -18.9810 N.am   48  GLY48      -0.1942
     51  CA        16.3920   -9.6160  -18.7580 C.3    48  GLY48       0.2014
     52  C         17.1770  -10.0070  -19.9940 C.2    48  GLY48       0.2639
     53  O         17.2170   -9.2870  -20.9950 O.2    48  GLY48      -0.2714
     54  N         17.8230  -11.1590  -19.9090 N.am   49  VAL49      -0.1963
     55  CA        18.5510  -11.6980  -21.0390 C.3    49  VAL49       0.1727
     56  C         18.2770  -13.1810  -21.1790 C.2    49  VAL49       0.2616
     57  O         17.9460  -13.8620  -20.2110 O.2    49  VAL49      -0.2715
     58  CB        20.0830  -11.4760  -20.9180 C.3    49  VAL49       0.0290
     59  CG1       20.4550  -10.0240  -21.2200 C.3    49  VAL49       0.0023
     60  CG2       20.5770  -11.9130  -19.5470 C.3    49  VAL49       0.0023
     61  N         18.3600  -13.6560  -22.4120 N.am   50  ALA50      -0.1977
     62  CA        18.3790  -15.0730  -22.6960 C.3    50  ALA50       0.1597
     63  C         19.7180  -15.3720  -23.3530 C.2    50  ALA50       0.2287
     64  O         20.1630  -14.6220  -24.2150 O.2    50  ALA50      -0.2864
     65  CB        17.2070  -15.4700  -23.5970 C.3    50  ALA50       0.0319
     66  N          9.0460  -24.7210  -13.3810 N.3    71  ARG71      -0.1245
     67  CA         8.3950  -23.4250  -13.5090 C.3    71  ARG71       0.1563
     68  C          6.9920  -23.4930  -12.9260 C.2    71  ARG71       0.2260
     69  O          6.0990  -24.1060  -13.5140 O.2    71  ARG71      -0.2867
     70  CB         8.3350  -22.9740  -14.9740 C.3    71  ARG71       0.0307
     71  CG         9.6680  -22.5440  -15.5460 C.3    71  ARG71       0.0489
     72  CD        10.2260  -21.3400  -14.8030 C.3    71  ARG71       0.2205
     73  NE        11.2530  -20.6640  -15.5870 N.pl3  71  ARG71      -0.0865
     74  CZ        11.9180  -19.5870  -15.1860 C.cat  71  ARG71       0.5346
     75  NH1       11.6690  -19.0550  -13.9980 N.pl3  71  ARG71       0.1354
     76  NH2       12.8290  -19.0380  -15.9840 N.pl3  71  ARG71       0.1354
     77  N         14.8750  -24.5100  -21.2840 N.3    80  GLU80      -0.1245
     78  CA        15.0710  -23.1310  -21.7350 C.3    80  GLU80       0.1567
     79  C         16.5240  -22.7430  -22.0400 C.2    80  GLU80       0.2260
     80  O         17.4700  -23.4580  -21.7070 O.2    80  GLU80      -0.2867
     81  CB        14.5290  -22.1560  -20.6900 C.3    80  GLU80       0.0388
     82  CG        13.0710  -22.3170  -20.3760 C.3    80  GLU80       0.1160
     83  CD        12.6750  -21.5710  -19.1220 C.2    80  GLU80       0.3649
     84  OE1       12.9940  -20.3710  -19.0150 O.co2  80  GLU80      -0.2457
     85  OE2       12.0660  -22.1930  -18.2300 O.co2  80  GLU80      -0.2457
     86  N         18.6280  -17.9800  -18.6330 N.3    83  ALA83      -0.1231
     87  CA        17.9990  -16.6720  -18.6610 C.3    83  ALA83       0.1694
     88  C         17.8050  -16.1170  -17.2670 C.2    83  ALA83       0.2593
     89  O         17.8460  -16.8480  -16.2810 O.2    83  ALA83      -0.2718
     90  CB        16.6670  -16.7440  -19.3900 C.3    83  ALA83       0.0304
     91  N         17.6020  -14.8110  -17.1910 N.am   84  GLY84      -0.1942
     92  CA        17.3440  -14.1690  -15.9270 C.3    84  GLY84       0.2014
     93  C         17.2560  -12.6730  -16.0930 C.2    84  GLY84       0.2638
     94  O         17.6860  -12.1260  -17.1100 O.2    84  GLY84      -0.2714
     95  N         16.6840  -12.0120  -15.0920 N.am   85  LEU85      -0.1977
     96  CA        16.6320  -10.5620  -15.0800 C.3    85  LEU85       0.1596
     97  C         18.0550  -10.0190  -15.0550 C.2    85  LEU85       0.2287
     98  O         18.9470  -10.6130  -14.4520 O.2    85  LEU85      -0.2864
     99  CB        15.8300  -10.0490  -13.8780 C.3    85  LEU85       0.0297
    100  CG        14.3580  -10.4580  -13.7790 C.3    85  LEU85       0.0022
    101  CD1       13.7650  -10.0290  -12.4450 C.3    85  LEU85       0.0001
    102  CD2       13.5530   -9.8650  -14.9360 C.3    85  LEU85       0.0001
    103  N          9.0400  -10.5820  -25.0740 N.3   119  MET119     -0.1245
    104  CA         8.8020  -11.9560  -24.6490 C.3   119  MET119      0.1570
    105  C          7.3820  -12.4100  -24.9610 C.2   119  MET119      0.2261
    106  O          7.1640  -13.5540  -25.3570 O.2   119  MET119     -0.2867
    107  CB         9.0630  -12.1000  -23.1460 C.3   119  MET119      0.0387
    108  CG        10.4930  -12.4430  -22.7860 C.3   119  MET119      0.0595
    109  SD        10.9580  -14.0920  -23.3330 S.3   119  MET119     -0.1393
    110  CE         9.8110  -15.0950  -22.4040 C.3   119  MET119      0.0692
    111  N          7.4350   -7.2990  -21.1710 N.3   126  CYS126     -0.1235
    112  CA         8.7510   -7.8950  -20.9530 C.3   126  CYS126      0.1677
    113  C          9.5730   -7.8790  -22.2250 C.2   126  CYS126      0.2270
    114  O          9.1440   -8.3810  -23.2640 O.2   126  CYS126     -0.2867
    115  CB         8.6430   -9.3390  -20.4500 C.3   126  CYS126      0.0956
    116  SG        10.2000  -10.1390  -20.0700 S.3   126  CYS126     -0.0801
    117  N         13.6930   -8.6710  -23.6100 N.3   128  ILE128     -0.1245
    118  CA        14.9640   -9.2930  -23.2760 C.3   128  ILE128      0.1561
    119  C         15.9840   -9.1330  -24.3810 C.2   128  ILE128      0.2260
    120  O         15.6610   -8.7390  -25.5070 O.2   128  ILE128     -0.2867
    121  CB        14.8350  -10.8030  -22.9970 C.3   128  ILE128      0.0252
    122  CG1       14.3930  -11.5380  -24.2710 C.3   128  ILE128      0.0019
    123  CG2       13.9170  -11.0560  -21.8180 C.3   128  ILE128      0.0019
    124  CD1       14.3290  -13.0410  -24.1320 C.3   128  ILE128      0.0001
    125  N         18.1830  -22.0160   -6.3260 N.3   151  GLU151     -0.1245
    126  CA        17.2480  -22.8290   -7.1080 C.3   151  GLU151      0.1567
    127  C         17.9240  -24.0850   -7.6780 C.2   151  GLU151      0.2260
    128  O         19.1220  -24.2980   -7.4910 O.2   151  GLU151     -0.2867
    129  CB        16.5920  -22.0160   -8.2210 C.3   151  GLU151      0.0388
    130  CG        17.3890  -20.8400   -8.7290 C.3   151  GLU151      0.1160
    131  CD        16.7430  -20.2200   -9.9540 C.2   151  GLU151      0.3649
    132  OE1       15.5020  -20.0500   -9.9410 O.co2 151  GLU151     -0.2457
    133  OE2       17.4670  -19.9100  -10.9260 O.co2 151  GLU151     -0.2457
@<TRIPOS>BOND
     1   120   119    2
     2   106   105    2
     3   103   104    1
     4   105   104    1
     5   104   107    1
     6   119   118    1
     7   122   124    1
     8   122   121    1
     9    64    63    2
    10   117   118    1
    11    65    62    1
    12    63    62    1
    13   109   108    1
    14   109   110    1
    15   118   121    1
    16   114   113    2
    17   107   108    1
    18   121   123    1
    19    62    61    1
    20    61    56   am
    21   113   112    1
    22    79    78    1
    23    79    80    2
    24    78    77    1
    25    78    81    1
    26    59    58    1
    27    56    55    1
    28    56    57    2
    29   111   112    1
    30    55    58    1
    31    55    54    1
    32    53    52    2
    33   112   115    1
    34    58    60    1
    35    81    82    1
    36   115   116    1
    37    82    83    1
    38    52    54   am
    39    52    51    1
    40    42    43    1
    41    48    47   ar
    42    90    87    1
    43    83    84   ar
    44    83    85   ar
    45    50    51    1
    46    50    44   am
    47    87    86    1
    48    87    88    1
    49    47    46    1
    50    47    49   ar
    51    43    46    1
    52    43    44    1
    53    44    45    2
    54    88    91   am
    55    88    89    2
    56    91    92    1
    57    94    93    2
    58    93    92    1
    59    93    95   am
    60    76    74    1
    61    38    37    1
    62    38    39    2
    63    73    74    2
    64    73    72    1
    65    71    70    1
    66    71    72    1
    67    41    39    1
    68    37    36    1
    69    31    32    1
    70    74    75    1
    71    95    96    1
    72    96    97    1
    73    96    99    1
    74    97    98    2
    75    36    35    1
    76    39    40    1
    77    70    67    1
    78   102   100    1
    79    35    32    1
    80    32    33    1
    81    34    33    2
    82    99   100    1
    83   100   101    1
    84    69    68    2
    85    67    66    1
    86    67    68    1
    87    30    28    1
    88    28    29    1
    89    28    25    1
    90    25    26    1
    91    25    24    1
    92   133   131   ar
    93    26    27    2
    94    13    12    2
    95   131   132   ar
    96   131   130    1
    97    24    12   am
    98    12    11    1
    99    20    22   ar
   100    20    17   ar
   101    14    11    1
   102    14    15    1
   103    22    23   ar
   104   130   129    1
   105    11    10    1
   106    17    15   ar
   107    17    19   ar
   108    15    16   ar
   109   129   126    1
   110    23    21   ar
   111   127   128    2
   112   127   126    1
   113    19    21   ar
   114    19    18   ar
   115    16    18   ar
   116    10     3   am
   117   126   125    1
   118     4     3    2
   119     3     2    1
   120     1     2    1
   121     2     5    1
   122     9     8    1
   123     5     6    1
   124     7     6    1
   125     7     8    1
