@<TRIPOS>MOLECULE
tmp/5nwjA02.pdb
 73 67 0 0 0
SMALL
GASTEIGER

@<TRIPOS>ATOM
      1  N         42.2080  -52.9530   10.3320 N.3   108  ASP108     -0.1239
      2  CA        42.2470  -54.3970   10.1300 C.3   108  ASP108      0.1674
      3  C         43.2020  -55.1050   11.0960 C.2   108  ASP108      0.2266
      4  O         43.0650  -56.3130   11.3180 O.2   108  ASP108     -0.2867
      5  CB        42.6040  -54.7020    8.6650 C.3   108  ASP108      0.1410
      6  CG        41.6460  -54.0200    7.6650 C.2   108  ASP108      0.3668
      7  OD1       40.5860  -54.5970    7.3430 O.co2 108  ASP108     -0.2456
      8  OD2       41.9400  -52.8920    7.2050 O.co2 108  ASP108     -0.2456
      9  N         38.8280  -53.7880   13.8530 N.3   112  ILE112     -0.1231
     10  CA        37.8150  -54.7040   13.3260 C.3   112  ILE112      0.1678
     11  C         37.8930  -56.0670   13.9890 C.2   112  ILE112      0.2434
     12  O         36.8380  -56.6110   14.3480 O.2   112  ILE112     -0.2733
     13  CB        37.8850  -54.7570   11.7990 C.3   112  ILE112      0.0265
     14  CG1       37.4580  -53.4070   11.2080 C.3   112  ILE112      0.0019
     15  CG2       37.0120  -55.8890   11.2620 C.3   112  ILE112      0.0020
     16  CD1       37.6120  -53.3250    9.6970 C.3   112  ILE112      0.0001
     17  N         39.0650  -56.6850   14.2050 N.am  113  PRO113     -0.2729
     18  CA        39.0870  -57.9600   14.9480 C.3   113  PRO113      0.1401
     19  C         38.5040  -57.8600   16.3530 C.2   113  PRO113      0.2269
     20  O         37.9500  -58.8470   16.8540 O.2   113  PRO113     -0.2865
     21  CB        40.5700  -58.3130   14.9920 C.3   113  PRO113      0.0296
     22  CG        41.1350  -57.6750   13.7620 C.3   113  PRO113      0.0237
     23  CD        40.4000  -56.3620   13.6720 C.3   113  PRO113      0.0939
     24  N         33.6190  -50.8680    9.9830 N.3   125  LEU125     -0.1245
     25  CA        33.5830  -51.1330    8.5420 C.3   125  LEU125      0.1561
     26  C         33.1970  -49.8860    7.7440 C.2   125  LEU125      0.2260
     27  O         33.7440  -49.6520    6.6600 O.2   125  LEU125     -0.2867
     28  CB        32.6480  -52.2900    8.2180 C.3   125  LEU125      0.0270
     29  CG        33.0770  -53.6350    8.8010 C.3   125  LEU125      0.0019
     30  CD1       31.9060  -54.6170    8.8000 C.3   125  LEU125      0.0001
     31  CD2       34.2420  -54.1880    8.0050 C.3   125  LEU125      0.0001
     32  N         36.2640  -47.9620    7.4610 N.3   128  LYS128     -0.1245
     33  CA        37.0880  -48.5230    6.4100 C.3   128  LYS128      0.1561
     34  C         36.5890  -48.0600    5.0400 C.2   128  LYS128      0.2260
     35  O         37.3790  -47.6400    4.1940 O.2   128  LYS128     -0.2867
     36  CB        37.0820  -50.0430    6.5090 C.3   128  LYS128      0.0271
     37  CG        38.1100  -50.6890    5.6210 C.3   128  LYS128      0.0035
     38  CD        38.3780  -52.0970    6.0680 C.3   128  LYS128      0.0206
     39  CE        38.4030  -53.0140    4.8750 C.3   128  LYS128      0.1093
     40  NZ        39.2100  -54.2550    5.0870 N.3   128  LYS128     -0.1314
     41  N         38.8780  -45.5050    2.3520 N.3   132  HIS132     -0.1241
     42  CA        39.1170  -45.9240    0.9910 C.3   132  HIS132      0.1621
     43  C         38.4770  -44.9330    0.0410 C.2   132  HIS132      0.2264
     44  O         38.9930  -44.6960   -0.9850 O.2   132  HIS132     -0.2867
     45  CB        38.6410  -47.3280    0.7060 C.3   132  HIS132      0.0745
     46  CG        39.5860  -48.3850    1.1640 C.ar  132  HIS132      0.0817
     47  ND1       40.8080  -48.5890    0.5850 N.ar  132  HIS132     -0.2268
     48  CD2       39.4860  -49.2950    2.1480 C.ar  132  HIS132      0.1154
     49  CE1       41.4190  -49.5780    1.1900 C.ar  132  HIS132      0.1986
     50  NE2       40.6380  -50.0220    2.1430 N.ar  132  HIS132     -0.2212
     51  N         37.5250  -51.3830   -3.0490 N.3   150  SER150     -0.1217
     52  CA        37.6930  -51.5000   -1.6220 C.3   150  SER150      0.1889
     53  C         36.5820  -50.7640   -0.8920 C.2   150  SER150      0.2288
     54  O         36.0490  -51.2710    0.0360 O.2   150  SER150     -0.2866
     55  CB        39.0350  -50.9870   -1.1840 C.3   150  SER150      0.2089
     56  OG        40.0440  -51.8350   -1.6140 O.3   150  SER150     -0.2183
     57  N         33.2430  -52.8150   -1.2050 N.3   153  THR153     -0.1203
     58  CA        33.2450  -54.0280   -0.4010 C.3   153  THR153      0.1994
     59  C         33.0430  -53.7050    1.0770 C.2   153  THR153      0.2617
     60  O         32.2770  -54.3910    1.7720 O.2   153  THR153     -0.2717
     61  CB        34.5520  -54.7880   -0.6040 C.3   153  THR153      0.1784
     62  OG1       34.7320  -55.0930   -1.9960 O.3   153  THR153     -0.2211
     63  CG2       34.5370  -56.0850    0.1960 C.3   153  THR153      0.0376
     64  N         33.7220  -52.6620    1.5710 N.am  154  ALA154     -0.1979
     65  CA        33.6040  -52.2930    2.9820 C.3   154  ALA154      0.1597
     66  C         32.1970  -51.8170    3.3010 C.2   154  ALA154      0.2287
     67  O         31.5610  -52.3280    4.2260 O.2   154  ALA154     -0.2864
     68  CB        34.6370  -51.2220    3.3490 C.3   154  ALA154      0.0319
     69  N         29.7160  -54.7600    3.3740 N.3   157  ALA157     -0.1245
     70  CA        29.8620  -55.5500    4.5620 C.3   157  ALA157      0.1562
     71  C         29.2240  -54.8280    5.7500 C.2   157  ALA157      0.2260
     72  O         28.5610  -55.4330    6.5430 O.2   157  ALA157     -0.2867
     73  CB        31.3080  -55.8190    4.8320 C.3   157  ALA157      0.0290
@<TRIPOS>BOND
     1    51    52    1
     2    62    61    1
     3    52    55    1
     4    52    53    1
     5    56    55    1
     6    57    58    1
     7    44    43    2
     8    53    54    2
     9    61    58    1
    10    61    63    1
    11    58    59    1
    12    43    42    1
    13    47    46   ar
    14    47    49   ar
    15    45    42    1
    16    45    46    1
    17    42    41    1
    18    59    64   am
    19    59    60    2
    20    46    48   ar
    21    49    50   ar
    22    64    65    1
    23    50    48   ar
    24    65    66    1
    25    65    68    1
    26    66    67    2
    27    69    70    1
    28    35    34    2
    29    70    73    1
    30    70    71    1
    31    39    40    1
    32    39    38    1
    33    34    33    1
    34    37    38    1
    35    37    36    1
    36    71    72    2
    37    33    36    1
    38    33    32    1
    39    27    26    2
    40     8     6   ar
    41     7     6   ar
    42     6     5    1
    43    26    25    1
    44    31    29    1
    45    28    25    1
    46    28    29    1
    47    25    24    1
    48     5     2    1
    49    30    29    1
    50    16    14    1
    51     2     1    1
    52     2     3    1
    53     3     4    2
    54    14    13    1
    55    15    13    1
    56    13    10    1
    57    10     9    1
    58    10    11    1
    59    23    22    1
    60    23    17    1
    61    22    21    1
    62    11    17   am
    63    11    12    2
    64    17    18    1
    65    18    21    1
    66    18    19    1
    67    19    20    2
