@<TRIPOS>MOLECULE
tmp/5nwkC01.pdb
 160 149 0 0 0
SMALL
GASTEIGER

@<TRIPOS>ATOM
      1  N         53.1720  -48.7360  -20.7680 N.3    16  LYS16      -0.1245
      2  CA        53.9320  -47.5100  -20.5480 C.3    16  LYS16       0.1561
      3  C         55.4280  -47.7790  -20.6460 C.2    16  LYS16       0.2260
      4  O         56.1840  -46.9560  -21.1750 O.2    16  LYS16      -0.2867
      5  CB        53.5820  -46.9120  -19.1860 C.3    16  LYS16       0.0271
      6  CG        52.2670  -46.1500  -19.1500 C.3    16  LYS16       0.0035
      7  CD        52.0390  -45.5220  -17.7850 C.3    16  LYS16       0.0206
      8  CE        50.9600  -46.2620  -17.0080 C.3    16  LYS16       0.1093
      9  NZ        50.9250  -45.8270  -15.5850 N.3    16  LYS16      -0.1314
     10  N         56.4120  -48.2210  -24.2430 N.3    19  GLU19      -0.1245
     11  CA        56.3940  -46.9530  -24.9640 C.3    19  GLU19       0.1567
     12  C         57.7390  -46.2460  -24.8600 C.2    19  GLU19       0.2260
     13  O         58.3480  -45.8940  -25.8770 O.2    19  GLU19      -0.2867
     14  CB        55.2770  -46.0580  -24.4300 C.3    19  GLU19       0.0388
     15  CG        55.4130  -44.6020  -24.8440 C.3    19  GLU19       0.1160
     16  CD        54.5680  -43.6720  -23.9970 C.2    19  GLU19       0.3649
     17  OE1       53.5440  -43.1700  -24.5060 O.co2  19  GLU19      -0.2457
     18  OE2       54.9240  -43.4490  -22.8200 O.co2  19  GLU19      -0.2457
     19  N         40.9250  -43.0580  -20.4490 N.3    45  VAL45      -0.1231
     20  CA        41.5230  -42.1650  -21.4400 C.3    45  VAL45       0.1692
     21  C         43.0250  -42.4030  -21.5410 C.2    45  VAL45       0.2591
     22  O         43.6050  -42.3540  -22.6330 O.2    45  VAL45      -0.2718
     23  CB        41.2020  -40.6980  -21.0970 C.3    45  VAL45       0.0266
     24  CG1       41.7670  -39.7630  -22.1560 C.3    45  VAL45       0.0020
     25  CG2       39.7010  -40.5060  -20.9510 C.3    45  VAL45       0.0020
     26  N         43.6750  -42.6720  -20.4070 N.am   46  GLU46      -0.1979
     27  CA        45.0960  -43.0070  -20.4240 C.3    46  GLU46       0.1602
     28  C         45.3440  -44.2940  -21.2040 C.2    46  GLU46       0.2287
     29  O         46.1540  -44.3220  -22.1370 O.2    46  GLU46      -0.2864
     30  CB        45.6140  -43.1280  -18.9910 C.3    46  GLU46       0.0415
     31  CG        47.0300  -43.6620  -18.8740 C.3    46  GLU46       0.1163
     32  CD        47.3730  -44.0730  -17.4550 C.2    46  GLU46       0.3649
     33  OE1       48.5610  -43.9930  -17.0810 O.co2  46  GLU46      -0.2457
     34  OE2       46.4520  -44.4770  -16.7140 O.co2  46  GLU46      -0.2457
     35  N         44.4230  -43.8560  -24.9650 N.3    49  ASN49      -0.1225
     36  CA        45.4810  -43.1890  -25.7150 C.3    49  ASN49       0.1785
     37  C         46.6850  -44.0990  -25.9180 C.2    49  ASN49       0.2597
     38  O         47.3600  -44.0090  -26.9500 O.2    49  ASN49      -0.2718
     39  CB        45.9010  -41.9080  -24.9960 C.3    49  ASN49       0.1169
     40  CG        44.8250  -40.8390  -25.0330 C.2    49  ASN49       0.2627
     41  OD1       43.7110  -41.0770  -25.5010 O.2    49  ASN49      -0.2716
     42  ND2       45.1510  -39.6560  -24.5270 N.am   49  ASN49      -0.0877
     43  N         46.9670  -44.9760  -24.9510 N.am   50  LEU50      -0.1980
     44  CA        48.0980  -45.8880  -25.0850 C.3    50  LEU50       0.1596
     45  C         47.9000  -46.8600  -26.2390 C.2    50  LEU50       0.2287
     46  O         48.8700  -47.2480  -26.8990 O.2    50  LEU50      -0.2864
     47  CB        48.3080  -46.6550  -23.7780 C.3    50  LEU50       0.0297
     48  CG        48.9950  -45.9250  -22.6230 C.3    50  LEU50       0.0022
     49  CD1       48.9820  -46.7840  -21.3710 C.3    50  LEU50       0.0001
     50  CD2       50.4170  -45.5440  -22.9900 C.3    50  LEU50       0.0001
     51  N         46.2530  -46.2340  -29.0380 N.3    52  SER52      -0.1202
     52  CA        46.4790  -45.5130  -30.2850 C.3    52  SER52       0.2020
     53  C         47.9690  -45.3560  -30.5550 C.2    52  SER52       0.2618
     54  O         48.4570  -45.7180  -31.6320 O.2    52  SER52      -0.2717
     55  CB        45.7960  -44.1460  -30.2350 C.3    52  SER52       0.2103
     56  OG        46.5310  -43.2430  -29.4270 O.3    52  SER52      -0.2182
     57  N         48.6870  -44.8210  -29.5730 N.am   53  VAL53      -0.1979
     58  CA        50.1240  -44.6150  -29.6940 C.3    53  VAL53       0.1595
     59  C         50.8300  -45.9080  -30.0850 C.2    53  VAL53       0.2287
     60  O         51.7050  -45.9090  -30.9490 O.2    53  VAL53      -0.2864
     61  CB        50.7310  -44.0850  -28.3820 C.3    53  VAL53       0.0276
     62  CG1       52.2420  -43.9680  -28.5080 C.3    53  VAL53       0.0022
     63  CG2       50.1140  -42.7440  -28.0160 C.3    53  VAL53       0.0022
     64  N         49.9120  -46.8440  -33.7000 N.3    56  LYS56      -0.1245
     65  CA        50.3910  -45.7770  -34.5760 C.3    56  LYS56       0.1561
     66  C         51.8390  -46.0120  -34.9490 C.2    56  LYS56       0.2260
     67  O         52.1640  -46.0730  -36.1190 O.2    56  LYS56      -0.2867
     68  CB        50.2520  -44.3940  -33.9370 C.3    56  LYS56       0.0271
     69  CG        50.6870  -43.2460  -34.8340 C.3    56  LYS56       0.0035
     70  CD        49.8170  -43.1560  -36.0760 C.3    56  LYS56       0.0206
     71  CE        50.2240  -41.9800  -36.9500 C.3    56  LYS56       0.1093
     72  NZ        50.1130  -40.6850  -36.2230 N.3    56  LYS56      -0.1314
     73  N         36.6570  -41.3070  -30.7110 N.3   126  PHE126     -0.1241
     74  CA        38.0270  -41.8050  -30.6380 C.3   126  PHE126      0.1605
     75  C         38.1790  -43.1260  -31.3820 C.2   126  PHE126      0.2264
     76  O         39.1650  -43.3350  -32.0990 O.2   126  PHE126     -0.2867
     77  CB        38.4490  -41.9600  -29.1760 C.3   126  PHE126      0.0534
     78  CG        39.8970  -42.3140  -28.9940 C.ar  126  PHE126     -0.0203
     79  CD1       40.8680  -41.3260  -28.9610 C.ar  126  PHE126     -0.0042
     80  CD2       40.2880  -43.6340  -28.8500 C.ar  126  PHE126     -0.0042
     81  CE1       42.2010  -41.6500  -28.7890 C.ar  126  PHE126     -0.0003
     82  CE2       41.6190  -43.9630  -28.6780 C.ar  126  PHE126     -0.0003
     83  CZ        42.5770  -42.9710  -28.6480 C.ar  126  PHE126     -0.0000
     84  N         37.0660  -42.6510  -35.3660 N.3   129  LYS129     -0.1231
     85  CA        38.1550  -42.0800  -36.1540 C.3   129  LYS129      0.1693
     86  C         39.2600  -43.1020  -36.3780 C.2   129  LYS129      0.2591
     87  O         39.8220  -43.1890  -37.4760 O.2   129  LYS129     -0.2718
     88  CB        38.7260  -40.8430  -35.4640 C.3   129  LYS129      0.0285
     89  CG        39.9830  -40.3180  -36.1430 C.3   129  LYS129      0.0035
     90  CD        40.8280  -39.4570  -35.2240 C.3   129  LYS129      0.0206
     91  CE        42.1550  -39.1290  -35.8930 C.3   129  LYS129      0.1093
     92  NZ        43.0720  -38.3520  -35.0200 N.3   129  LYS129     -0.1314
     93  N         39.5870  -43.8790  -35.3410 N.am  130  MET130     -0.1979
     94  CA        40.6590  -44.8620  -35.4520 C.3   130  MET130      0.1605
     95  C         40.3670  -45.8790  -36.5470 C.2   130  MET130      0.2287
     96  O         41.2810  -46.3190  -37.2540 O.2   130  MET130     -0.2864
     97  CB        40.8650  -45.5590  -34.1060 C.3   130  MET130      0.0413
     98  CG        42.0520  -46.5070  -34.0670 C.3   130  MET130      0.0598
     99  SD        42.3500  -47.1610  -32.4150 S.3   130  MET130     -0.1393
    100  CE        42.7010  -45.6480  -31.5250 C.3   130  MET130      0.0692
    101  N         41.2080  -44.3240  -39.8100 N.3   133  ASP133     -0.1239
    102  CA        42.6480  -44.1640  -39.9830 C.3   133  ASP133      0.1674
    103  C         43.2680  -45.4130  -40.5940 C.2   133  ASP133      0.2266
    104  O         43.9960  -45.3370  -41.5910 O.2   133  ASP133     -0.2867
    105  CB        43.3080  -43.8360  -38.6420 C.3   133  ASP133      0.1410
    106  CG        42.9910  -42.4320  -38.1640 C.2   133  ASP133      0.3668
    107  OD1       42.8210  -41.5360  -39.0170 O.co2 133  ASP133     -0.2456
    108  OD2       42.9200  -42.2220  -36.9350 O.co2 133  ASP133     -0.2456
    109  N         40.6770  -32.0170  -28.6280 N.3   174  PRO174     -0.2102
    110  CA        41.7630  -32.5910  -29.4420 C.3   174  PRO174      0.1504
    111  C         41.3090  -33.7120  -30.3610 C.2   174  PRO174      0.2575
    112  O         41.8200  -33.8320  -31.4820 O.2   174  PRO174     -0.2718
    113  CB        42.7650  -33.0910  -28.3880 C.3   174  PRO174      0.0282
    114  CG        42.4120  -32.3590  -27.1290 C.3   174  PRO174      0.0208
    115  CD        40.9330  -32.1500  -27.1840 C.3   174  PRO174      0.0893
    116  N         40.3590  -34.5410  -29.9200 N.am  175  ILE175     -0.1980
    117  CA        39.9250  -35.6680  -30.7400 C.3   175  ILE175      0.1595
    118  C         39.2020  -35.1790  -31.9900 C.2   175  ILE175      0.2287
    119  O         39.3360  -35.7680  -33.0700 O.2   175  ILE175     -0.2864
    120  CB        39.0480  -36.6230  -29.9100 C.3   175  ILE175      0.0276
    121  CG1       39.8040  -37.0920  -28.6660 C.3   175  ILE175      0.0022
    122  CG2       38.6160  -37.8160  -30.7450 C.3   175  ILE175      0.0022
    123  CD1       38.9920  -38.0020  -27.7710 C.3   175  ILE175      0.0001
    124  N         41.9010  -33.7910  -34.1940 N.3   178  GLY178     -0.1225
    125  CA        42.6290  -34.9190  -34.7480 C.3   178  GLY178      0.1811
    126  C         41.8530  -35.6130  -35.8500 C.2   178  GLY178      0.2280
    127  O         42.4300  -36.0470  -36.8510 O.2   178  GLY178     -0.2866
    128  N         47.5460  -27.2420  -24.8830 N.3   221  LYS221     -0.1231
    129  CA        48.7790  -27.7990  -25.4260 C.3   221  LYS221      0.1693
    130  C         48.4830  -29.0780  -26.1950 C.2   221  LYS221      0.2592
    131  O         49.1660  -29.3980  -27.1750 O.2   221  LYS221     -0.2718
    132  CB        49.7740  -28.0650  -24.2930 C.3   221  LYS221      0.0285
    133  CG        51.0680  -28.7420  -24.7180 C.3   221  LYS221      0.0035
    134  CD        51.8060  -27.9290  -25.7700 C.3   221  LYS221      0.0206
    135  CE        52.9850  -28.7030  -26.3380 C.3   221  LYS221      0.1093
    136  NZ        53.7030  -27.9310  -27.3910 N.3   221  LYS221     -0.1314
    137  N         47.3960  -29.7370  -25.8150 N.am  222  ASP222     -0.1974
    138  CA        46.9540  -30.9570  -26.4730 C.3   222  ASP222      0.1709
    139  C         46.3860  -30.6600  -27.8650 C.2   222  ASP222      0.2293
    140  O         46.5720  -31.4430  -28.7970 O.2   222  ASP222     -0.2864
    141  CB        45.8980  -31.6530  -25.6110 C.3   222  ASP222      0.1436
    142  CG        45.3500  -32.9090  -26.2540 C.2   222  ASP222      0.3671
    143  OD1       45.9340  -33.3720  -27.2530 O.co2 222  ASP222     -0.2456
    144  OD2       44.3350  -33.4380  -25.7550 O.co2 222  ASP222     -0.2456
    145  N         48.9710  -28.3800  -30.5960 N.3   225  LEU225     -0.1231
    146  CA        49.7840  -29.2550  -31.4320 C.3   225  LEU225      0.1693
    147  C         49.0420  -29.6120  -32.7140 C.2   225  LEU225      0.2591
    148  O         49.5890  -29.4970  -33.8170 O.2   225  LEU225     -0.2718
    149  CB        50.1640  -30.5140  -30.6460 C.3   225  LEU225      0.0284
    150  CG        51.1590  -31.5250  -31.2300 C.3   225  LEU225      0.0019
    151  CD1       50.4860  -32.5310  -32.1600 C.3   225  LEU225      0.0001
    152  CD2       52.2930  -30.8060  -31.9470 C.3   225  LEU225      0.0001
    153  N         47.7830  -30.0380  -32.5840 N.am  226  ILE226     -0.1980
    154  CA        47.0010  -30.4280  -33.7530 C.3   226  ILE226      0.1595
    155  C         46.6300  -29.2060  -34.5830 C.2   226  ILE226      0.2287
    156  O         46.6380  -29.2530  -35.8190 O.2   226  ILE226     -0.2864
    157  CB        45.7540  -31.2160  -33.3180 C.3   226  ILE226      0.0276
    158  CG1       46.1520  -32.4020  -32.4390 C.3   226  ILE226      0.0022
    159  CG2       44.9800  -31.6970  -34.5330 C.3   226  ILE226      0.0022
    160  CD1       44.9800  -33.2430  -31.9880 C.3   226  ILE226      0.0001
@<TRIPOS>BOND
     1   104   103    2
     2   103   102    1
     3   102   101    1
     4   102   105    1
     5   107   106   ar
     6   105   106    1
     7   106   108   ar
     8    87    86    2
     9    96    95    2
    10    71    72    1
    11    71    70    1
    12   127   126    2
    13    95    94    1
    14    86    85    1
    15    86    93   am
    16    85    88    1
    17    85    84    1
    18    89    88    1
    19    89    90    1
    20    67    66    2
    21    70    69    1
    22    91    90    1
    23    91    92    1
    24   126   125    1
    25   156   155    2
    26    94    93    1
    27    94    97    1
    28    66    65    1
    29    69    68    1
    30   125   124    1
    31   155   154    1
    32    65    68    1
    33    65    64    1
    34   159   157    1
    35    97    98    1
    36    98    99    1
    37   148   147    2
    38   154   157    1
    39   154   153    1
    40   157   158    1
    41   119   118    2
    42   147   153   am
    43   147   146    1
    44   158   160    1
    45    99   100    1
    46   151   150    1
    47    76    75    2
    48   118   117    1
    49   152   150    1
    50    54    53    2
    51   112   111    2
    52   146   149    1
    53   146   145    1
    54    75    74    1
    55   150   149    1
    56    60    59    2
    57   122   120    1
    58   117   116    1
    59   117   120    1
    60    73    74    1
    61    74    77    1
    62    53    52    1
    63    53    57   am
    64   111   116   am
    65   111   110    1
    66    52    55    1
    67    52    51    1
    68    55    56    1
    69    59    58    1
    70   120   121    1
    71    58    57    1
    72    58    61    1
    73   110   109    1
    74   110   113    1
    75    77    78    1
    76    78    79   ar
    77    78    80   ar
    78    79    81   ar
    79    80    82   ar
    80   140   139    2
    81    81    83   ar
    82    82    83   ar
    83   121   123    1
    84   109   115    1
    85    62    61    1
    86   113   114    1
    87    61    63    1
    88   139   138    1
    89   136   135    1
    90   143   142   ar
    91   115   114    1
    92   131   130    2
    93    38    37    2
    94    46    45    2
    95   138   137    1
    96   138   141    1
    97   135   134    1
    98   142   144   ar
    99   142   141    1
   100    45    44    1
   101   130   137   am
   102   130   129    1
   103    37    36    1
   104    37    43   am
   105    13    12    2
   106   134   133    1
   107    36    39    1
   108    36    35    1
   109    41    40    2
   110   129   128    1
   111   129   132    1
   112    44    43    1
   113    44    47    1
   114    40    39    1
   115    40    42   am
   116    11    12    1
   117    11    14    1
   118    11    10    1
   119    15    14    1
   120    15    16    1
   121   133   132    1
   122    17    16   ar
   123    16    18   ar
   124    47    48    1
   125    50    48    1
   126    22    21    2
   127    48    49    1
   128    24    23    1
   129    29    28    2
   130    21    20    1
   131    21    26   am
   132    20    23    1
   133    20    19    1
   134    28    27    1
   135     4     3    2
   136    23    25    1
   137     1     2    1
   138     3     2    1
   139     2     5    1
   140    27    26    1
   141    27    30    1
   142     5     6    1
   143     6     7    1
   144    30    31    1
   145    31    32    1
   146     7     8    1
   147    32    33   ar
   148    32    34   ar
   149     8     9    1
