@<TRIPOS>MOLECULE
tmp/5nwlD01.pdb
 78 80 0 0 0
SMALL
GASTEIGER

@<TRIPOS>ATOM
      1  N        128.0350   11.3100  283.9570 N.3   256  ALA256     -0.1231
      2  CA       126.6020   11.5310  283.8060 C.3   256  ALA256      0.1694
      3  C        125.8320   10.9240  284.9720 C.2   256  ALA256      0.2592
      4  O        125.2960   11.6510  285.8150 O.2   256  ALA256     -0.2718
      5  CB       126.1060   10.9520  282.4800 C.3   256  ALA256      0.0304
      6  N        125.7710    9.5930  285.0290 N.am  257  HIS257     -0.1976
      7  CA       125.0660    8.9240  286.1150 C.3   257  HIS257      0.1656
      8  C        125.8860    8.8630  287.3970 C.2   257  HIS257      0.2291
      9  O        125.3130    8.6450  288.4710 O.2   257  HIS257     -0.2864
     10  CB       124.6620    7.5100  285.6920 C.3   257  HIS257      0.0771
     11  CG       125.8120    6.6550  285.2600 C.ar  257  HIS257      0.0820
     12  ND1      126.2410    6.5920  283.9520 N.ar  257  HIS257     -0.2267
     13  CD2      126.6190    5.8240  285.9610 C.ar  257  HIS257      0.1154
     14  CE1      127.2640    5.7610  283.8660 C.ar  257  HIS257      0.1986
     15  NE2      127.5140    5.2820  285.0710 N.ar  257  HIS257     -0.2212
     16  N        122.0590   21.8150  286.7500 N.3   278  TYR278     -0.1227
     17  CA       121.9310   21.1490  285.4600 C.3   278  TYR278      0.1736
     18  C        121.1010   19.8770  285.5800 C.2   278  TYR278      0.2595
     19  O        119.8980   19.8870  285.3010 O.2   278  TYR278     -0.2718
     20  CB       123.3120   20.8310  284.8830 C.3   278  TYR278      0.0548
     21  CG       123.3400   20.7620  283.3730 C.ar  278  TYR278     -0.0200
     22  CD1      123.1930   21.9080  282.6030 C.ar  278  TYR278     -0.0009
     23  CD2      123.5150   19.5500  282.7160 C.ar  278  TYR278     -0.0009
     24  CE1      123.2180   21.8510  281.2220 C.ar  278  TYR278      0.0417
     25  CE2      123.5420   19.4820  281.3360 C.ar  278  TYR278      0.0417
     26  CZ       123.3930   20.6350  280.5940 C.ar  278  TYR278      0.1957
     27  OH       123.4180   20.5730  279.2200 O.3   278  TYR278     -0.2866
     28  N        121.7310   18.7810  285.9910 N.am  279  ASP279     -0.1960
     29  CA       121.0570   17.4970  286.1330 C.3   279  ASP279      0.1840
     30  C        120.8080   17.2040  287.6060 C.2   279  ASP279      0.2623
     31  O        121.7120   17.3510  288.4360 O.2   279  ASP279     -0.2715
     32  CB       121.8870   16.3760  285.5050 C.3   279  ASP279      0.1450
     33  CG       121.2480   15.0120  285.6790 C.2   279  ASP279      0.3671
     34  OD1      120.2360   14.7370  285.0010 O.co2 279  ASP279     -0.2456
     35  OD2      121.7580   14.2160  286.4950 O.co2 279  ASP279     -0.2456
     36  N        119.5840   16.7820  287.9210 N.am  280  SER280     -0.1936
     37  CA       119.1990   16.4310  289.2820 C.3   280  SER280      0.2040
     38  C        117.8810   15.6670  289.2770 C.2   280  SER280      0.2485
     39  O        116.9840   15.9810  288.4850 O.2   280  SER280     -0.2729
     40  CB       119.0800   17.6820  290.1540 C.3   280  SER280      0.2129
     41  OG       118.6740   17.3410  291.4660 O.3   280  SER280     -0.2179
     42  N        117.7230   14.6600  290.1430 N.am  281  PRO281     -0.2715
     43  CA       116.4460   13.9330  290.1910 C.3   281  PRO281      0.1536
     44  C        115.3780   14.6250  291.0190 C.2   281  PRO281      0.2599
     45  O        114.1880   14.3500  290.8120 O.2   281  PRO281     -0.2715
     46  CB       116.8380   12.5880  290.8130 C.3   281  PRO281      0.0310
     47  CG       117.9910   12.9280  291.7000 C.3   281  PRO281      0.0237
     48  CD       118.7340   14.0660  291.0350 C.3   281  PRO281      0.0939
     49  N        115.7580   15.5080  291.9450 N.am  282  CYS282     -0.1954
     50  CA       114.8080   16.1900  292.8110 C.3   282  CYS282      0.1843
     51  C        114.8220   17.7040  292.6720 C.2   282  CYS282      0.2625
     52  O        113.8040   18.3400  292.9690 O.2   282  CYS282     -0.2714
     53  CB       115.0730   15.8310  294.2830 C.3   282  CYS282      0.0997
     54  SG       113.8690   16.4870  295.4630 S.3   282  CYS282     -0.0797
     55  N        115.9250   18.2980  292.2230 N.am  283  LEU283     -0.1964
     56  CA       115.9600   19.7540  292.1840 C.3   283  LEU283      0.1713
     57  C        115.4990   20.2620  290.8200 C.2   283  LEU283      0.2458
     58  O        115.8940   19.7140  289.7860 O.2   283  LEU283     -0.2730
     59  CB       117.3700   20.2660  292.4700 C.3   283  LEU283      0.0310
     60  CG       118.1060   19.5860  293.6300 C.3   283  LEU283      0.0022
     61  CD1      119.5080   20.1510  293.8050 C.3   283  LEU283      0.0001
     62  CD2      117.3160   19.6990  294.9220 C.3   283  LEU283      0.0001
     63  N        114.6690   21.3000  290.7960 N.am  284  PRO284     -0.2716
     64  CA       114.2040   21.8510  289.5220 C.3   284  PRO284      0.1536
     65  C        115.2310   22.7860  288.9000 C.2   284  PRO284      0.2598
     66  O        116.1010   23.3430  289.5710 O.2   284  PRO284     -0.2715
     67  CB       112.9350   22.6130  289.9140 C.3   284  PRO284      0.0310
     68  CG       113.1970   23.0470  291.3170 C.3   284  PRO284      0.0237
     69  CD       114.0370   21.9630  291.9510 C.3   284  PRO284      0.0939
     70  N        115.1130   22.9440  287.5840 N.am  285  GLU285     -0.1978
     71  CA       115.9920   23.8350  286.8290 C.3   285  GLU285      0.1602
     72  C        115.7170   25.2730  287.2460 C.2   285  GLU285      0.2287
     73  O        114.7160   25.8720  286.8460 O.2   285  GLU285     -0.2864
     74  CB       115.7870   23.6490  285.3310 C.3   285  GLU285      0.0415
     75  CG       116.5880   22.5080  284.7290 C.3   285  GLU285      0.1163
     76  CD       116.4880   22.4640  283.2170 C.2   285  GLU285      0.3649
     77  OE1      115.9590   23.4300  282.6270 O.co2 285  GLU285     -0.2457
     78  OE2      116.9390   21.4660  282.6170 O.co2 285  GLU285     -0.2457
@<TRIPOS>BOND
     1    27    26    1
     2    26    24   ar
     3    26    25   ar
     4    24    22   ar
     5    25    23   ar
     6     5     2    1
     7    22    21   ar
     8    78    76   ar
     9    77    76   ar
    10    23    21   ar
    11    76    75    1
    12    21    20    1
    13     2     1    1
    14     2     3    1
    15    14    12   ar
    16    14    15   ar
    17    12    11   ar
    18    75    74    1
    19    20    17    1
    20     3     6   am
    21     3     4    2
    22    34    33   ar
    23     6     7    1
    24    15    13   ar
    25    11    10    1
    26    11    13   ar
    27    19    18    2
    28    74    71    1
    29    17    18    1
    30    17    16    1
    31    32    33    1
    32    32    29    1
    33    18    28   am
    34    33    35   ar
    35    10     7    1
    36    28    29    1
    37     7     8    1
    38    29    30    1
    39    71    72    1
    40    71    70    1
    41    73    72    2
    42     8     9    2
    43    70    65   am
    44    30    36   am
    45    30    31    2
    46    36    37    1
    47    39    38    2
    48    65    64    1
    49    65    66    2
    50    38    37    1
    51    38    42   am
    52    37    40    1
    53    64    67    1
    54    64    63    1
    55    58    57    2
    56    67    68    1
    57    42    43    1
    58    42    48    1
    59    40    41    1
    60    43    46    1
    61    43    44    1
    62    63    57   am
    63    63    69    1
    64    45    44    2
    65    46    47    1
    66    57    56    1
    67    44    49   am
    68    48    47    1
    69    68    69    1
    70    49    50    1
    71    56    55    1
    72    56    59    1
    73    55    51   am
    74    59    60    1
    75    51    50    1
    76    51    52    2
    77    50    53    1
    78    60    61    1
    79    60    62    1
    80    53    54    1
