@<TRIPOS>MOLECULE
tmp/5nwlD00.pdb
 143 135 0 0 0
SMALL
GASTEIGER

@<TRIPOS>ATOM
      1  N        136.7800   29.2350  283.9320 N.3   109  PHE109     -0.1227
      2  CA       137.7910   29.6780  284.8790 C.3   109  PHE109      0.1736
      3  C        137.3610   30.9880  285.5290 C.2   109  PHE109      0.2595
      4  O        136.5820   31.7610  284.9630 O.2   109  PHE109     -0.2718
      5  CB       139.1440   29.8470  284.1850 C.3   109  PHE109      0.0547
      6  CG       139.1340   30.8480  283.0620 C.ar  109  PHE109     -0.0202
      7  CD1      139.4990   32.1660  283.2870 C.ar  109  PHE109     -0.0042
      8  CD2      138.7670   30.4700  281.7810 C.ar  109  PHE109     -0.0042
      9  CE1      139.4920   33.0880  282.2580 C.ar  109  PHE109     -0.0003
     10  CE2      138.7590   31.3880  280.7470 C.ar  109  PHE109     -0.0003
     11  CZ       139.1220   32.6980  280.9860 C.ar  109  PHE109     -0.0000
     12  N        137.8640   31.2210  286.7420 N.am  110  ARG110     -0.1966
     13  CA       137.6010   32.4160  287.5420 C.3   110  ARG110      0.1729
     14  C        136.1430   32.5210  287.9800 C.2   110  ARG110      0.2617
     15  O        135.7490   33.5380  288.5650 O.2   110  ARG110     -0.2715
     16  CB       138.0190   33.6920  286.7960 C.3   110  ARG110      0.0348
     17  CG       138.3570   34.8810  287.6820 C.3   110  ARG110      0.0492
     18  CD       138.9880   35.9970  286.8680 C.3   110  ARG110      0.2205
     19  NE       138.1440   36.4000  285.7470 N.pl3 110  ARG110     -0.0865
     20  CZ       137.2810   37.4090  285.7810 C.cat 110  ARG110      0.5346
     21  NH1      137.1400   38.1300  286.8850 N.pl3 110  ARG110      0.1354
     22  NH2      136.5590   37.6980  284.7070 N.pl3 110  ARG110      0.1354
     23  N        135.3270   31.4960  287.7210 N.am  111  THR111     -0.1937
     24  CA       133.9330   31.5390  288.1500 C.3   111  THR111      0.2028
     25  C        133.8130   31.3910  289.6620 C.2   111  THR111      0.2643
     26  O        133.0350   32.1090  290.3000 O.2   111  THR111     -0.2714
     27  CB       133.1220   30.4550  287.4390 C.3   111  THR111      0.1808
     28  OG1      133.8120   29.2020  287.5240 O.3   111  THR111     -0.2208
     29  CG2      132.9040   30.8210  285.9770 C.3   111  THR111      0.0379
     30  N        134.5660   30.4680  290.2530 N.am  112  GLY112     -0.1939
     31  CA       134.5300   30.3010  291.6920 C.3   112  GLY112      0.2014
     32  C        134.4020   28.8660  292.1580 C.2   112  GLY112      0.2639
     33  O        133.8700   28.6090  293.2420 O.2   112  GLY112     -0.2714
     34  N        134.8790   27.9180  291.3470 N.am  113  LYS113     -0.1963
     35  CA       134.8280   26.5150  291.7480 C.3   113  LYS113      0.1728
     36  C        135.7000   26.2600  292.9710 C.2   113  LYS113      0.2617
     37  O        135.2890   25.5540  293.9000 O.2   113  LYS113     -0.2715
     38  CB       135.2580   25.6180  290.5870 C.3   113  LYS113      0.0311
     39  CG       134.4210   25.7790  289.3280 C.3   113  LYS113      0.0038
     40  CD       134.8520   24.7980  288.2490 C.3   113  LYS113      0.0206
     41  CE       136.3150   24.9860  287.8830 C.3   113  LYS113      0.1093
     42  NZ       136.5900   26.3570  287.3700 N.3   113  LYS113     -0.1314
     43  N        136.9100   26.8250  292.9880 N.am  114  THR114     -0.1937
     44  CA       137.8050   26.6300  294.1240 C.3   114  THR114      0.2028
     45  C        137.3170   27.3710  295.3640 C.2   114  THR114      0.2642
     46  O        137.4830   26.8770  296.4850 O.2   114  THR114     -0.2714
     47  CB       139.2200   27.0830  293.7560 C.3   114  THR114      0.1808
     48  OG1      139.6420   26.4120  292.5630 O.3   114  THR114     -0.2208
     49  CG2      140.1970   26.7600  294.8750 C.3   114  THR114      0.0379
     50  N        136.7080   28.5470  295.1850 N.am  115  GLN115     -0.1976
     51  CA       136.2360   29.3210  296.3300 C.3   115  GLN115      0.1601
     52  C        135.1080   28.6070  297.0650 C.2   115  GLN115      0.2287
     53  O        135.0470   28.6430  298.3000 O.2   115  GLN115     -0.2864
     54  CB       135.7850   30.7080  295.8750 C.3   115  GLN115      0.0394
     55  CG       136.9010   31.5630  295.3040 C.3   115  GLN115      0.0908
     56  CD       138.0000   31.8370  296.3130 C.2   115  GLN115      0.2608
     57  OE1      137.7380   32.0040  297.5050 O.2   115  GLN115     -0.2717
     58  NE2      139.2400   31.8850  295.8390 N.am  115  GLN115     -0.0878
     59  N        145.5100   21.7640  291.1570 N.3   143  GLU143     -0.1245
     60  CA       145.8990   22.9910  290.4780 C.3   143  GLU143      0.1567
     61  C        146.9350   23.8060  291.2410 C.2   143  GLU143      0.2260
     62  O        147.4880   24.7540  290.6750 O.2   143  GLU143     -0.2867
     63  CB       144.6650   23.8670  290.2240 C.3   143  GLU143      0.0388
     64  CG       143.5060   23.1520  289.5450 C.3   143  GLU143      0.1160
     65  CD       143.7020   22.9930  288.0500 C.2   143  GLU143      0.3649
     66  OE1      144.7900   23.3430  287.5450 O.co2 143  GLU143     -0.2457
     67  OE2      142.7610   22.5260  287.3770 O.co2 143  GLU143     -0.2457
     68  N        146.0680   25.6050  293.8280 N.3   145  THR145     -0.1218
     69  CA       145.3120   26.7890  294.2080 C.3   145  THR145      0.1862
     70  C        144.7690   26.7190  295.6300 C.2   145  THR145      0.2287
     71  O        143.8950   27.5160  295.9870 O.2   145  THR145     -0.2866
     72  CB       144.1580   27.0120  293.2270 C.3   145  THR145      0.1770
     73  OG1      143.3110   25.8570  293.2130 O.3   145  THR145     -0.2211
     74  CG2      144.6920   27.2560  291.8240 C.3   145  THR145      0.0375
     75  N        142.4600   31.6170  303.0350 N.3   150  ARG150     -0.1245
     76  CA       141.0370   31.7370  302.7440 C.3   150  ARG150      0.1563
     77  C        140.1940   30.9650  303.7500 C.2   150  ARG150      0.2260
     78  O        139.0580   31.3600  304.0370 O.2   150  ARG150     -0.2867
     79  CB       140.7450   31.2530  301.3230 C.3   150  ARG150      0.0307
     80  CG       141.2630   32.1800  300.2370 C.3   150  ARG150      0.0489
     81  CD       140.6120   33.5500  300.3390 C.3   150  ARG150      0.2205
     82  NE       139.1670   33.4830  300.1410 N.pl3 150  ARG150     -0.0865
     83  CZ       138.3230   34.4630  300.4470 C.cat 150  ARG150      0.5346
     84  NH1      138.7780   35.5930  300.9720 N.pl3 150  ARG150      0.1354
     85  NH2      137.0230   34.3140  300.2330 N.pl3 150  ARG150      0.1354
     86  N        139.7320   19.0230  293.4850 N.3   202  ASP202     -0.1239
     87  CA       139.8110   20.1910  292.6130 C.3   202  ASP202      0.1674
     88  C        141.2110   20.2580  292.0170 C.2   202  ASP202      0.2266
     89  O        142.1690   20.6020  292.7170 O.2   202  ASP202     -0.2867
     90  CB       139.4840   21.4730  293.3800 C.3   202  ASP202      0.1410
     91  CG       139.6790   22.7210  292.5410 C.2   202  ASP202      0.3668
     92  OD1      139.1650   22.7650  291.4040 O.co2 202  ASP202     -0.2456
     93  OD2      140.3510   23.6600  293.0200 O.co2 202  ASP202     -0.2456
     94  N        136.4940   21.8530  284.5850 N.3   248  GLN248     -0.1245
     95  CA       136.5860   22.9800  283.6670 C.3   248  GLN248      0.1566
     96  C        136.0100   22.5750  282.3170 C.2   248  GLN248      0.2260
     97  O        136.3730   21.5280  281.7700 O.2   248  GLN248     -0.2867
     98  CB       138.0350   23.4420  283.5080 C.3   248  GLN248      0.0367
     99  CG       138.6970   23.8830  284.8000 C.3   248  GLN248      0.0905
    100  CD       140.1370   24.3090  284.5950 C.2   248  GLN248      0.2608
    101  OE1      140.7750   23.9290  283.6130 O.2   248  GLN248     -0.2717
    102  NE2      140.6570   25.1010  285.5240 N.am  248  GLN248     -0.0878
    103  N        132.1690   41.1240  291.5430 N.3   271  GLU271     -0.1245
    104  CA       132.4780   39.8820  292.2370 C.3   271  GLU271      0.1567
    105  C        131.2770   38.9530  292.3540 C.2   271  GLU271      0.2260
    106  O        131.3930   37.8890  292.9710 O.2   271  GLU271     -0.2867
    107  CB       133.0320   40.1780  293.6360 C.3   271  GLU271      0.0388
    108  CG       131.9860   40.6200  294.6560 C.3   271  GLU271      0.1160
    109  CD       131.4150   41.9950  294.3660 C.2   271  GLU271      0.3649
    110  OE1      132.1040   42.8010  293.7060 O.co2 271  GLU271     -0.2457
    111  OE2      130.2760   42.2700  294.7990 O.co2 271  GLU271     -0.2457
    112  N        128.4550   36.2030  291.2580 N.3   273  ARG273     -0.1245
    113  CA       128.4340   35.0080  290.4290 C.3   273  ARG273      0.1563
    114  C        127.0210   34.4440  290.3780 C.2   273  ARG273      0.2260
    115  O        126.2210   34.6460  291.2960 O.2   273  ARG273     -0.2867
    116  CB       129.4020   33.9410  290.9560 C.3   273  ARG273      0.0307
    117  CG       130.8500   34.3940  291.0440 C.3   273  ARG273      0.0489
    118  CD       131.4120   34.7390  289.6760 C.3   273  ARG273      0.2205
    119  NE       132.8610   34.9190  289.7130 N.pl3 273  ARG273     -0.0865
    120  CZ       133.4660   36.0750  289.9700 C.cat 273  ARG273      0.5346
    121  NH1      132.7470   37.1610  290.2130 N.pl3 273  ARG273      0.1354
    122  NH2      134.7900   36.1440  289.9830 N.pl3 273  ARG273      0.1354
    123  N        131.3210   36.6040  296.0070 N.3   292  ILE292     -0.1231
    124  CA       132.5500   36.1080  296.6150 C.3   292  ILE292      0.1692
    125  C        133.1080   37.2500  297.4540 C.2   292  ILE292      0.2592
    126  O        133.6750   38.2090  296.9180 O.2   292  ILE292     -0.2718
    127  CB       133.5660   35.6330  295.5700 C.3   292  ILE292      0.0266
    128  CG1      132.9400   34.5720  294.6610 C.3   292  ILE292      0.0019
    129  CG2      134.8150   35.0900  296.2470 C.3   292  ILE292      0.0020
    130  CD1      133.8530   34.1050  293.5470 C.3   292  ILE292      0.0001
    131  N        132.9490   37.1540  298.7710 N.am  293  ASN293     -0.1960
    132  CA       133.4080   38.1780  299.6940 C.3   293  ASN293      0.1819
    133  C        134.6770   37.7140  300.4040 C.2   293  ASN293      0.2621
    134  O        135.1430   36.5850  300.2320 O.2   293  ASN293     -0.2715
    135  CB       132.3070   38.5230  300.7000 C.3   293  ASN293      0.1195
    136  CG       131.0480   39.0470  300.0330 C.2   293  ASN293      0.2630
    137  OD1      131.1060   39.6630  298.9690 O.2   293  ASN293     -0.2716
    138  ND2      129.9020   38.8040  300.6590 N.am  293  ASN293     -0.0877
    139  N        135.2510   38.6120  301.2080 N.am  294  ALA294     -0.1977
    140  CA       136.4320   38.2560  301.9860 C.3   294  ALA294      0.1597
    141  C        136.1180   37.1910  303.0280 C.2   294  ALA294      0.2287
    142  O        137.0100   36.4370  303.4300 O.2   294  ALA294     -0.2864
    143  CB       137.0190   39.4980  302.6560 C.3   294  ALA294      0.0319
@<TRIPOS>BOND
     1    10    11   ar
     2    10     8   ar
     3    11     9   ar
     4    97    96    2
     5     8     6   ar
     6     9     7   ar
     7    96    95    1
     8     6     7   ar
     9     6     5    1
    10    98    95    1
    11    98    99    1
    12   101   100    2
    13    95    94    1
    14     1     2    1
    15     5     2    1
    16   100    99    1
    17   100   102   am
    18    22    20    1
    19     2     3    1
    20     4     3    2
    21     3    12   am
    22    19    20    2
    23    19    18    1
    24    20    21    1
    25    29    27    1
    26    12    13    1
    27    16    13    1
    28    16    17    1
    29    18    17    1
    30    42    41    1
    31    67    65   ar
    32    27    28    1
    33    27    24    1
    34    13    14    1
    35    66    65   ar
    36    23    14   am
    37    23    24    1
    38    41    40    1
    39    14    15    2
    40    65    64    1
    41    24    25    1
    42    40    39    1
    43    39    38    1
    44    64    63    1
    45    25    30   am
    46    25    26    2
    47   118   119    1
    48   118   117    1
    49   119   120    2
    50   120   122    1
    51   120   121    1
    52    63    60    1
    53    30    31    1
    54   114   113    1
    55   114   115    2
    56   113   116    1
    57   113   112    1
    58    60    59    1
    59    60    61    1
    60    38    35    1
    61    62    61    2
    62   116   117    1
    63    34    35    1
    64    34    32   am
    65    92    91   ar
    66   103   104    1
    67    31    32    1
    68    35    36    1
    69    74    72    1
    70    88    87    1
    71    88    89    2
    72    32    33    2
    73   104   105    1
    74   104   107    1
    75   105   106    2
    76    91    93   ar
    77    91    90    1
    78    48    47    1
    79    87    90    1
    80    87    86    1
    81    36    43   am
    82    36    37    2
    83    43    44    1
    84    73    72    1
    85    72    69    1
    86   130   128    1
    87   107   108    1
    88   110   109   ar
    89    47    44    1
    90    47    49    1
    91    68    69    1
    92    44    45    1
    93    69    70    1
    94   109   108    1
    95   109   111   ar
    96   128   127    1
    97    50    45   am
    98    50    51    1
    99    55    54    1
   100    55    56    1
   101    45    46    2
   102   127   129    1
   103   127   124    1
   104    70    71    2
   105    58    56   am
   106    54    51    1
   107   123   124    1
   108    56    57    2
   109    51    52    1
   110   124   125    1
   111   126   125    2
   112    52    53    2
   113   125   131   am
   114   131   132    1
   115   137   136    2
   116   132   133    1
   117   132   135    1
   118   136   138   am
   119   136   135    1
   120    82    81    1
   121    82    83    2
   122   134   133    2
   123    85    83    1
   124    80    81    1
   125    80    79    1
   126   133   139   am
   127    83    84    1
   128   139   140    1
   129    79    76    1
   130   140   143    1
   131   140   141    1
   132    76    75    1
   133    76    77    1
   134   141   142    2
   135    77    78    2
