@<TRIPOS>MOLECULE
tmp/5nwoA00.pdb
 180 174 0 0 0
SMALL
GASTEIGER

@<TRIPOS>ATOM
      1  N         -9.0900   -5.7590  -32.3610 N.3    53  HIS53      -0.1226
      2  CA        -8.4310   -4.8700  -33.3100 C.3    53  HIS53       0.1752
      3  C         -6.9170   -5.0220  -33.3430 C.2    53  HIS53       0.2595
      4  O         -6.2910   -4.5830  -34.3140 O.2    53  HIS53      -0.2718
      5  CB        -8.7950   -3.4090  -33.0120 C.3    53  HIS53       0.0759
      6  CG        -8.2540   -2.9060  -31.7110 C.ar   53  HIS53       0.0818
      7  ND1       -8.9250   -3.0440  -30.5170 N.ar   53  HIS53      -0.2268
      8  CD2       -7.0890   -2.2800  -31.4170 C.ar   53  HIS53       0.1154
      9  CE1       -8.2020   -2.5210  -29.5420 C.ar   53  HIS53       0.1986
     10  NE2       -7.0820   -2.0520  -30.0620 N.ar   53  HIS53      -0.2212
     11  N         -6.3100   -5.6080  -32.3150 N.am   54  ARG54      -0.1980
     12  CA        -4.8580   -5.7790  -32.2790 C.3    54  ARG54       0.1597
     13  C         -4.5660   -7.1620  -31.7260 C.2    54  ARG54       0.2287
     14  O         -4.8940   -7.4490  -30.5690 O.2    54  ARG54      -0.2864
     15  CB        -4.1880   -4.6990  -31.4160 C.3    54  ARG54       0.0334
     16  CG        -2.6950   -4.9440  -31.2120 C.3    54  ARG54       0.0492
     17  CD        -2.1290   -3.9840  -30.2010 C.3    54  ARG54       0.2205
     18  NE        -2.0330   -2.6330  -30.7390 N.pl3  54  ARG54      -0.0865
     19  CZ        -2.1330   -1.5340  -29.9990 C.cat  54  ARG54       0.5346
     20  NH1       -2.0170   -0.3360  -30.5610 N.pl3  54  ARG54       0.1354
     21  NH2       -2.3540   -1.6280  -28.6950 N.pl3  54  ARG54       0.1354
     22  N         -1.4150   -9.9080  -31.5210 N.3    56  ILE56      -0.1245
     23  CA         0.0240  -10.0970  -31.7010 C.3    56  ILE56       0.1561
     24  C          0.3790  -11.5010  -31.2350 C.2    56  ILE56       0.2260
     25  O          0.2930  -11.7920  -30.0330 O.2    56  ILE56      -0.2867
     26  CB         0.8390   -9.0380  -30.9460 C.3    56  ILE56       0.0252
     27  CG1        0.4920   -7.6460  -31.4870 C.3    56  ILE56       0.0019
     28  CG2        2.3440   -9.3240  -31.0910 C.3    56  ILE56       0.0019
     29  CD1        1.1370   -6.4910  -30.7330 C.3    56  ILE56       0.0001
     30  N          1.9830  -12.9980  -27.6980 N.3    59  PHE59      -0.1227
     31  CA         1.8280  -11.8580  -26.8010 C.3    59  PHE59       0.1736
     32  C          0.4010  -11.8310  -26.2580 C.2    59  PHE59       0.2595
     33  O          0.1560  -12.3180  -25.1460 O.2    59  PHE59      -0.2718
     34  CB         2.2110  -10.5590  -27.5300 C.3    59  PHE59       0.0547
     35  CG         2.1280   -9.2980  -26.6730 C.ar   59  PHE59      -0.0202
     36  CD1        2.0460   -9.3630  -25.2940 C.ar   59  PHE59      -0.0042
     37  CD2        2.1450   -8.0420  -27.2780 C.ar   59  PHE59      -0.0042
     38  CE1        1.9520   -8.2010  -24.5240 C.ar   59  PHE59      -0.0003
     39  CE2        2.0600   -6.8690  -26.5140 C.ar   59  PHE59      -0.0003
     40  CZ         1.9710   -6.9500  -25.1390 C.ar   59  PHE59      -0.0000
     41  N         -0.5460  -11.2950  -27.0300 N.am   60  MET60      -0.1979
     42  CA        -1.9060  -11.1270  -26.5280 C.3    60  MET60       0.1605
     43  C         -2.8660  -10.7650  -27.6610 C.2    60  MET60       0.2287
     44  O         -2.4500  -10.3790  -28.7590 O.2    60  MET60      -0.2864
     45  CB        -1.9540  -10.0710  -25.4110 C.3    60  MET60       0.0413
     46  CG        -1.5020   -8.6650  -25.8400 C.3    60  MET60       0.0598
     47  SD        -2.7800   -7.7190  -26.6920 S.3    60  MET60      -0.1393
     48  CE        -1.8860   -7.1440  -28.1380 C.3    60  MET60       0.0692
     49  N         -6.1490   -8.2130  -28.1990 N.3    62  GLN62      -0.1245
     50  CA        -6.7290   -7.0120  -27.5950 C.3    62  GLN62       0.1566
     51  C         -8.0440   -6.6450  -28.2750 C.2    62  GLN62       0.2260
     52  O         -8.1470   -6.6740  -29.5090 O.2    62  GLN62      -0.2867
     53  CB        -5.7490   -5.8310  -27.6990 C.3    62  GLN62       0.0367
     54  CG        -6.2160   -4.5260  -27.0290 C.3    62  GLN62       0.0905
     55  CD        -5.1250   -3.4680  -27.0250 C.2    62  GLN62       0.2608
     56  OE1       -3.9690   -3.7580  -27.3200 O.2    62  GLN62      -0.2717
     57  NE2       -5.4920   -2.2310  -26.6990 N.am   62  GLN62      -0.0878
     58  N         -8.8100    1.0490  -31.3840 N.3    71  GLY71      -0.1210
     59  CA        -7.8620    1.1110  -30.2980 C.3    71  GLY71       0.1956
     60  C         -7.7310    2.4680  -29.6490 C.2    71  GLY71       0.2613
     61  O         -6.9800    2.5990  -28.6820 O.2    71  GLY71      -0.2717
     62  N         -8.4410    3.4770  -30.1330 N.am   72  THR72      -0.1938
     63  CA        -8.3890    4.7860  -29.4920 C.3    72  THR72       0.2028
     64  C         -9.5550    5.0380  -28.5550 C.2    72  THR72       0.2643
     65  O         -9.5180    6.0110  -27.7940 O.2    72  THR72      -0.2714
     66  CB        -8.3380    5.9060  -30.5380 C.3    72  THR72       0.1808
     67  OG1       -9.5460    5.8910  -31.3050 O.3    72  THR72      -0.2208
     68  CG2       -7.1450    5.7010  -31.4730 C.3    72  THR72       0.0379
     69  N        -10.5760    4.1910  -28.5790 N.am   73  GLY73      -0.1939
     70  CA       -11.7890    4.4860  -27.8480 C.3    73  GLY73       0.2014
     71  C        -12.2210    3.4540  -26.8280 C.2    73  GLY73       0.2639
     72  O        -11.3990    2.7970  -26.1820 O.2    73  GLY73      -0.2714
     73  N        -13.5340    3.3280  -26.6800 N.am   74  GLY74      -0.1954
     74  CA       -14.1300    2.5840  -25.5930 C.3    74  GLY74       0.1869
     75  C        -14.5040    3.4920  -24.4300 C.2    74  GLY74       0.2309
     76  O        -14.0640    4.6420  -24.3230 O.2    74  GLY74      -0.2863
     77  N        -15.9550    7.8370  -18.8130 N.3    80  SER80      -0.1202
     78  CA       -14.9770    7.5990  -19.8690 C.3    80  SER80       0.2020
     79  C        -13.8180    6.7380  -19.3800 C.2    80  SER80       0.2618
     80  O        -13.3410    5.8610  -20.1100 O.2    80  SER80      -0.2717
     81  CB       -14.4750    8.9280  -20.4250 C.3    80  SER80       0.2103
     82  OG       -15.5540    9.6980  -20.9260 O.3    80  SER80      -0.2182
     83  N        -13.3620    6.9600  -18.1520 N.am   81  ARG81      -0.1979
     84  CA       -12.2110    6.2620  -17.5950 C.3    81  ARG81       0.1597
     85  C        -12.4310    6.0520  -16.1020 C.2    81  ARG81       0.2287
     86  O        -13.1690    6.8020  -15.4560 O.2    81  ARG81      -0.2864
     87  CB       -10.9240    7.0760  -17.8200 C.3    81  ARG81       0.0334
     88  CG       -10.9870    8.4950  -17.2490 C.3    81  ARG81       0.0492
     89  CD        -9.6750    9.2630  -17.3680 C.3    81  ARG81       0.2205
     90  NE        -9.2560    9.4030  -18.7550 N.pl3  81  ARG81      -0.0865
     91  CZ        -8.2170   10.1270  -19.1520 C.cat  81  ARG81       0.5346
     92  NH1       -7.4880   10.7910  -18.2630 N.pl3  81  ARG81       0.1354
     93  NH2       -7.9120   10.1880  -20.4390 N.pl3  81  ARG81       0.1354
     94  N         -6.4200   -3.0220  -20.8950 N.3   100  ALA100     -0.1231
     95  CA        -5.5590   -2.1370  -21.6660 C.3   100  ALA100      0.1694
     96  C         -5.6610   -0.7250  -21.0950 C.2   100  ALA100      0.2592
     97  O         -6.6180   -0.3840  -20.4000 O.2   100  ALA100     -0.2718
     98  CB        -5.9900   -2.1240  -23.1320 C.3   100  ALA100      0.0304
     99  N         -4.6640    0.1100  -21.3730 N.am  101  ASN101     -0.1960
    100  CA        -4.7520    1.4720  -20.8600 C.3   101  ASN101      0.1819
    101  C         -3.8630    2.4040  -21.6670 C.2   101  ASN101      0.2621
    102  O         -3.0840    1.9790  -22.5270 O.2   101  ASN101     -0.2715
    103  CB        -4.4620    1.5320  -19.3520 C.3   101  ASN101      0.1195
    104  CG        -3.0320    1.1630  -19.0140 C.2   101  ASN101      0.2630
    105  OD1       -2.0850    1.6640  -19.6330 O.2   101  ASN101     -0.2716
    106  ND2       -2.8620    0.2860  -18.0290 N.am  101  ASN101     -0.0877
    107  N         -4.0130    3.6890  -21.3750 N.am  102  ALA102     -0.1977
    108  CA        -3.2120    4.7640  -21.9450 C.3   102  ALA102      0.1597
    109  C         -2.3990    5.4330  -20.8460 C.2   102  ALA102      0.2287
    110  O         -2.2780    6.6620  -20.7940 O.2   102  ALA102     -0.2864
    111  CB        -4.0980    5.7820  -22.6570 C.3   102  ALA102      0.0319
    112  N         -6.4820    5.0160  -16.5910 N.3   106  THR106     -0.1218
    113  CA        -7.1810    5.2500  -17.8550 C.3   106  THR106      0.1862
    114  C         -7.9280    4.0070  -18.3220 C.2   106  THR106      0.2287
    115  O         -8.0970    3.7950  -19.5220 O.2   106  THR106     -0.2866
    116  CB        -6.2450    5.7680  -18.9540 C.3   106  THR106      0.1770
    117  OG1       -5.1730    4.8320  -19.1530 O.3   106  THR106     -0.2211
    118  CG2       -5.6900    7.1450  -18.5820 C.3   106  THR106      0.0375
    119  N        -10.9210    1.8560  -19.4440 N.3   108  GLY108     -0.1210
    120  CA       -12.1930    2.1710  -20.0610 C.3   108  GLY108      0.1956
    121  C        -12.9400    0.8820  -20.3100 C.2   108  GLY108      0.2613
    122  O        -13.4930    0.2920  -19.3800 O.2   108  GLY108     -0.2717
    123  N        -12.9310    0.4200  -21.5550 N.am  109  SER109     -0.1938
    124  CA       -13.4610   -0.8910  -21.8900 C.3   109  SER109      0.2055
    125  C        -12.4660   -1.8070  -22.5950 C.2   109  SER109      0.2642
    126  O        -12.7070   -3.0250  -22.6490 O.2   109  SER109     -0.2714
    127  CB       -14.7040   -0.7520  -22.7760 C.3   109  SER109      0.2130
    128  OG       -14.4000    0.0160  -23.9200 O.3   109  SER109     -0.2179
    129  N        -11.3700   -1.2800  -23.1370 N.am  110  GLN110     -0.1976
    130  CA       -10.4350   -2.1410  -23.8550 C.3   110  GLN110      0.1601
    131  C         -9.7320   -3.0950  -22.9040 C.2   110  GLN110      0.2287
    132  O         -9.3890   -2.7420  -21.7740 O.2   110  GLN110     -0.2864
    133  CB        -9.3980   -1.2990  -24.5880 C.3   110  GLN110      0.0394
    134  CG        -9.9510   -0.5920  -25.8070 C.3   110  GLN110      0.0908
    135  CD        -8.8550    0.0490  -26.6140 C.2   110  GLN110      0.2608
    136  OE1       -7.9080   -0.6190  -27.0050 O.2   110  GLN110     -0.2717
    137  NE2       -8.9580    1.3510  -26.8460 N.am  110  GLN110     -0.0878
    138  N         -7.3830   -7.1930  -22.8320 N.3   112  PHE112     -0.1241
    139  CA        -6.5960   -8.1670  -23.5830 C.3   112  PHE112      0.1605
    140  C         -6.5580   -9.5040  -22.8680 C.2   112  PHE112      0.2264
    141  O         -6.7160   -9.5910  -21.6450 O.2   112  PHE112     -0.2867
    142  CB        -5.1750   -7.6820  -23.9360 C.3   112  PHE112      0.0534
    143  CG        -4.3030   -7.3530  -22.7460 C.ar  112  PHE112     -0.0203
    144  CD1       -4.4470   -6.1450  -22.0610 C.ar  112  PHE112     -0.0042
    145  CD2       -3.2840   -8.2180  -22.3590 C.ar  112  PHE112     -0.0042
    146  CE1       -3.6270   -5.8410  -20.9800 C.ar  112  PHE112     -0.0003
    147  CE2       -2.4530   -7.9130  -21.2880 C.ar  112  PHE112     -0.0003
    148  CZ        -2.6130   -6.7110  -20.6050 C.ar  112  PHE112     -0.0000
    149  N          6.0760   -8.4600  -17.4710 N.3   120  TRP120     -0.1227
    150  CA         6.5730   -7.0970  -17.5990 C.3   120  TRP120      0.1737
    151  C          5.4480   -6.0720  -17.5960 C.2   120  TRP120      0.2595
    152  O          5.7220   -4.8710  -17.5630 O.2   120  TRP120     -0.2718
    153  CB         7.4370   -6.9650  -18.8570 C.3   120  TRP120      0.0564
    154  CG         6.6970   -7.2470  -20.1290 C.ar  120  TRP120      0.0003
    155  CD1        5.9450   -6.3660  -20.8630 C.ar  120  TRP120      0.0946
    156  CD2        6.6350   -8.4980  -20.8160 C.ar  120  TRP120      0.0152
    157  NE1        5.4220   -6.9980  -21.9670 N.ar  120  TRP120     -0.2442
    158  CE2        5.8310   -8.3070  -21.9590 C.ar  120  TRP120      0.0810
    159  CE3        7.1810   -9.7610  -20.5760 C.ar  120  TRP120      0.0012
    160  CZ2        5.5630   -9.3330  -22.8570 C.ar  120  TRP120      0.0191
    161  CZ3        6.9110  -10.7780  -21.4660 C.ar  120  TRP120      0.0001
    162  CH2        6.1100  -10.5590  -22.5930 C.ar  120  TRP120      0.0015
    163  N          4.1960   -6.5210  -17.6140 N.am  121  LEU121     -0.1980
    164  CA         3.0480   -5.6410  -17.4580 C.3   121  LEU121      0.1596
    165  C          2.5600   -5.5590  -16.0170 C.2   121  LEU121      0.2287
    166  O          1.6800   -4.7430  -15.7270 O.2   121  LEU121     -0.2864
    167  CB         1.9100   -6.1010  -18.3760 C.3   121  LEU121      0.0297
    168  CG         2.2670   -6.1450  -19.8710 C.3   121  LEU121      0.0022
    169  CD1        1.0510   -6.5720  -20.6820 C.3   121  LEU121      0.0001
    170  CD2        2.7790   -4.7870  -20.3680 C.3   121  LEU121      0.0001
    171  N         -0.8180   -2.8040  -15.7100 N.3   125  HIS125     -0.1241
    172  CA        -2.1420   -3.1570  -16.2000 C.3   125  HIS125      0.1621
    173  C         -2.8650   -3.9580  -15.1360 C.2   125  HIS125      0.2264
    174  O         -2.2700   -4.8310  -14.4990 O.2   125  HIS125     -0.2867
    175  CB        -2.0470   -3.9680  -17.5010 C.3   125  HIS125      0.0745
    176  CG        -1.4660   -3.1830  -18.6330 C.ar  125  HIS125      0.0817
    177  ND1       -2.2440   -2.5570  -19.5830 N.ar  125  HIS125     -0.2268
    178  CD2       -0.1800   -2.8830  -18.9420 C.ar  125  HIS125      0.1154
    179  CE1       -1.4610   -1.9060  -20.4320 C.ar  125  HIS125      0.1986
    180  NE2       -0.2050   -2.0870  -20.0650 N.ar  125  HIS125     -0.2212
@<TRIPOS>BOND
     1     4     3    2
     2     3     2    1
     3     3    11   am
     4     2     5    1
     5     2     1    1
     6     5     6    1
     7    11    12    1
     8    12    13    1
     9    12    15    1
    10    13    14    2
    11     6     8   ar
    12     6     7   ar
    13    23    22    1
    14    23    24    1
    15    23    26    1
    16    27    26    1
    17    27    29    1
    18    68    66    1
    19     8    10   ar
    20    15    16    1
    21    58    59    1
    22    67    66    1
    23    24    25    2
    24    16    17    1
    25    28    26    1
    26    18    17    1
    27    18    19    2
    28    20    19    1
    29    66    63    1
    30     7     9   ar
    31    59    60    1
    32    62    60   am
    33    62    63    1
    34    10     9   ar
    35    19    21    1
    36    60    61    2
    37    52    51    2
    38    63    64    1
    39    44    43    2
    40    69    64   am
    41    69    70    1
    42    64    65    2
    43    51    50    1
    44    49    50    1
    45    48    47    1
    46    70    71    1
    47    53    50    1
    48    53    54    1
    49    30    31    1
    50    43    42    1
    51    34    31    1
    52    34    35    1
    53    56    55    2
    54    37    35   ar
    55    37    39   ar
    56    41    42    1
    57    41    32   am
    58    54    55    1
    59    55    57   am
    60   136   135    2
    61   137   135   am
    62    71    73   am
    63    71    72    2
    64    31    32    1
    65    47    46    1
    66    73    74    1
    67    35    36   ar
    68   135   134    1
    69    42    45    1
    70    39    40   ar
    71    32    33    2
    72    46    45    1
    73   134   133    1
    74    74    75    1
    75    36    38   ar
    76    40    38   ar
    77   133   130    1
    78    75    76    2
    79   142   139    1
    80   142   143    1
    81   128   127    1
    82   130   129    1
    83   130   131    1
    84   139   140    1
    85   139   138    1
    86   129   125   am
    87    98    95    1
    88   131   132    2
    89   140   141    2
    90   160   162   ar
    91   160   158   ar
    92   127   124    1
    93   143   145   ar
    94   143   144   ar
    95   111   108    1
    96   126   125    2
    97   125   124    1
    98   162   161   ar
    99   102   101    2
   100   145   147   ar
   101   144   146   ar
   102   157   158   ar
   103   157   155   ar
   104   158   156   ar
   105   108   107    1
   106   108   109    1
   107   124   123    1
   108   101   107   am
   109   101   100    1
   110    95    96    1
   111    95    94    1
   112   123   121   am
   113   161   159   ar
   114    99    96   am
   115    99   100    1
   116   147   148   ar
   117    96    97    2
   118   146   148   ar
   119    82    81    1
   120   155   154   ar
   121   100   103    1
   122   109   110    2
   123   156   159   ar
   124   156   154   ar
   125   169   168    1
   126    93    91    1
   127   179   180   ar
   128   179   177   ar
   129    81    78    1
   130   170   168    1
   131   121   120    1
   132   121   122    2
   133   154   153    1
   134    80    79    2
   135   180   178   ar
   136   120   119    1
   137   168   167    1
   138    78    79    1
   139    78    77    1
   140   105   104    2
   141   177   176   ar
   142   115   114    2
   143    79    83   am
   144   103   104    1
   145   117   116    1
   146    91    90    2
   147    91    92    1
   148   104   106   am
   149   116   118    1
   150   116   113    1
   151   178   176   ar
   152   153   150    1
   153    90    89    1
   154   176   175    1
   155   167   164    1
   156   114   113    1
   157    83    84    1
   158   113   112    1
   159    87    84    1
   160    87    88    1
   161   163   151   am
   162   163   164    1
   163   150   151    1
   164   150   149    1
   165   151   152    2
   166    84    85    1
   167   175   172    1
   168   164   165    1
   169    89    88    1
   170   172   171    1
   171   172   173    1
   172    85    86    2
   173   165   166    2
   174   173   174    2
