@<TRIPOS>MOLECULE
tmp/5nwzB00.pdb
 204 189 0 0 0
SMALL
GASTEIGER

@<TRIPOS>ATOM
      1  N        -25.0550  -59.2350   12.4780 N.3    20  LEU20      -0.1231
      2  CA       -24.1090  -58.3700   13.1460 C.3    20  LEU20       0.1693
      3  C        -24.3320  -58.4280   14.6720 C.2    20  LEU20       0.2592
      4  O        -25.3850  -58.0020   15.1610 O.2    20  LEU20      -0.2718
      5  CB       -24.2930  -56.9480   12.5640 C.3    20  LEU20       0.0284
      6  CG       -23.0940  -56.0190   12.4810 C.3    20  LEU20       0.0019
      7  CD1      -21.9340  -56.6550   11.7620 C.3    20  LEU20       0.0001
      8  CD2      -23.4740  -54.7330   11.7890 C.3    20  LEU20       0.0001
      9  N        -23.3630  -59.0270   15.3740 N.am   21  GLY21      -0.1957
     10  CA       -23.3420  -59.1930   16.8280 C.3    21  GLY21       0.1869
     11  C        -24.6600  -59.5750   17.4730 C.2    21  GLY21       0.2309
     12  O        -25.3770  -58.7060   17.9790 O.2    21  GLY21      -0.2863
     13  N        -28.2790  -58.1720   20.3140 N.3    24  CYS24      -0.1221
     14  CA       -28.1850  -57.2050   21.4190 C.3    24  CYS24       0.1808
     15  C        -28.7570  -55.8140   21.0280 C.2    24  CYS24       0.2601
     16  O        -28.8020  -54.8990   21.8590 O.2    24  CYS24      -0.2717
     17  CB       -26.7740  -57.1220   21.9960 C.3    24  CYS24       0.0970
     18  SG       -25.4860  -56.7820   20.7720 S.3    24  CYS24      -0.0800
     19  N        -29.2270  -55.6940   19.7610 N.am   25  PHE25      -0.1976
     20  CA       -29.9250  -54.5500   19.1550 C.3    25  PHE25       0.1639
     21  C        -31.0490  -55.1180   18.2760 C.2    25  PHE25       0.2290
     22  O        -31.7280  -54.3630   17.5860 O.2    25  PHE25      -0.2864
     23  CB       -28.9730  -53.6620   18.3280 C.3    25  PHE25       0.0560
     24  CG       -27.9020  -52.9820   19.1420 C.ar   25  PHE25      -0.0200
     25  CD1      -28.2240  -51.9760   20.0550 C.ar   25  PHE25      -0.0042
     26  CD2      -26.5720  -53.3410   18.9990 C.ar   25  PHE25      -0.0042
     27  CE1      -27.2230  -51.3470   20.8190 C.ar   25  PHE25      -0.0003
     28  CE2      -25.5800  -52.7160   19.7580 C.ar   25  PHE25      -0.0003
     29  CZ       -25.9100  -51.7250   20.6630 C.ar   25  PHE25      -0.0000
     30  N        -30.1800  -57.5080   13.3800 N.3    28  VAL28      -0.1245
     31  CA       -29.2980  -56.6050   12.6410 C.3    28  VAL28       0.1561
     32  C        -28.3350  -57.4470   11.8110 C.2    28  VAL28       0.2260
     33  O        -27.6840  -58.3320   12.3460 O.2    28  VAL28      -0.2867
     34  CB       -28.5650  -55.5770   13.5580 C.3    28  VAL28       0.0252
     35  CG1      -27.6290  -54.6830   12.7450 C.3    28  VAL28       0.0019
     36  CG2      -29.5490  -54.7330   14.3790 C.3    28  VAL28       0.0019
     37  N        -25.2390  -57.4030    8.5440 N.3    30  ARG30      -0.1245
     38  CA       -24.2730  -56.6290    7.7930 C.3    30  ARG30       0.1563
     39  C        -24.8340  -56.6780    6.3580 C.2    30  ARG30       0.2260
     40  O        -25.5270  -57.6260    6.0020 O.2    30  ARG30      -0.2867
     41  CB       -22.8990  -57.3270    7.8590 C.3    30  ARG30       0.0307
     42  CG       -21.7310  -56.5500    7.2690 C.3    30  ARG30       0.0489
     43  CD       -20.4470  -57.3580    7.3390 C.3    30  ARG30       0.2205
     44  NE       -19.8370  -57.3430    8.6730 N.pl3  30  ARG30      -0.0865
     45  CZ       -18.8610  -56.5200    9.0500 C.cat  30  ARG30       0.5346
     46  NH1      -18.3510  -55.6450    8.1910 N.pl3  30  ARG30       0.1354
     47  NH2      -18.3800  -56.5740   10.2860 N.pl3  30  ARG30       0.1354
     48  N        -25.2770  -51.5320    8.0840 N.3    48  ALA48      -0.1245
     49  CA       -26.0150  -52.4110    8.9960 C.3    48  ALA48       0.1562
     50  C        -27.4790  -52.2710    8.6460 C.2    48  ALA48       0.2260
     51  O        -27.9050  -51.1890    8.2970 O.2    48  ALA48      -0.2867
     52  CB       -25.7700  -52.0360   10.4550 C.3    48  ALA48       0.0290
     53  N        -31.3480  -53.1890   10.0810 N.3    50  LYS50      -0.1245
     54  CA       -32.2320  -53.6260   11.1440 C.3    50  LYS50       0.1561
     55  C        -33.5640  -53.9580   10.5000 C.2    50  LYS50       0.2260
     56  O        -34.0890  -53.1870    9.6850 O.2    50  LYS50      -0.2867
     57  CB       -32.3780  -52.5510   12.2370 C.3    50  LYS50       0.0271
     58  CG       -33.3230  -52.9420   13.3820 C.3    50  LYS50       0.0035
     59  CD       -32.7640  -52.5590   14.7240 C.3    50  LYS50       0.0206
     60  CE       -33.8170  -52.4670   15.7950 C.3    50  LYS50       0.1093
     61  NZ       -33.2130  -52.0480   17.0780 N.3    50  LYS50      -0.1314
     62  N        -39.9390  -49.9990   15.8910 N.3    64  LEU64      -0.1245
     63  CA       -38.9520  -49.8150   14.8200 C.3    64  LEU64       0.1561
     64  C        -39.2610  -48.5510   14.0020 C.2    64  LEU64       0.2260
     65  O        -38.3400  -47.8040   13.6690 O.2    64  LEU64      -0.2867
     66  CB       -38.8560  -51.0760   13.9250 C.3    64  LEU64       0.0270
     67  CG       -37.7800  -51.1090   12.8350 C.3    64  LEU64       0.0019
     68  CD1      -36.4090  -50.7900   13.3940 C.3    64  LEU64       0.0001
     69  CD2      -37.7530  -52.4560   12.1200 C.3    64  LEU64       0.0001
     70  N        -38.3030  -45.4340   16.1390 N.3    67  GLU67      -0.1245
     71  CA       -36.8510  -45.3110   16.1410 C.3    67  GLU67       0.1567
     72  C        -36.3860  -44.6820   14.8040 C.2    67  GLU67       0.2260
     73  O        -35.6130  -43.7240   14.8160 O.2    67  GLU67      -0.2867
     74  CB       -36.2070  -46.7000   16.3690 C.3    67  GLU67       0.0388
     75  CG       -34.7580  -46.6380   16.8200 C.3    67  GLU67       0.1160
     76  CD       -34.1200  -47.9560   17.2220 C.2    67  GLU67       0.3649
     77  OE1      -34.7560  -49.0280   17.0950 O.co2  67  GLU67      -0.2457
     78  OE2      -32.9420  -47.9090   17.6270 O.co2  67  GLU67      -0.2457
     79  N        -34.5620  -41.0040   14.2420 N.3    71  MET71      -0.1245
     80  CA       -33.3130  -40.9610   13.4590 C.3    71  MET71       0.1570
     81  C        -33.4080  -40.0910   12.1840 C.2    71  MET71       0.2261
     82  O        -32.3880  -39.5880   11.7310 O.2    71  MET71      -0.2867
     83  CB       -32.8410  -42.3730   13.1240 C.3    71  MET71       0.0387
     84  CG       -32.3640  -43.1550   14.3460 C.3    71  MET71       0.0595
     85  SD       -31.6680  -44.7710   13.8950 S.3    71  MET71      -0.1393
     86  CE       -33.0820  -45.6060   13.4970 C.3    71  MET71       0.0692
     87  N        -24.6810  -43.3940   15.7120 N.3    81  ILE81      -0.1245
     88  CA       -25.0760  -44.3310   14.6580 C.3    81  ILE81       0.1561
     89  C        -26.1120  -43.5400   13.8460 C.2    81  ILE81       0.2260
     90  O        -27.1360  -43.1350   14.3930 O.2    81  ILE81      -0.2867
     91  CB       -25.6550  -45.6750   15.2220 C.3    81  ILE81       0.0252
     92  CG1      -24.5660  -46.5340   15.9190 C.3    81  ILE81       0.0019
     93  CG2      -26.4210  -46.4730   14.1260 C.3    81  ILE81       0.0019
     94  CD1      -23.4680  -47.1430   14.9890 C.3    81  ILE81       0.0001
     95  N        -34.2860  -50.8750    8.0280 N.3    95  VAL95      -0.1245
     96  CA       -33.7240  -49.6200    8.5160 C.3    95  VAL95       0.1561
     97  C        -32.1990  -49.7140    8.3200 C.2    95  VAL95       0.2260
     98  O        -31.5290  -50.5330    8.9630 O.2    95  VAL95      -0.2867
     99  CB       -34.1870  -49.2610    9.9550 C.3    95  VAL95       0.0252
    100  CG1      -33.6350  -47.9180   10.3950 C.3    95  VAL95       0.0019
    101  CG2      -35.7120  -49.2510   10.0530 C.3    95  VAL95       0.0019
    102  N        -28.5740  -48.3980    8.6420 N.3    97  VAL97      -0.1231
    103  CA       -27.8290  -47.5190    9.5440 C.3    97  VAL97       0.1692
    104  C        -26.3430  -47.7900    9.3740 C.2    97  VAL97       0.2591
    105  O        -25.9610  -48.7000    8.6210 O.2    97  VAL97      -0.2718
    106  CB       -28.2950  -47.6440   11.0410 C.3    97  VAL97       0.0266
    107  CG1      -29.7970  -47.3950   11.2010 C.3    97  VAL97       0.0020
    108  CG2      -27.9080  -48.9940   11.6320 C.3    97  VAL97       0.0020
    109  N        -25.4990  -47.0080   10.0510 N.am   98  GLU98      -0.1979
    110  CA       -24.0550  -47.2110    9.9650 C.3    98  GLU98       0.1602
    111  C        -23.5980  -48.5030   10.6340 C.2    98  GLU98       0.2287
    112  O        -24.2050  -48.9520   11.6090 O.2    98  GLU98      -0.2864
    113  CB       -23.3050  -46.0330   10.5620 C.3    98  GLU98       0.0415
    114  CG       -23.2270  -44.8570    9.6120 C.3    98  GLU98       0.1163
    115  CD       -22.7810  -43.5830   10.2890 C.2    98  GLU98       0.3649
    116  OE1      -23.0380  -43.4270   11.5070 O.co2  98  GLU98      -0.2457
    117  OE2      -22.2010  -42.7240    9.5860 O.co2  98  GLU98      -0.2457
    118  N        -20.7650  -50.5940   12.7710 N.3   100  ALA100     -0.1231
    119  CA       -19.6560  -50.5170   13.7330 C.3   100  ALA100      0.1694
    120  C        -19.1520  -51.9560   13.9460 C.2   100  ALA100      0.2592
    121  O        -19.6810  -52.6920   14.7840 O.2   100  ALA100     -0.2718
    122  CB       -20.1180  -49.8970   15.0470 C.3   100  ALA100      0.0304
    123  N        -18.1620  -52.3570   13.1240 N.am  101  ALA101     -0.1966
    124  CA       -17.5740  -53.7000   13.0420 C.3   101  ALA101      0.1728
    125  C        -16.8880  -54.2360   14.3150 C.2   101  ALA101      0.2616
    126  O        -16.9350  -55.4450   14.5520 O.2   101  ALA101     -0.2715
    127  CB       -16.6010  -53.7670   11.8760 C.3   101  ALA101      0.0334
    128  N        -16.2720  -53.3620   15.1350 N.am  102  LYS102     -0.1963
    129  CA       -15.5700  -53.7700   16.3630 C.3   102  LYS102      0.1728
    130  C        -16.4840  -53.9440   17.6030 C.2   102  LYS102      0.2617
    131  O        -15.9840  -54.2160   18.6990 O.2   102  LYS102     -0.2715
    132  CB       -14.4000  -52.8190   16.6600 C.3   102  LYS102      0.0311
    133  CG       -13.3060  -52.9180   15.6190 C.3   102  LYS102      0.0038
    134  CD       -12.0450  -52.2160   16.0240 C.3   102  LYS102      0.0206
    135  CE       -11.0360  -52.3510   14.9140 C.3   102  LYS102      0.1093
    136  NZ        -9.7240  -51.7550   15.2690 N.3   102  LYS102     -0.1314
    137  N        -17.7990  -53.8350   17.4200 N.am  103  GLY103     -0.1940
    138  CA       -18.7640  -54.0360   18.4980 C.3   103  GLY103      0.2014
    139  C        -18.7750  -52.9690   19.5740 C.2   103  GLY103      0.2638
    140  O        -18.2500  -51.8760   19.3610 O.2   103  GLY103     -0.2714
    141  N        -19.3570  -53.2930   20.7480 N.am  104  ASN104     -0.1972
    142  CA       -19.5200  -52.3490   21.8460 C.3   104  ASN104      0.1688
    143  C        -18.2190  -52.0210   22.5740 C.2   104  ASN104      0.2292
    144  O        -17.2790  -52.8210   22.5890 O.2   104  ASN104     -0.2864
    145  CB       -20.6290  -52.7800   22.8180 C.3   104  ASN104      0.1181
    146  CG       -20.3040  -53.9310   23.7310 C.2   104  ASN104      0.2629
    147  OD1      -19.6040  -53.7830   24.7210 O.2   104  ASN104     -0.2716
    148  ND2      -20.8740  -55.0870   23.4650 N.am  104  ASN104     -0.0877
    149  N        -16.8610  -54.4760   25.6400 N.3   107  GLU107     -0.1245
    150  CA       -16.0970  -55.6290   25.1580 C.3   107  GLU107      0.1567
    151  C        -14.7970  -55.2270   24.4750 C.2   107  GLU107      0.2260
    152  O        -13.8240  -55.9710   24.5430 O.2   107  GLU107     -0.2867
    153  CB       -16.9420  -56.5230   24.2360 C.3   107  GLU107      0.0388
    154  CG       -18.1170  -57.2170   24.9210 C.3   107  GLU107      0.1160
    155  CD       -17.8970  -57.7820   26.3160 C.2   107  GLU107      0.3649
    156  OE1      -16.9390  -58.5670   26.5040 O.co2 107  GLU107     -0.2457
    157  OE2      -18.7040  -57.4550   27.2180 O.co2 107  GLU107     -0.2457
    158  N        -21.7580  -50.4010   26.8820 N.3   149  ARG149     -0.1245
    159  CA       -22.4120  -51.4170   26.0490 C.3   149  ARG149      0.1563
    160  C        -23.2310  -50.7870   24.8840 C.2   149  ARG149      0.2260
    161  O        -23.4690  -51.4650   23.8880 O.2   149  ARG149     -0.2867
    162  CB       -23.2810  -52.3720   26.9090 C.3   149  ARG149      0.0307
    163  CG       -24.5280  -51.7030   27.5000 C.3   149  ARG149      0.0489
    164  CD       -25.4360  -52.6360   28.2780 C.3   149  ARG149      0.2205
    165  NE       -26.4140  -51.8620   29.0510 N.pl3 149  ARG149     -0.0865
    166  CZ       -26.2070  -51.3830   30.2780 C.cat 149  ARG149      0.5346
    167  NH1      -25.0630  -51.6170   30.9090 N.pl3 149  ARG149      0.1354
    168  NH2      -27.1340  -50.6560   30.8740 N.pl3 149  ARG149      0.1354
    169  N        -20.7390  -48.0240   20.2890 N.3   152  LEU152     -0.1245
    170  CA       -20.2330  -48.9380   19.2810 C.3   152  LEU152      0.1561
    171  C        -18.9580  -48.3980   18.6800 C.2   152  LEU152      0.2260
    172  O        -18.7580  -47.1800   18.6410 O.2   152  LEU152     -0.2867
    173  CB       -21.3090  -49.1320   18.2190 C.3   152  LEU152      0.0270
    174  CG       -22.2120  -50.3730   18.2640 C.3   152  LEU152      0.0019
    175  CD1      -22.4720  -50.8840   19.7000 C.3   152  LEU152      0.0001
    176  CD2      -23.5150  -50.1070   17.5430 C.3   152  LEU152      0.0001
    177  N        -25.2200  -45.5700   20.1390 N.3   162  ALA162     -0.1231
    178  CA       -26.3250  -46.3760   19.6500 C.3   162  ALA162      0.1694
    179  C        -27.4630  -46.3540   20.6490 C.2   162  ALA162      0.2592
    180  O        -27.2450  -46.0830   21.8240 O.2   162  ALA162     -0.2718
    181  CB       -25.8540  -47.8090   19.4350 C.3   162  ALA162      0.0304
    182  N        -28.6830  -46.6650   20.1720 N.am  163  ASP163     -0.1960
    183  CA       -29.9420  -46.8210   20.9310 C.3   163  ASP163      0.1840
    184  C        -30.3880  -45.5920   21.7140 C.2   163  ASP163      0.2622
    185  O        -30.9230  -45.7240   22.8140 O.2   163  ASP163     -0.2715
    186  CB       -29.8870  -48.0510   21.8580 C.3   163  ASP163      0.1450
    187  CG       -30.3990  -49.3240   21.2120 C.2   163  ASP163      0.3671
    188  OD1      -30.3840  -49.4060   19.9530 O.co2 163  ASP163     -0.2456
    189  OD2      -30.8070  -50.2460   21.9620 O.co2 163  ASP163     -0.2456
    190  N        -30.1950  -44.4020   21.1290 N.am  164  PHE164     -0.1960
    191  CA       -30.5760  -43.1130   21.7020 C.3   164  PHE164      0.1771
    192  C        -32.0480  -42.7670   21.4220 C.2   164  PHE164      0.2620
    193  O        -32.6380  -41.9550   22.1480 O.2   164  PHE164     -0.2715
    194  CB       -29.6490  -41.9950   21.1680 C.3   164  PHE164      0.0574
    195  CG       -29.4740  -41.9700   19.6640 C.ar  164  PHE164     -0.0200
    196  CD1      -30.4320  -41.3750   18.8440 C.ar  164  PHE164     -0.0042
    197  CD2      -28.3460  -42.5240   19.0710 C.ar  164  PHE164     -0.0042
    198  CE1      -30.2800  -41.3710   17.4590 C.ar  164  PHE164     -0.0003
    199  CE2      -28.1790  -42.4870   17.6930 C.ar  164  PHE164     -0.0003
    200  CZ       -29.1420  -41.9040   16.8950 C.ar  164  PHE164     -0.0000
    201  N        -32.5970  -43.3570   20.3570 N.am  165  GLY165     -0.1954
    202  CA       -33.9740  -43.1590   19.9160 C.3   165  GLY165      0.1869
    203  C        -34.7220  -44.4570   19.6950 C.2   165  GLY165      0.2309
    204  O        -35.3140  -45.0110   20.6250 O.2   165  GLY165     -0.2863
@<TRIPOS>BOND
     1    40    39    2
     2    39    38    1
     3    42    43    1
     4    42    41    1
     5    43    44    1
     6    38    41    1
     7    38    37    1
     8    95    96    1
     9    48    49    1
    10    46    45    1
    11    51    50    2
    12    97    96    1
    13    97    98    2
    14    96    99    1
    15   105   104    2
    16   102   103    1
    17    50    49    1
    18    44    45    2
    19    49    52    1
    20    45    47    1
    21   104   103    1
    22   104   109   am
    23   103   106    1
    24   117   115   ar
    25   114   115    1
    26   114   113    1
    27    56    55    2
    28    99   101    1
    29    99   100    1
    30   110   109    1
    31   110   113    1
    32   110   111    1
    33    53    54    1
    34   115   116   ar
    35    55    54    1
    36   111   112    2
    37   106   107    1
    38   106   108    1
    39    54    57    1
    40    82    81    2
    41     7     6    1
    42     8     6    1
    43    32    33    2
    44    32    31    1
    45   127   124    1
    46    69    67    1
    47    81    80    1
    48    57    58    1
    49     1     2    1
    50     6     5    1
    51     5     2    1
    52    31    30    1
    53    31    34    1
    54    35    34    1
    55   118   119    1
    56    67    68    1
    57    67    66    1
    58   124   123    1
    59   124   125    1
    60    83    80    1
    61    83    84    1
    62   123   120   am
    63     2     3    1
    64    58    59    1
    65    80    79    1
    66    86    85    1
    67    34    36    1
    68    65    64    2
    69   119   120    1
    70   119   122    1
    71    89    90    2
    72    89    88    1
    73    85    84    1
    74    66    63    1
    75   120   121    2
    76    64    63    1
    77    93    91    1
    78   125   126    2
    79   125   128   am
    80    88    91    1
    81    88    87    1
    82     3     4    2
    83     3     9   am
    84    59    60    1
    85    72    73    2
    86    72    71    1
    87    63    62    1
    88   135   136    1
    89   135   134    1
    90    94    92    1
    91   128   129    1
    92    91    92    1
    93     9    10    1
    94   133   134    1
    95   133   132    1
    96    60    61    1
    97    70    71    1
    98    71    74    1
    99   129   132    1
   100   129   130    1
   101    74    75    1
   102    75    76    1
   103    10    11    1
   104   200   198   ar
   105   200   199   ar
   106    77    76   ar
   107    76    78   ar
   108   137   130   am
   109   137   138    1
   110   198   196   ar
   111    11    12    2
   112   176   174    1
   113    22    21    2
   114   130   131    2
   115   199   197   ar
   116   173   174    1
   117   173   170    1
   118   174   175    1
   119    21    20    1
   120    23    24    1
   121    23    20    1
   122   138   139    1
   123   172   171    2
   124   171   170    1
   125   196   195   ar
   126    26    24   ar
   127    26    28   ar
   128   197   195   ar
   129    24    25   ar
   130    20    19    1
   131   170   169    1
   132   140   139    2
   133   181   178    1
   134   139   141   am
   135   178   177    1
   136   178   179    1
   137   195   194    1
   138   203   202    1
   139   203   204    2
   140    28    29   ar
   141    19    15   am
   142   202   201    1
   143   188   187   ar
   144    25    27   ar
   145   182   179   am
   146   182   183    1
   147    13    14    1
   148   201   192   am
   149   179   180    2
   150    29    27   ar
   151   141   142    1
   152    18    17    1
   153   183   184    1
   154   183   186    1
   155    15    14    1
   156    15    16    2
   157   190   191    1
   158   190   184   am
   159   194   191    1
   160   187   186    1
   161   187   189   ar
   162    14    17    1
   163   192   191    1
   164   192   193    2
   165   184   185    2
   166   142   143    1
   167   142   145    1
   168   143   144    2
   169   145   146    1
   170   148   146   am
   171   146   147    2
   172   161   160    2
   173   153   154    1
   174   153   150    1
   175   151   152    2
   176   151   150    1
   177   160   159    1
   178   154   155    1
   179   150   149    1
   180   159   158    1
   181   159   162    1
   182   155   156   ar
   183   155   157   ar
   184   162   163    1
   185   163   164    1
   186   164   165    1
   187   165   166    2
   188   166   168    1
   189   166   167    1
