@<TRIPOS>MOLECULE
tmp/5nx5A00.pdb
 194 182 0 0 0
SMALL
GASTEIGER

@<TRIPOS>ATOM
      1  N        -32.3220  -32.9290   -7.3400 N.3    35  SER35      -0.1217
      2  CA       -33.1740  -32.1780   -8.2600 C.3    35  SER35       0.1889
      3  C        -33.1750  -32.7500   -9.6690 C.2    35  SER35       0.2288
      4  O        -34.0880  -32.4360  -10.4410 O.2    35  SER35      -0.2866
      5  CB       -32.7250  -30.7130   -8.3540 C.3    35  SER35       0.2089
      6  OG       -31.5850  -30.5690   -9.2050 O.3    35  SER35      -0.2183
      7  N        -31.5400  -31.8920  -12.0800 N.3    37  VAL37      -0.1245
      8  CA       -31.1160  -30.9180  -13.0760 C.3    37  VAL37       0.1561
      9  C        -29.8740  -31.4120  -13.8030 C.2    37  VAL37       0.2260
     10  O        -29.6660  -31.0840  -14.9680 O.2    37  VAL37      -0.2867
     11  CB       -30.8800  -29.5500  -12.4000 C.3    37  VAL37       0.0252
     12  CG1      -30.0600  -28.6450  -13.3070 C.3    37  VAL37       0.0019
     13  CG2      -32.2020  -28.9340  -12.0750 C.3    37  VAL37       0.0019
     14  N        -31.0920  -33.2820  -17.2740 N.3    40  ILE40      -0.1245
     15  CA       -31.9590  -32.8120  -18.3400 C.3    40  ILE40       0.1561
     16  C        -31.2070  -32.7310  -19.6620 C.2    40  ILE40       0.2260
     17  O        -31.7960  -32.9120  -20.7320 O.2    40  ILE40      -0.2867
     18  CB       -32.5910  -31.4690  -17.9520 C.3    40  ILE40       0.0252
     19  CG1      -33.5440  -30.9910  -19.0410 C.3    40  ILE40       0.0019
     20  CG2      -31.5090  -30.4160  -17.7000 C.3    40  ILE40       0.0019
     21  CD1      -34.6870  -30.1510  -18.4320 C.3    40  ILE40       0.0001
     22  N        -27.5500  -26.4680  -19.3150 N.3    60  LEU60      -0.1245
     23  CA       -28.8540  -26.6050  -18.6760 C.3    60  LEU60       0.1561
     24  C        -28.7490  -26.3600  -17.1770 C.2    60  LEU60       0.2260
     25  O        -29.5690  -25.6370  -16.5830 O.2    60  LEU60      -0.2867
     26  CB       -29.4620  -27.9990  -18.9760 C.3    60  LEU60       0.0270
     27  CG       -30.3950  -28.0550  -20.1930 C.3    60  LEU60       0.0019
     28  CD1      -31.7180  -27.2980  -19.9030 C.3    60  LEU60       0.0001
     29  CD2      -29.7110  -27.4510  -21.3800 C.3    60  LEU60       0.0001
     30  N        -28.4760  -22.7330  -16.3810 N.3    63  THR63      -0.1203
     31  CA       -29.7110  -21.9350  -16.4270 C.3    63  THR63       0.1994
     32  C        -30.5320  -22.1450  -15.1690 C.2    63  THR63       0.2617
     33  O        -31.2100  -21.2170  -14.6980 O.2    63  THR63      -0.2717
     34  CB       -30.5600  -22.2320  -17.6810 C.3    63  THR63       0.1784
     35  OG1      -31.1090  -23.5540  -17.6120 O.3    63  THR63      -0.2211
     36  CG2      -29.7450  -22.0630  -18.9610 C.3    63  THR63       0.0376
     37  N        -30.4990  -23.3510  -14.5900 N.am   64  PHE64      -0.1975
     38  CA       -31.2300  -23.5570  -13.3360 C.3    64  PHE64       0.1639
     39  C        -30.5880  -22.7980  -12.1940 C.2    64  PHE64       0.2290
     40  O        -31.2740  -22.2400  -11.3060 O.2    64  PHE64      -0.2864
     41  CB       -31.2980  -25.0530  -13.0090 C.3    64  PHE64       0.0560
     42  CG       -32.4200  -25.7540  -13.7040 C.ar   64  PHE64      -0.0200
     43  CD1      -32.2710  -26.2080  -15.0000 C.ar   64  PHE64      -0.0042
     44  CD2      -33.6360  -25.9450  -13.0600 C.ar   64  PHE64      -0.0042
     45  CE1      -33.3020  -26.8560  -15.6500 C.ar   64  PHE64      -0.0003
     46  CE2      -34.6890  -26.6030  -13.7080 C.ar   64  PHE64      -0.0003
     47  CZ       -34.5160  -27.0580  -15.0030 C.ar   64  PHE64      -0.0000
     48  N        -31.3730  -19.0790  -12.5490 N.3    67  ASP67      -0.1225
     49  CA       -32.7450  -18.8660  -12.0970 C.3    67  ASP67       0.1805
     50  C        -32.8300  -18.8280  -10.5730 C.2    67  ASP67       0.2597
     51  O        -33.5760  -18.0220  -10.0070 O.2    67  ASP67      -0.2718
     52  CB       -33.6340  -19.9760  -12.6880 C.3    67  ASP67       0.1424
     53  CG       -35.0530  -19.9600  -12.1480 C.2    67  ASP67       0.3668
     54  OD1      -35.2700  -20.4240  -11.0190 O.co2  67  ASP67      -0.2456
     55  OD2      -35.9500  -19.4900  -12.8580 O.co2  67  ASP67      -0.2456
     56  N        -32.0690  -19.6890   -9.8920 N.am   68  ASP68      -0.1974
     57  CA       -32.0940  -19.7370   -8.4270 C.3    68  ASP68       0.1709
     58  C        -31.6440  -18.4240   -7.7800 C.2    68  ASP68       0.2293
     59  O        -32.0380  -18.1270   -6.6380 O.2    68  ASP68      -0.2864
     60  CB       -31.2140  -20.8800   -7.9240 C.3    68  ASP68       0.1436
     61  CG       -31.8310  -22.2400   -8.1560 C.2    68  ASP68       0.3671
     62  OD1      -33.0700  -22.3310   -8.2660 O.co2  68  ASP68      -0.2456
     63  OD2      -31.0750  -23.2280   -8.2160 O.co2  68  ASP68      -0.2456
     64  N        -34.5890  -16.0670   -6.8980 N.3    71  ASP71      -0.1239
     65  CA       -35.5130  -16.5210   -5.8560 C.3    71  ASP71       0.1674
     66  C        -34.8590  -16.5760   -4.4730 C.2    71  ASP71       0.2266
     67  O        -33.8640  -15.8990   -4.2140 O.2    71  ASP71      -0.2867
     68  CB       -36.0680  -17.9010   -6.2110 C.3    71  ASP71       0.1410
     69  CG       -36.7610  -17.9230   -7.5620 C.2    71  ASP71       0.3668
     70  OD1      -36.3300  -17.1790   -8.4670 O.co2  71  ASP71      -0.2456
     71  OD2      -37.7280  -18.6970   -7.7290 O.co2  71  ASP71      -0.2456
     72  N        -42.0160  -14.8250  -20.4260 N.3   156  ARG156     -0.1245
     73  CA       -41.4630  -16.1650  -20.2990 C.3   156  ARG156      0.1563
     74  C        -40.7860  -16.6340  -21.5920 C.2   156  ARG156      0.2260
     75  O        -39.8660  -17.4680  -21.5420 O.2   156  ARG156     -0.2867
     76  CB       -42.5840  -17.1360  -19.8600 C.3   156  ARG156      0.0307
     77  CG       -42.0580  -18.4410  -19.3150 C.3   156  ARG156      0.0489
     78  CD       -41.1750  -18.2400  -18.0600 C.3   156  ARG156      0.2205
     79  NE       -40.7560  -19.5440  -17.5440 N.pl3 156  ARG156     -0.0865
     80  CZ       -39.5660  -19.7930  -17.0200 C.cat 156  ARG156      0.5346
     81  NH1      -38.6610  -18.8290  -16.8990 N.pl3 156  ARG156      0.1354
     82  NH2      -39.2910  -21.0140  -16.5820 N.pl3 156  ARG156      0.1354
     83  N        -37.3070  -15.6360  -20.4950 N.3   159  THR159     -0.1203
     84  CA       -36.6270  -16.2920  -19.3830 C.3   159  THR159      0.1994
     85  C        -36.6100  -17.8210  -19.4820 C.2   159  THR159      0.2618
     86  O        -35.7820  -18.4480  -18.8210 O.2   159  THR159     -0.2717
     87  CB       -37.2540  -15.8470  -18.0480 C.3   159  THR159      0.1784
     88  OG1      -38.6320  -16.2060  -18.0320 O.3   159  THR159     -0.2211
     89  CG2      -37.0840  -14.3220  -17.8360 C.3   159  THR159      0.0376
     90  N        -37.4460  -18.4380  -20.3260 N.am  160  ILE160     -0.1965
     91  CA       -37.4570  -19.9000  -20.4300 C.3   160  ILE160      0.1727
     92  C        -36.1700  -20.4100  -21.0790 C.2   160  ILE160      0.2616
     93  O        -35.8010  -21.5810  -20.8920 O.2   160  ILE160     -0.2715
     94  CB       -38.7080  -20.3760  -21.2150 C.3   160  ILE160      0.0290
     95  CG1      -38.9330  -21.8790  -21.0460 C.3   160  ILE160      0.0022
     96  CG2      -38.6130  -20.0200  -22.7040 C.3   160  ILE160      0.0023
     97  CD1      -39.5420  -22.2760  -19.6860 C.3   160  ILE160      0.0001
     98  N        -35.4830  -19.5610  -21.8520 N.am  161  CYS161     -0.1954
     99  CA       -34.1840  -19.8900  -22.4580 C.3   161  CYS161      0.1843
    100  C        -34.2760  -21.0110  -23.5060 C.2   161  CYS161      0.2625
    101  O        -33.3030  -21.7230  -23.7450 O.2   161  CYS161     -0.2714
    102  CB       -33.1600  -20.2760  -21.3890 C.3   161  CYS161      0.0997
    103  SG       -31.4140  -20.0210  -21.9320 S.3   161  CYS161     -0.0797
    104  N        -35.3900  -21.1570  -24.2100 N.am  162  CYS162     -0.1968
    105  CA       -35.4170  -22.1550  -25.2860 C.3   162  CYS162      0.1712
    106  C        -34.5310  -21.7620  -26.4660 C.2   162  CYS162      0.2296
    107  O        -33.8400  -22.6160  -27.0300 O.2   162  CYS162     -0.2864
    108  CB       -36.8400  -22.3640  -25.7820 C.3   162  CYS162      0.0983
    109  SG       -37.8130  -23.3980  -24.6420 S.3   162  CYS162     -0.0798
    110  N        -31.0380  -22.5660  -26.2390 N.3   165  LEU165     -0.1245
    111  CA       -30.8830  -24.0150  -26.1650 C.3   165  LEU165      0.1561
    112  C        -31.1150  -24.6870  -27.5160 C.2   165  LEU165      0.2260
    113  O        -30.5520  -25.7470  -27.7750 O.2   165  LEU165     -0.2867
    114  CB       -31.7920  -24.5790  -25.0740 C.3   165  LEU165      0.0270
    115  CG       -31.4120  -24.1300  -23.6450 C.3   165  LEU165      0.0019
    116  CD1      -32.3780  -24.5950  -22.5750 C.3   165  LEU165      0.0001
    117  CD2      -30.0080  -24.6490  -23.3190 C.3   165  LEU165      0.0001
    118  N        -43.1140  -25.8600  -24.3170 N.3   198  VAL198     -0.1245
    119  CA       -42.2470  -26.0460  -23.1550 C.3   198  VAL198      0.1561
    120  C        -42.6880  -25.1360  -22.0140 C.2   198  VAL198      0.2260
    121  O        -42.7280  -25.5460  -20.8480 O.2   198  VAL198     -0.2867
    122  CB       -40.7900  -25.7780  -23.5720 C.3   198  VAL198      0.0252
    123  CG1      -39.9040  -25.6660  -22.3420 C.3   198  VAL198      0.0019
    124  CG2      -40.3000  -26.8810  -24.4780 C.3   198  VAL198      0.0019
    125  N        -43.9530  -26.1830  -18.3540 N.3   202  ASN202     -0.1240
    126  CA       -43.2190  -25.6860  -17.2050 C.3   202  ASN202      0.1653
    127  C        -44.1490  -24.9500  -16.2490 C.2   202  ASN202      0.2266
    128  O        -43.9820  -25.0340  -15.0370 O.2   202  ASN202     -0.2867
    129  CB       -42.0870  -24.7830  -17.6870 C.3   202  ASN202      0.1155
    130  CG       -41.2680  -24.2280  -16.5400 C.2   202  ASN202      0.2627
    131  OD1      -41.4440  -23.0860  -16.1660 O.2   202  ASN202     -0.2716
    132  ND2      -40.4000  -25.0400  -15.9670 N.am  202  ASN202     -0.0877
    133  N        -44.5230  -25.9170  -12.3800 N.3   206  SER206     -0.1217
    134  CA       -44.1080  -24.9320  -11.3870 C.3   206  SER206      0.1889
    135  C        -45.2640  -24.3860  -10.5690 C.2   206  SER206      0.2288
    136  O        -45.0280  -23.6160   -9.6320 O.2   206  SER206     -0.2866
    137  CB       -43.4170  -23.7480  -12.0820 C.3   206  SER206      0.2089
    138  OG       -42.3020  -24.1890  -12.8220 O.3   206  SER206     -0.2183
    139  N        -45.2790  -24.3970   -6.5610 N.3   209  LYS209     -0.1245
    140  CA       -44.1540  -23.6180   -6.0660 C.3   209  LYS209      0.1561
    141  C        -44.4080  -22.1260   -6.2660 C.2   209  LYS209      0.2260
    142  O        -44.2400  -21.3220   -5.3400 O.2   209  LYS209     -0.2867
    143  CB       -42.8840  -24.0770   -6.7940 C.3   209  LYS209      0.0271
    144  CG       -41.6670  -23.1690   -6.6900 C.3   209  LYS209      0.0035
    145  CD       -40.8780  -23.4270   -5.4190 C.3   209  LYS209      0.0206
    146  CE       -39.4280  -23.0010   -5.6000 C.3   209  LYS209      0.1093
    147  NZ       -38.5360  -23.4240   -4.4720 N.3   209  LYS209     -0.1314
    148  N        -45.0320  -16.0390   -6.7490 N.3   214  HIS214     -0.1241
    149  CA       -44.4570  -15.7110   -8.0510 C.3   214  HIS214      0.1621
    150  C        -45.4680  -15.7820   -9.1960 C.2   214  HIS214      0.2264
    151  O        -46.5210  -16.3960   -9.0850 O.2   214  HIS214     -0.2867
    152  CB       -43.2900  -16.6470   -8.3730 C.3   214  HIS214      0.0745
    153  CG       -42.1880  -16.6190   -7.3590 C.ar  214  HIS214      0.0817
    154  ND1      -42.0100  -15.5700   -6.4820 N.ar  214  HIS214     -0.2268
    155  CD2      -41.1980  -17.5030   -7.0950 C.ar  214  HIS214      0.1154
    156  CE1      -40.9650  -15.8170   -5.7120 C.ar  214  HIS214      0.1986
    157  NE2      -40.4510  -16.9800   -6.0700 N.ar  214  HIS214     -0.2212
    158  N        -36.0030  -31.8400  -27.9200 N.3   278  PHE278     -0.1241
    159  CA       -35.8890  -31.0100  -26.7300 C.3   278  PHE278      0.1605
    160  C        -37.2190  -30.9590  -25.9830 C.2   278  PHE278      0.2264
    161  O        -37.2690  -31.1210  -24.7520 O.2   278  PHE278     -0.2867
    162  CB       -35.4080  -29.6010  -27.0910 C.3   278  PHE278      0.0534
    163  CG       -35.1700  -28.7630  -25.9110 C.ar  278  PHE278     -0.0203
    164  CD1      -33.9220  -28.7740  -25.2830 C.ar  278  PHE278     -0.0042
    165  CD2      -36.1630  -27.9660  -25.4000 C.ar  278  PHE278     -0.0042
    166  CE1      -33.6870  -28.0100  -24.1610 C.ar  278  PHE278     -0.0003
    167  CE2      -35.9360  -27.1960  -24.2610 C.ar  278  PHE278     -0.0003
    168  CZ       -34.7010  -27.2120  -23.6430 C.ar  278  PHE278     -0.0000
    169  N        -37.8020  -32.5190  -22.2840 N.3   282  TYR282     -0.1241
    170  CA       -38.2530  -31.7790  -21.1140 C.3   282  TYR282      0.1605
    171  C        -39.5250  -32.4010  -20.5350 C.2   282  TYR282      0.2264
    172  O        -39.6620  -32.5650  -19.3080 O.2   282  TYR282     -0.2867
    173  CB       -38.4900  -30.3150  -21.4760 C.3   282  TYR282      0.0534
    174  CG       -39.0010  -29.5610  -20.2760 C.ar  282  TYR282     -0.0201
    175  CD1      -38.1580  -29.3170  -19.1990 C.ar  282  TYR282     -0.0009
    176  CD2      -40.3290  -29.1510  -20.1800 C.ar  282  TYR282     -0.0009
    177  CE1      -38.6000  -28.6750  -18.0510 C.ar  282  TYR282      0.0417
    178  CE2      -40.7850  -28.4930  -19.0240 C.ar  282  TYR282      0.0417
    179  CZ       -39.9120  -28.2690  -17.9580 C.ar  282  TYR282      0.1957
    180  OH       -40.3400  -27.6270  -16.7940 O.3   282  TYR282     -0.2866
    181  N        -38.4770  -35.7390  -18.8080 N.3   285  TRP285     -0.1241
    182  CA       -37.7320  -35.4360  -17.5990 C.3   285  TRP285      0.1605
    183  C        -38.6700  -34.9270  -16.5150 C.2   285  TRP285      0.2264
    184  O        -38.5830  -35.3530  -15.3550 O.2   285  TRP285     -0.2867
    185  CB       -36.6290  -34.4220  -17.9070 C.3   285  TRP285      0.0550
    186  CG       -35.9010  -33.9900  -16.6900 C.ar  285  TRP285      0.0003
    187  CD1      -34.8260  -34.6030  -16.1040 C.ar  285  TRP285      0.0946
    188  CD2      -36.1930  -32.8380  -15.8900 C.ar  285  TRP285      0.0152
    189  NE1      -34.4360  -33.9010  -14.9780 N.ar  285  TRP285     -0.2442
    190  CE2      -35.2590  -32.8160  -14.8260 C.ar  285  TRP285      0.0810
    191  CE3      -37.1560  -31.8280  -15.9670 C.ar  285  TRP285      0.0012
    192  CZ2      -35.2610  -31.8140  -13.8410 C.ar  285  TRP285      0.0191
    193  CZ3      -37.1540  -30.8210  -14.9880 C.ar  285  TRP285      0.0001
    194  CH2      -36.2170  -30.8250  -13.9470 C.ar  285  TRP285      0.0015
@<TRIPOS>BOND
     1   158   159    1
     2   113   112    2
     3   112   111    1
     4   162   159    1
     5   162   163    1
     6   107   106    2
     7   159   160    1
     8   106   105    1
     9   110   111    1
    10   111   114    1
    11   160   161    2
    12   163   165   ar
    13   163   164   ar
    14   108   105    1
    15   108   109    1
    16   165   167   ar
    17   105   104    1
    18   164   166   ar
    19   114   115    1
    20   124   122    1
    21   118   119    1
    22   167   168   ar
    23   104   100   am
    24   166   168   ar
    25   101   100    2
    26   115   117    1
    27   115   116    1
    28   122   119    1
    29   122   123    1
    30   100    99    1
    31   119   120    1
    32    96    94    1
    33    99    98    1
    34    99   102    1
    35   169   170    1
    36   120   121    2
    37   103   102    1
    38    98    92   am
    39    74    75    2
    40    74    73    1
    41   173   170    1
    42   173   174    1
    43    29    27    1
    44    94    95    1
    45    94    91    1
    46   170   171    1
    47    92    93    2
    48    92    91    1
    49    95    97    1
    50    17    16    2
    51   171   172    2
    52    83    84    1
    53    91    90    1
    54    72    73    1
    55    90    85   am
    56    73    76    1
    57   174   176   ar
    58   174   175   ar
    59    27    28    1
    60    27    26    1
    61   176   178   ar
    62    76    77    1
    63    16    15    1
    64    85    84    1
    65    85    86    2
    66    84    87    1
    67    77    78    1
    68    22    23    1
    69   175   177   ar
    70    19    21    1
    71    19    18    1
    72   178   179   ar
    73    26    23    1
    74    36    34    1
    75   181   182    1
    76    23    24    1
    77   125   126    1
    78    15    18    1
    79    15    14    1
    80    78    79    1
    81   177   179   ar
    82    87    88    1
    83    87    89    1
    84   179   180    1
    85    18    20    1
    86   185   182    1
    87   185   186    1
    88   129   126    1
    89   129   130    1
    90    34    35    1
    91    34    31    1
    92   182   183    1
    93    79    80    2
    94   126   127    1
    95    24    25    2
    96    80    81    1
    97    80    82    1
    98   186   187   ar
    99   186   188   ar
   100   130   131    2
   101   130   132   am
   102   183   184    2
   103    31    30    1
   104    31    32    1
   105   127   128    2
   106   187   189   ar
   107   191   188   ar
   108   191   193   ar
   109   188   190   ar
   110    45    47   ar
   111    45    43   ar
   112    32    33    2
   113    32    37   am
   114    47    46   ar
   115    43    42   ar
   116   193   194   ar
   117   189   190   ar
   118    10     9    2
   119   190   192   ar
   120    37    38    1
   121   194   192   ar
   122     9     8    1
   123    46    44   ar
   124    42    44   ar
   125    42    41    1
   126    38    41    1
   127    38    39    1
   128    12    11    1
   129     8    11    1
   130     8     7    1
   131    55    53   ar
   132   138   137    1
   133    52    53    1
   134    52    49    1
   135    48    49    1
   136    11    13    1
   137   133   134    1
   138    39    40    2
   139    53    54   ar
   140    49    50    1
   141   137   134    1
   142   134   135    1
   143    50    51    2
   144    50    56   am
   145   135   136    2
   146     4     3    2
   147    56    57    1
   148     3     2    1
   149     6     5    1
   150   150   151    2
   151   150   149    1
   152    70    69   ar
   153    57    60    1
   154    57    58    1
   155   152   149    1
   156   152   153    1
   157     5     2    1
   158    62    61   ar
   159     2     1    1
   160    63    61   ar
   161    61    60    1
   162   149   148    1
   163    58    59    2
   164    71    69   ar
   165    69    68    1
   166   153   155   ar
   167   153   154   ar
   168   155   157   ar
   169    64    65    1
   170   143   144    1
   171   143   140    1
   172   144   145    1
   173   139   140    1
   174   154   156   ar
   175   141   140    1
   176   141   142    2
   177    68    65    1
   178   157   156   ar
   179    65    66    1
   180   146   145    1
   181   146   147    1
   182    66    67    2
