@<TRIPOS>MOLECULE
tmp/5nx7A01.pdb
 238 231 0 0 0
SMALL
GASTEIGER

@<TRIPOS>ATOM
      1  N         -2.5840   -8.6540   18.7890 N.3    51  VAL51      -0.1245
      2  CA        -3.6770   -9.5010   19.2460 C.3    51  VAL51       0.1561
      3  C         -4.7460   -8.6550   19.9620 C.2    51  VAL51       0.2260
      4  O         -5.9400   -8.7510   19.6530 O.2    51  VAL51      -0.2867
      5  CB        -3.1380  -10.6870   20.0790 C.3    51  VAL51       0.0252
      6  CG1       -2.3150  -10.2700   21.2810 C.3    51  VAL51       0.0019
      7  CG2       -4.2730  -11.6200   20.4880 C.3    51  VAL51       0.0019
      8  N         -8.6710   -8.1310   18.7410 N.3    55  TRP55      -0.1241
      9  CA        -9.8080   -8.3840   19.6170 C.3    55  TRP55       0.1605
     10  C        -10.6330   -7.1200   19.7930 C.2    55  TRP55       0.2264
     11  O        -11.8720   -7.1840   19.8780 O.2    55  TRP55      -0.2867
     12  CB        -9.3200   -8.8560   20.9930 C.3    55  TRP55       0.0550
     13  CG        -8.9220  -10.2890   21.1340 C.ar   55  TRP55       0.0003
     14  CD1       -8.0910  -11.0090   20.3310 C.ar   55  TRP55       0.0946
     15  CD2       -9.3200  -11.1680   22.1870 C.ar   55  TRP55       0.0152
     16  NE1       -7.9690  -12.2960   20.8130 N.ar   55  TRP55      -0.2442
     17  CE2       -8.6930  -12.4080   21.9680 C.ar   55  TRP55       0.0810
     18  CE3      -10.1250  -11.0110   23.3220 C.ar   55  TRP55       0.0012
     19  CZ2       -8.8730  -13.4930   22.8180 C.ar   55  TRP55       0.0191
     20  CZ3      -10.2950  -12.0820   24.1650 C.ar   55  TRP55       0.0001
     21  CH2       -9.6830  -13.3110   23.9090 C.ar   55  TRP55       0.0015
     22  N         -2.4230   -8.7660   27.1450 N.3    71  PHE71      -0.1241
     23  CA        -1.7920   -9.8380   26.3800 C.3    71  PHE71       0.1605
     24  C         -0.2710   -9.8210   26.5300 C.2    71  PHE71       0.2264
     25  O          0.3330  -10.8750   26.6760 O.2    71  PHE71      -0.2867
     26  CB        -2.1870   -9.7690   24.8980 C.3    71  PHE71       0.0534
     27  CG        -3.5960  -10.2160   24.6320 C.ar   71  PHE71      -0.0203
     28  CD1       -3.9240  -11.5530   24.6290 C.ar   71  PHE71      -0.0042
     29  CD2       -4.5920   -9.3020   24.4160 C.ar   71  PHE71      -0.0042
     30  CE1       -5.2080  -11.9600   24.3800 C.ar   71  PHE71      -0.0003
     31  CE2       -5.8780   -9.7130   24.1540 C.ar   71  PHE71      -0.0003
     32  CZ        -6.1940  -11.0220   24.1610 C.ar   71  PHE71      -0.0000
     33  N          0.5410  -11.2820   29.7450 N.3    74  PHE74      -0.1227
     34  CA         0.3570  -12.7210   29.6880 C.3    74  PHE74       0.1736
     35  C          1.5980  -13.4180   29.1170 C.2    74  PHE74       0.2595
     36  O          2.0560  -14.4390   29.6540 O.2    74  PHE74      -0.2718
     37  CB        -0.8820  -13.0640   28.8570 C.3    74  PHE74       0.0547
     38  CG        -0.8910  -14.4990   28.4460 C.ar   74  PHE74      -0.0202
     39  CD1       -1.3240  -15.4730   29.3340 C.ar   74  PHE74      -0.0042
     40  CD2       -0.3930  -14.8850   27.2100 C.ar   74  PHE74      -0.0042
     41  CE1       -1.3020  -16.8160   28.9900 C.ar   74  PHE74      -0.0003
     42  CE2       -0.3720  -16.2330   26.8580 C.ar   74  PHE74      -0.0003
     43  CZ        -0.8290  -17.1940   27.7460 C.ar   74  PHE74      -0.0000
     44  N          2.1470  -12.9080   28.0080 N.am   75  PHE75      -0.1976
     45  CA         3.3210  -13.5600   27.4330 C.3    75  PHE75       0.1639
     46  C          4.4450  -13.6160   28.4550 C.2    75  PHE75       0.2290
     47  O          5.1260  -14.6310   28.5870 O.2    75  PHE75      -0.2864
     48  CB         3.8140  -12.8470   26.1730 C.3    75  PHE75       0.0560
     49  CG         2.8110  -12.7720   25.0700 C.ar   75  PHE75      -0.0200
     50  CD1        2.1070  -13.9000   24.6840 C.ar   75  PHE75      -0.0042
     51  CD2        2.5590  -11.5660   24.4240 C.ar   75  PHE75      -0.0042
     52  CE1        1.1810  -13.8310   23.6750 C.ar   75  PHE75      -0.0003
     53  CE2        1.6090  -11.4890   23.4060 C.ar   75  PHE75      -0.0003
     54  CZ         0.9120  -12.6250   23.0460 C.ar   75  PHE75      -0.0000
     55  N          3.2370  -16.0510   31.4060 N.3    78  ASP78      -0.1239
     56  CA         3.2240  -17.4210   30.8880 C.3    78  ASP78       0.1674
     57  C          4.6340  -17.9510   30.6820 C.2    78  ASP78       0.2266
     58  O          4.9590  -19.0750   31.0880 O.2    78  ASP78      -0.2867
     59  CB         2.4440  -17.4300   29.5610 C.3    78  ASP78       0.1410
     60  CG         2.1650  -18.8350   29.0320 C.2    78  ASP78       0.3668
     61  OD1        1.4770  -19.5780   29.7510 O.co2  78  ASP78      -0.2456
     62  OD2        2.5880  -19.1770   27.8930 O.co2  78  ASP78      -0.2456
     63  N         -7.1380  -19.0410   37.0000 N.3   137  TYR137     -0.1241
     64  CA        -6.0750  -19.0270   36.0050 C.3   137  TYR137      0.1605
     65  C         -4.7030  -19.0040   36.6720 C.2   137  TYR137      0.2264
     66  O         -3.8000  -19.7630   36.2940 O.2   137  TYR137     -0.2867
     67  CB        -6.2390  -17.8230   35.0790 C.3   137  TYR137      0.0534
     68  CG        -4.9430  -17.4630   34.4060 C.ar  137  TYR137     -0.0201
     69  CD1       -4.4330  -18.2330   33.3760 C.ar  137  TYR137     -0.0009
     70  CD2       -4.2260  -16.3380   34.7990 C.ar  137  TYR137     -0.0009
     71  CE1       -3.2340  -17.9130   32.7770 C.ar  137  TYR137      0.0417
     72  CE2       -3.0380  -16.0140   34.2130 C.ar  137  TYR137      0.0417
     73  CZ        -2.5480  -16.7900   33.1950 C.ar  137  TYR137      0.1957
     74  OH        -1.3610  -16.4630   32.6070 O.3   137  TYR137     -0.2866
     75  N         -0.0020  -27.3480   35.8980 N.3   144  GLU144     -0.1245
     76  CA         0.9520  -27.5540   34.8140 C.3   144  GLU144      0.1567
     77  C          2.3310  -27.8980   35.3610 C.2   144  GLU144      0.2260
     78  O          3.0440  -28.7290   34.7860 O.2   144  GLU144     -0.2867
     79  CB         1.0270  -26.3100   33.9280 C.3   144  GLU144      0.0388
     80  CG        -0.1290  -26.1610   32.9520 C.3   144  GLU144      0.1160
     81  CD        -0.0070  -24.9170   32.0960 C.2   144  GLU144      0.3649
     82  OE1        0.3000  -23.8410   32.6500 O.co2 144  GLU144     -0.2457
     83  OE2       -0.2070  -25.0190   30.8670 O.co2 144  GLU144     -0.2457
     84  N         -7.9900  -26.7230   30.5730 N.3   161  ARG161     -0.1245
     85  CA        -7.8500  -25.5350   29.7220 C.3   161  ARG161      0.1563
     86  C         -9.0150  -24.5610   29.9110 C.2   161  ARG161      0.2260
     87  O         -8.8010  -23.3420   29.9410 O.2   161  ARG161     -0.2867
     88  CB        -7.7210  -25.9340   28.2430 C.3   161  ARG161      0.0307
     89  CG        -6.2850  -26.2060   27.7200 C.3   161  ARG161      0.0489
     90  CD        -5.3460  -24.9480   27.6390 C.3   161  ARG161      0.2205
     91  NE        -5.0110  -24.4870   26.2690 N.pl3 161  ARG161     -0.0865
     92  CZ        -4.2230  -23.4310   26.0120 C.cat 161  ARG161      0.5346
     93  NH1       -3.6930  -22.7570   27.0260 N.pl3 161  ARG161      0.1354
     94  NH2       -3.9540  -23.0330   24.7530 N.pl3 161  ARG161      0.1354
     95  N         -6.4440  -19.2260   30.5430 N.3   166  PHE166     -0.1227
     96  CA        -6.4830  -17.7590   30.4270 C.3   166  PHE166      0.1736
     97  C         -7.7540  -17.2220   29.7750 C.2   166  PHE166      0.2595
     98  O         -8.0000  -16.0040   29.8230 O.2   166  PHE166     -0.2718
     99  CB        -5.2520  -17.2730   29.6480 C.3   166  PHE166      0.0547
    100  CG        -4.9900  -15.8120   29.7510 C.ar  166  PHE166     -0.0202
    101  CD1       -5.0240  -15.1520   30.9740 C.ar  166  PHE166     -0.0042
    102  CD2       -4.6510  -15.0940   28.6260 C.ar  166  PHE166     -0.0042
    103  CE1       -4.7510  -13.7950   31.0530 C.ar  166  PHE166     -0.0003
    104  CE2       -4.3940  -13.7470   28.7020 C.ar  166  PHE166     -0.0003
    105  CZ        -4.4310  -13.0970   29.8890 C.ar  166  PHE166     -0.0000
    106  N         -8.6070  -18.0780   29.2470 N.am  167  MET167     -0.1979
    107  CA        -9.8010  -17.5600   28.6020 C.3   167  MET167      0.1605
    108  C        -10.8380  -17.0210   29.5930 C.2   167  MET167      0.2287
    109  O        -11.5160  -16.0430   29.2590 O.2   167  MET167     -0.2864
    110  CB       -10.4310  -18.6180   27.6790 C.3   167  MET167      0.0413
    111  CG        -9.8130  -18.5950   26.2770 C.3   167  MET167      0.0598
    112  SD        -9.8050  -16.9990   25.4330 S.3   167  MET167     -0.1393
    113  CE       -11.5440  -16.6470   25.3170 C.3   167  MET167      0.0692
    114  N         -9.9200  -13.5370   30.0510 N.3   170  LEU170     -0.1245
    115  CA       -10.0750  -12.7500   28.8290 C.3   170  LEU170      0.1561
    116  C        -11.5350  -12.4920   28.4630 C.2   170  LEU170      0.2260
    117  O        -11.8570  -11.4060   27.9700 O.2   170  LEU170     -0.2867
    118  CB        -9.3720  -13.4490   27.6750 C.3   170  LEU170      0.0270
    119  CG        -7.8500  -13.4000   27.7340 C.3   170  LEU170      0.0019
    120  CD1       -7.2770  -14.2700   26.6140 C.3   170  LEU170      0.0001
    121  CD2       -7.3720  -11.9610   27.5910 C.3   170  LEU170      0.0001
    122  N        -10.8940  -20.8370   21.0510 N.3   203  ILE203     -0.1231
    123  CA        -9.6370  -20.0870   21.1110 C.3   203  ILE203      0.1692
    124  C         -8.5160  -20.9540   21.6730 C.2   203  ILE203      0.2592
    125  O         -7.4080  -20.9840   21.1100 O.2   203  ILE203     -0.2718
    126  CB        -9.8300  -18.7850   21.9080 C.3   203  ILE203      0.0266
    127  CG1      -10.6420  -17.8290   21.0270 C.3   203  ILE203      0.0019
    128  CG2       -8.5130  -18.1820   22.2910 C.3   203  ILE203      0.0020
    129  CD1      -11.1850  -16.5620   21.7170 C.3   203  ILE203      0.0001
    130  N         -8.7910  -21.7120   22.7340 N.am  204  ASN204     -0.1974
    131  CA        -7.7740  -22.6090   23.3060 C.3   204  ASN204      0.1688
    132  C         -7.2260  -23.5500   22.2460 C.2   204  ASN204      0.2292
    133  O         -6.0060  -23.7420   22.1380 O.2   204  ASN204     -0.2864
    134  CB        -8.3450  -23.4570   24.4460 C.3   204  ASN204      0.1181
    135  CG        -8.7140  -22.6640   25.6680 C.2   204  ASN204      0.2629
    136  OD1       -8.1360  -21.6360   25.9610 O.2   204  ASN204     -0.2716
    137  ND2       -9.6490  -23.2080   26.4390 N.am  204  ASN204     -0.0877
    138  N         -5.4210  -22.0380   19.2620 N.3   207  ASN207     -0.1225
    139  CA        -4.0530  -21.7480   19.6920 C.3   207  ASN207      0.1785
    140  C         -3.2250  -23.0270   19.7890 C.2   207  ASN207      0.2597
    141  O         -2.0570  -23.0450   19.3900 O.2   207  ASN207     -0.2718
    142  CB        -4.0270  -21.0160   21.0360 C.3   207  ASN207      0.1169
    143  CG        -2.6260  -20.9140   21.6010 C.2   207  ASN207      0.2627
    144  OD1       -2.1410  -21.8300   22.3000 O.2   207  ASN207     -0.2716
    145  ND2       -1.9400  -19.8230   21.2700 N.am  207  ASN207     -0.0877
    146  N         -3.7930  -24.1090   20.3360 N.am  208  ASP208     -0.1974
    147  CA        -3.0220  -25.3560   20.4270 C.3   208  ASP208      0.1709
    148  C         -2.5260  -25.7900   19.0490 C.2   208  ASP208      0.2293
    149  O         -1.3590  -26.1790   18.8870 O.2   208  ASP208     -0.2864
    150  CB        -3.8620  -26.4680   21.0550 C.3   208  ASP208      0.1436
    151  CG        -3.9160  -26.3990   22.5860 C.2   208  ASP208      0.3671
    152  OD1       -3.4370  -25.4170   23.1900 O.co2 208  ASP208     -0.2456
    153  OD2       -4.4460  -27.3750   23.1840 O.co2 208  ASP208     -0.2456
    154  N          0.1260  -23.0680   17.7500 N.3   211  SER211     -0.1217
    155  CA         1.3590  -22.9790   18.5320 C.3   211  SER211      0.1889
    156  C          2.0160  -24.3450   18.7730 C.2   211  SER211      0.2288
    157  O          2.9510  -24.4440   19.5810 O.2   211  SER211     -0.2866
    158  CB         1.1020  -22.2730   19.8590 C.3   211  SER211      0.2089
    159  OG         0.1920  -22.9550   20.7280 O.3   211  SER211     -0.2183
    160  N          5.9350  -24.6680   18.2710 N.3   214  LYS214     -0.1231
    161  CA         6.6680  -23.9870   19.3370 C.3   214  LYS214      0.1693
    162  C          6.6900  -24.8200   20.6140 C.2   214  LYS214      0.2591
    163  O          7.7310  -24.9760   21.2670 O.2   214  LYS214     -0.2718
    164  CB         6.0380  -22.6150   19.6220 C.3   214  LYS214      0.0285
    165  CG         6.5500  -21.9620   20.9230 C.3   214  LYS214      0.0035
    166  CD         5.9040  -20.6520   21.2330 C.3   214  LYS214      0.0206
    167  CE         4.6720  -20.8200   22.0990 C.3   214  LYS214      0.1093
    168  NZ         4.9610  -20.8740   23.5570 N.3   214  LYS214     -0.1314
    169  N          5.5340  -25.3440   21.0010 N.am  215  GLU215     -0.1979
    170  CA         5.4430  -26.0710   22.2590 C.3   215  GLU215      0.1602
    171  C          6.1640  -27.4120   22.1820 C.2   215  GLU215      0.2287
    172  O          6.8420  -27.8130   23.1380 O.2   215  GLU215     -0.2864
    173  CB         3.9660  -26.1990   22.6140 C.3   215  GLU215      0.0415
    174  CG         3.4520  -24.7830   22.9540 C.3   215  GLU215      0.1163
    175  CD         1.9700  -24.6560   23.1460 C.2   215  GLU215      0.3649
    176  OE1        1.2470  -25.6550   22.9330 O.co2 215  GLU215     -0.2457
    177  OE2        1.5250  -23.5280   23.5040 O.co2 215  GLU215     -0.2457
    178  N          1.6120  -29.6180   27.1360 N.3   222  HIS222     -0.1241
    179  CA         0.2820  -29.0600   27.3580 C.3   222  HIS222      0.1621
    180  C         -0.2480  -28.5470   26.0240 C.2   222  HIS222      0.2264
    181  O         -0.2670  -27.3510   25.7260 O.2   222  HIS222     -0.2867
    182  CB         0.3280  -27.9820   28.4340 C.3   222  HIS222      0.0745
    183  CG         0.6310  -28.5210   29.8000 C.ar  222  HIS222      0.0817
    184  ND1        1.8650  -28.3860   30.4010 N.ar  222  HIS222     -0.2268
    185  CD2       -0.1370  -29.2160   30.6730 C.ar  222  HIS222      0.1154
    186  CE1        1.8400  -28.9660   31.5880 C.ar  222  HIS222      0.1986
    187  NE2        0.6370  -29.4770   31.7770 N.ar  222  HIS222     -0.2212
    188  N         -8.0250  -14.1400   17.4590 N.3   292  ASN292     -0.1240
    189  CA        -7.1080  -15.1860   17.8970 C.3   292  ASN292      0.1653
    190  C         -6.5990  -15.9790   16.7090 C.2   292  ASN292      0.2266
    191  O         -5.4010  -16.2520   16.5980 O.2   292  ASN292     -0.2867
    192  CB        -7.8040  -16.1190   18.8770 C.3   292  ASN292      0.1155
    193  CG        -6.9220  -17.2680   19.2980 C.2   292  ASN292      0.2627
    194  OD1       -5.9060  -17.0510   19.9660 O.2   292  ASN292     -0.2716
    195  ND2       -7.2830  -18.4990   18.9020 N.am  292  ASN292     -0.0877
    196  N         -4.2710  -13.7430   14.4720 N.3   295  TRP295     -0.1227
    197  CA        -3.0130  -13.4270   15.1370 C.3   295  TRP295      0.1737
    198  C         -2.1390  -14.6760   15.2960 C.2   295  TRP295      0.2595
    199  O         -0.9430  -14.6440   14.9980 O.2   295  TRP295     -0.2718
    200  CB        -3.2580  -12.7670   16.5040 C.3   295  TRP295      0.0564
    201  CG        -1.9580  -12.3260   17.1090 C.ar  295  TRP295      0.0003
    202  CD1       -1.2420  -11.1940   16.8010 C.ar  295  TRP295      0.0946
    203  CD2       -1.1990  -13.0110   18.1060 C.ar  295  TRP295      0.0152
    204  NE1       -0.0780  -11.1590   17.5320 N.ar  295  TRP295     -0.2442
    205  CE2       -0.0440  -12.2500   18.3560 C.ar  295  TRP295      0.0810
    206  CE3       -1.3830  -14.2050   18.8110 C.ar  295  TRP295      0.0012
    207  CZ2        0.9380  -12.6470   19.2750 C.ar  295  TRP295      0.0191
    208  CZ3       -0.4150  -14.5790   19.7460 C.ar  295  TRP295      0.0001
    209  CH2        0.7310  -13.8080   19.9530 C.ar  295  TRP295      0.0015
    210  N         -2.7140  -15.7830   15.7460 N.am  296  CYS296     -0.1970
    211  CA        -1.9160  -16.9920   15.8950 C.3   296  CYS296      0.1712
    212  C         -1.3440  -17.4170   14.5520 C.2   296  CYS296      0.2296
    213  O         -0.2480  -17.9670   14.4910 O.2   296  CYS296     -0.2864
    214  CB        -2.7460  -18.1210   16.4960 C.3   296  CYS296      0.0983
    215  SG        -3.1620  -17.9650   18.2490 S.3   296  CYS296     -0.0798
    216  N          5.8020  -15.2820   17.0180 N.3   301  ARG301     -0.1231
    217  CA         5.9140  -16.0550   18.2560 C.3   301  ARG301      0.1694
    218  C          5.7690  -17.5470   17.9690 C.2   301  ARG301      0.2592
    219  O          6.4240  -18.3660   18.6190 O.2   301  ARG301     -0.2718
    220  CB         4.8690  -15.6030   19.2830 C.3   301  ARG301      0.0321
    221  CG         4.8900  -16.3300   20.6540 C.3   301  ARG301      0.0489
    222  CD         3.7960  -15.8130   21.5880 C.3   301  ARG301      0.2205
    223  NE         3.5480  -16.6370   22.7780 N.pl3 301  ARG301     -0.0865
    224  CZ         4.2810  -16.6470   23.8910 C.cat 301  ARG301      0.5346
    225  NH1        5.3820  -15.9190   24.0310 N.pl3 301  ARG301      0.1354
    226  NH2        3.9060  -17.4240   24.9020 N.pl3 301  ARG301      0.1354
    227  N          4.9140  -17.9080   17.0030 N.am  302  TYR302     -0.1976
    228  CA         4.6660  -19.3180   16.6450 C.3   302  TYR302      0.1639
    229  C          5.3420  -19.6900   15.3320 C.2   302  TYR302      0.2290
    230  O          5.6150  -20.8860   15.0910 O.2   302  TYR302     -0.2864
    231  CB         3.1660  -19.5810   16.5500 C.3   302  TYR302      0.0560
    232  CG         2.4070  -19.1530   17.7660 C.ar  302  TYR302     -0.0198
    233  CD1        2.9320  -19.3230   19.0400 C.ar  302  TYR302     -0.0009
    234  CD2        1.1680  -18.5530   17.6450 C.ar  302  TYR302     -0.0009
    235  CE1        2.2200  -18.8980   20.1780 C.ar  302  TYR302      0.0417
    236  CE2        0.4630  -18.1190   18.7570 C.ar  302  TYR302      0.0417
    237  CZ         0.9920  -18.3050   20.0150 C.ar  302  TYR302      0.1957
    238  OH         0.2380  -17.8380   21.0790 O.3   302  TYR302     -0.2866
@<TRIPOS>BOND
     1   196   197    1
     2   213   212    2
     3   212   211    1
     4   199   198    2
     5   230   229    2
     6   197   198    1
     7   197   200    1
     8   198   210   am
     9   229   228    1
    10   210   211    1
    11   211   214    1
    12   214   215    1
    13   200   201    1
    14   231   228    1
    15   231   232    1
    16   191   190    2
    17   228   227    1
    18   190   189    1
    19   202   201   ar
    20   202   204   ar
    21   227   218   am
    22   216   217    1
    23   201   203   ar
    24   188   189    1
    25   204   205   ar
    26   234   232   ar
    27   234   236   ar
    28   154   155    1
    29   232   233   ar
    30   189   192    1
    31   218   217    1
    32   218   219    2
    33   203   205   ar
    34   203   206   ar
    35   217   220    1
    36   160   161    1
    37   205   207   ar
    38   155   156    1
    39   155   158    1
    40     8     9    1
    41   236   237   ar
    42   156   157    2
    43     1     2    1
    44   206   208   ar
    45   192   193    1
    46   149   148    2
    47   195   193   am
    48   233   235   ar
    49   148   147    1
    50     2     3    1
    51     2     5    1
    52   138   139    1
    53   207   209   ar
    54   220   221    1
    55   193   194    2
    56   161   164    1
    57   161   162    1
    58   141   140    2
    59     9    10    1
    60     9    12    1
    61   164   165    1
    62     4     3    2
    63   139   140    1
    64   139   142    1
    65   208   209   ar
    66   140   146   am
    67    10    11    2
    68   158   159    1
    69   237   235   ar
    70   237   238    1
    71     5     7    1
    72     5     6    1
    73    14    16   ar
    74    14    13   ar
    75   146   147    1
    76   147   150    1
    77   162   169   am
    78   162   163    2
    79   221   222    1
    80    16    17   ar
    81   165   166    1
    82    12    13    1
    83   169   170    1
    84   127   129    1
    85   127   126    1
    86   142   143    1
    87   122   123    1
    88   150   151    1
    89   125   124    2
    90   123   124    1
    91   123   126    1
    92    13    15   ar
    93   166   167    1
    94   145   143   am
    95   222   223    1
    96   143   144    2
    97   124   130   am
    98   126   128    1
    99    17    15   ar
   100    17    19   ar
   101   167   168    1
   102   133   132    2
   103   171   170    1
   104   171   172    2
   105    15    18   ar
   106   132   131    1
   107   170   173    1
   108   151   153   ar
   109   151   152   ar
   110   173   174    1
   111   130   131    1
   112   223   224    2
   113    19    21   ar
   114   176   175   ar
   115   174   175    1
   116    54    53   ar
   117    54    52   ar
   118   175   177   ar
   119   131   134    1
   120    18    20   ar
   121    53    51   ar
   122    52    50   ar
   123   224   225    1
   124   224   226    1
   125    21    20   ar
   126    31    32   ar
   127    31    29   ar
   128    32    30   ar
   129    30    28   ar
   130    29    27   ar
   131    51    49   ar
   132   134   135    1
   133    28    27   ar
   134    27    26    1
   135    50    49   ar
   136    94    92    1
   137    26    23    1
   138    49    48    1
   139   113   112    1
   140   112   111    1
   141   135   136    2
   142   135   137   am
   143   181   180    2
   144    92    91    2
   145    92    93    1
   146   180   179    1
   147    48    45    1
   148    91    90    1
   149   111   110    1
   150    23    24    1
   151    23    22    1
   152    24    25    2
   153   120   119    1
   154    42    40   ar
   155    42    43   ar
   156   178   179    1
   157    40    38   ar
   158   179   182    1
   159    45    44    1
   160    45    46    1
   161   121   119    1
   162    90    89    1
   163   118   119    1
   164   118   115    1
   165   110   107    1
   166    89    88    1
   167    43    41   ar
   168    62    60   ar
   169   117   116    2
   170    44    35   am
   171    88    85    1
   172   182   183    1
   173    38    37    1
   174    38    39   ar
   175    46    47    2
   176   116   115    1
   177   107   106    1
   178   107   108    1
   179   102   104   ar
   180   102   100   ar
   181   104   105   ar
   182   115   114    1
   183    37    34    1
   184    41    39   ar
   185    60    59    1
   186    60    61   ar
   187    35    36    2
   188    35    34    1
   189   106    97   am
   190   109   108    2
   191    59    56    1
   192    99   100    1
   193    99    96    1
   194    34    33    1
   195    85    86    1
   196    85    84    1
   197   100   101   ar
   198    97    98    2
   199    97    96    1
   200   183   184   ar
   201   183   185   ar
   202   105   103   ar
   203    86    87    2
   204   184   186   ar
   205    96    95    1
   206   185   187   ar
   207    57    56    1
   208    57    58    2
   209    83    81   ar
   210    56    55    1
   211   101   103   ar
   212   186   187   ar
   213    81    82   ar
   214    81    80    1
   215    74    73    1
   216    71    73   ar
   217    71    69   ar
   218    80    79    1
   219    73    72   ar
   220    69    68   ar
   221    79    76    1
   222    72    70   ar
   223    68    70   ar
   224    68    67    1
   225    78    77    2
   226    76    77    1
   227    76    75    1
   228    67    64    1
   229    64    65    1
   230    64    63    1
   231    66    65    2
