@<TRIPOS>MOLECULE
tmp/5nx8C01.pdb
 97 92 0 0 0
SMALL
GASTEIGER

@<TRIPOS>ATOM
      1  N          1.4710    8.8300  -38.0680 N.3   113  LEU113     -0.1245
      2  CA         2.1140    7.5970  -37.5080 C.3   113  LEU113      0.1561
      3  C          3.2170    7.9010  -36.5320 C.2   113  LEU113      0.2260
      4  O          3.2700    7.3600  -35.3970 O.2   113  LEU113     -0.2867
      5  CB         2.6100    6.7000  -38.6200 C.3   113  LEU113      0.0270
      6  CG         1.5240    6.0620  -39.4770 C.3   113  LEU113      0.0019
      7  CD1        2.0790    5.4680  -40.7570 C.3   113  LEU113      0.0001
      8  CD2        0.8140    5.0180  -38.6690 C.3   113  LEU113      0.0001
      9  N          1.0570   -2.5100  -29.6060 N.3   181  VAL181     -0.1245
     10  CA         0.5660   -1.6250  -30.6420 C.3   181  VAL181      0.1561
     11  C          1.6820   -0.6850  -31.0910 C.2   181  VAL181      0.2260
     12  O          1.9180   -0.4930  -32.2920 O.2   181  VAL181     -0.2867
     13  CB        -0.6720   -0.8570  -30.1880 C.3   181  VAL181      0.0252
     14  CG1       -0.9880    0.2050  -31.1890 C.3   181  VAL181      0.0019
     15  CG2       -1.8440   -1.8180  -30.0820 C.3   181  VAL181      0.0019
     16  N          4.2770   -2.6930  -33.1450 N.3   184  ASP184     -0.1225
     17  CA         3.7520   -3.1960  -34.3940 C.3   184  ASP184      0.1805
     18  C          3.3060   -2.1360  -35.3930 C.2   184  ASP184      0.2598
     19  O          3.0000   -2.4880  -36.5290 O.2   184  ASP184     -0.2718
     20  CB         2.6230   -4.2390  -34.1540 C.3   184  ASP184      0.1424
     21  CG         3.1620   -5.5450  -33.5220 C.2   184  ASP184      0.3668
     22  OD1        4.4140   -5.7100  -33.4300 O.co2 184  ASP184     -0.2456
     23  OD2        2.3380   -6.4100  -33.1590 O.co2 184  ASP184     -0.2456
     24  N          3.3760   -0.8570  -35.0210 N.am  185  LEU185     -0.1966
     25  CA         3.0300    0.2210  -35.9230 C.3   185  LEU185      0.1728
     26  C          3.9880    0.2520  -37.1260 C.2   185  LEU185      0.2616
     27  O          5.2010    0.2170  -36.9510 O.2   185  LEU185     -0.2715
     28  CB         3.0700    1.5490  -35.1910 C.3   185  LEU185      0.0311
     29  CG         2.1600    2.6830  -35.6060 C.3   185  LEU185      0.0022
     30  CD1        0.6780    2.3820  -35.3820 C.3   185  LEU185      0.0001
     31  CD2        2.5500    3.9650  -34.8630 C.3   185  LEU185      0.0001
     32  N          3.4460    0.1970  -38.3340 N.am  186  ARG186     -0.1977
     33  CA         4.2130    0.2420  -39.5480 C.3   186  ARG186      0.1597
     34  C          4.1550    1.5940  -40.1840 C.2   186  ARG186      0.2287
     35  O          3.1810    2.3430  -39.9940 O.2   186  ARG186     -0.2864
     36  CB         3.7010   -0.7880  -40.5670 C.3   186  ARG186      0.0334
     37  CG         3.7330   -2.2200  -40.0710 C.3   186  ARG186      0.0492
     38  CD         3.3580   -3.1820  -41.1780 C.3   186  ARG186      0.2205
     39  NE         2.5460   -4.2420  -40.6240 N.pl3 186  ARG186     -0.0865
     40  CZ         1.8950   -5.1510  -41.3250 C.cat 186  ARG186      0.5346
     41  NH1        1.9470   -5.1760  -42.6440 N.pl3 186  ARG186      0.1354
     42  NH2        1.1920   -6.0710  -40.6700 N.pl3 186  ARG186      0.1354
     43  N          4.4580   -0.7090  -44.5200 N.3   228  PHE228     -0.1241
     44  CA         3.4980   -1.3800  -45.3710 C.3   228  PHE228      0.1605
     45  C          4.0230   -1.6930  -46.7360 C.2   228  PHE228      0.2264
     46  O          4.7550   -0.8710  -47.3490 O.2   228  PHE228     -0.2867
     47  CB         2.1890   -0.5910  -45.5180 C.3   228  PHE228      0.0534
     48  CG         1.3750   -0.5610  -44.2780 C.ar  228  PHE228     -0.0203
     49  CD1        0.5740   -1.6210  -43.9350 C.ar  228  PHE228     -0.0042
     50  CD2        1.4360    0.5140  -43.4370 C.ar  228  PHE228     -0.0042
     51  CE1       -0.2000   -1.5670  -42.7770 C.ar  228  PHE228     -0.0003
     52  CE2        0.6850    0.5740  -42.2850 C.ar  228  PHE228     -0.0003
     53  CZ        -0.1140   -0.4790  -41.9450 C.ar  228  PHE228     -0.0000
     54  N         -2.2970    4.7590  -44.6770 N.3   235  TYR235     -0.1241
     55  CA        -2.2530    3.5230  -43.9090 C.3   235  TYR235      0.1605
     56  C         -3.7180    3.1340  -43.6610 C.2   235  TYR235      0.2264
     57  O         -4.5670    4.0150  -43.5360 O.2   235  TYR235     -0.2867
     58  CB        -1.4780    3.6830  -42.6020 C.3   235  TYR235      0.0534
     59  CG        -2.0410    4.6080  -41.5160 C.ar  235  TYR235     -0.0201
     60  CD1       -3.0200    4.1660  -40.6670 C.ar  235  TYR235     -0.0009
     61  CD2       -1.5310    5.8950  -41.3110 C.ar  235  TYR235     -0.0009
     62  CE1       -3.4870    4.9320  -39.6360 C.ar  235  TYR235      0.0417
     63  CE2       -1.9740    6.6930  -40.2580 C.ar  235  TYR235      0.0417
     64  CZ        -2.9890    6.2270  -39.4360 C.ar  235  TYR235      0.1957
     65  OH        -3.4880    7.0370  -38.4330 O.3   235  TYR235     -0.2866
     66  N         -7.9100    0.7940  -40.1590 N.3   238  LYS238     -0.1231
     67  CA        -7.9070   -0.2110  -39.1520 C.3   238  LYS238      0.1693
     68  C         -6.8490    0.0640  -38.0450 C.2   238  LYS238      0.2591
     69  O         -7.0190   -0.3150  -36.8850 O.2   238  LYS238     -0.2718
     70  CB        -7.6790   -1.6160  -39.8010 C.3   238  LYS238      0.0285
     71  CG        -8.0350   -2.7500  -38.9370 C.3   238  LYS238      0.0035
     72  CD        -7.9590   -4.0970  -39.7100 C.3   238  LYS238      0.0206
     73  CE        -8.3480   -5.2050  -38.8040 C.3   238  LYS238      0.1093
     74  NZ        -9.8030   -5.1830  -38.5410 N.3   238  LYS238     -0.1314
     75  N         -5.7440    0.6960  -38.3880 N.am  239  VAL239     -0.1980
     76  CA        -4.7070    0.9980  -37.3690 C.3   239  VAL239      0.1595
     77  C         -5.2610    1.8940  -36.2680 C.2   239  VAL239      0.2287
     78  O         -4.9300    1.7360  -35.1050 O.2   239  VAL239     -0.2864
     79  CB        -3.4960    1.6650  -38.0540 C.3   239  VAL239      0.0276
     80  CG1       -2.5800    2.3350  -37.0740 C.3   239  VAL239      0.0022
     81  CG2       -2.7810    0.7150  -38.9880 C.3   239  VAL239      0.0022
     82  N         -7.2450   -0.1200  -33.8110 N.3   242  GLU242     -0.1231
     83  CA        -6.3660   -0.9030  -32.9150 C.3   242  GLU242      0.1699
     84  C         -5.8590   -0.0110  -31.8030 C.2   242  GLU242      0.2592
     85  O         -5.9430   -0.3770  -30.6350 O.2   242  GLU242     -0.2718
     86  CB        -5.2120   -1.5060  -33.7140 C.3   242  GLU242      0.0402
     87  CG        -4.1680   -2.2910  -32.9070 C.3   242  GLU242      0.1161
     88  CD        -3.2260   -3.1170  -33.8060 C.2   242  GLU242      0.3649
     89  OE1       -3.7290   -3.7020  -34.8020 O.co2 242  GLU242     -0.2457
     90  OE2       -1.9820   -3.1520  -33.5670 O.co2 242  GLU242     -0.2457
     91  N         -5.4240    1.1940  -32.1520 N.am  243  VAL243     -0.1980
     92  CA        -4.9110    2.1530  -31.1690 C.3   243  VAL243      0.1595
     93  C         -5.9660    2.6300  -30.1740 C.2   243  VAL243      0.2287
     94  O         -5.7580    2.5350  -28.9640 O.2   243  VAL243     -0.2864
     95  CB        -4.2320    3.3600  -31.8380 C.3   243  VAL243      0.0276
     96  CG1       -3.6780    4.3360  -30.7920 C.3   243  VAL243      0.0022
     97  CG2       -3.0600    2.8740  -32.6820 C.3   243  VAL243      0.0022
@<TRIPOS>BOND
     1    46    45    2
     2    45    44    1
     3    47    44    1
     4    47    48    1
     5    44    43    1
     6    54    55    1
     7    48    49   ar
     8    48    50   ar
     9    49    51   ar
    10    55    56    1
    11    55    58    1
    12    56    57    2
    13    50    52   ar
    14    51    53   ar
    15    41    40    1
    16    58    59    1
    17    52    53   ar
    18    59    61   ar
    19    59    60   ar
    20    40    42    1
    21    40    39    2
    22    61    63   ar
    23    38    39    1
    24    38    37    1
    25     7     6    1
    26    60    62   ar
    27    36    37    1
    28    36    33    1
    29    63    64   ar
    30    34    35    2
    31    34    33    1
    32    66    67    1
    33    70    67    1
    34    70    71    1
    35    72    71    1
    36    72    73    1
    37    62    64   ar
    38    33    32    1
    39     6     8    1
    40     6     5    1
    41    64    65    1
    42    67    68    1
    43    81    79    1
    44    73    74    1
    45     5     2    1
    46    75    68   am
    47    75    76    1
    48    32    26   am
    49     1     2    1
    50    79    76    1
    51    79    80    1
    52    68    69    2
    53     2     3    1
    54    76    77    1
    55    26    27    2
    56    26    25    1
    57     3     4    2
    58    19    18    2
    59    77    78    2
    60    25    28    1
    61    25    24    1
    62    29    30    1
    63    29    28    1
    64    29    31    1
    65    18    24   am
    66    18    17    1
    67    89    88   ar
    68    17    20    1
    69    17    16    1
    70    20    21    1
    71    82    83    1
    72    88    90   ar
    73    88    87    1
    74    86    83    1
    75    86    87    1
    76    21    22   ar
    77    21    23   ar
    78    83    84    1
    79    97    95    1
    80    12    11    2
    81    91    84   am
    82    91    92    1
    83    95    92    1
    84    95    96    1
    85    84    85    2
    86    14    13    1
    87    92    93    1
    88    11    10    1
    89    10    13    1
    90    10     9    1
    91    13    15    1
    92    93    94    2
