@<TRIPOS>MOLECULE
tmp/5nxaH02.pdb
 114 107 0 0 0
SMALL
GASTEIGER

@<TRIPOS>ATOM
      1  N         78.9470    5.8250  -58.1590 N.3    74  GLU74      -0.1245
      2  CA        78.3350    5.6990  -56.8440 C.3    74  GLU74       0.1567
      3  C         78.5070    4.2970  -56.2640 C.2    74  GLU74       0.2260
      4  O         78.7380    4.1550  -55.0670 O.2    74  GLU74      -0.2867
      5  CB        76.8430    6.1070  -56.8650 C.3    74  GLU74       0.0388
      6  CG        76.3100    6.2940  -55.4530 C.3    74  GLU74       0.1160
      7  CD        74.9150    6.8790  -55.3700 C.2    74  GLU74       0.3649
      8  OE1       74.3370    7.2660  -56.3850 O.co2  74  GLU74      -0.2457
      9  OE2       74.3880    6.9360  -54.2420 O.co2  74  GLU74      -0.2457
     10  N         80.3940    5.0520  -53.0880 N.3    78  ARG78      -0.1231
     11  CA        79.3640    5.0960  -52.0380 C.3    78  ARG78       0.1694
     12  C         79.1200    6.5250  -51.5240 C.2    78  ARG78       0.2592
     13  O         78.7700    6.7470  -50.3640 O.2    78  ARG78      -0.2718
     14  CB        79.6890    4.1190  -50.8870 C.3    78  ARG78       0.0321
     15  CG        80.0710    2.7070  -51.3040 C.3    78  ARG78       0.0489
     16  CD        78.9830    2.0340  -52.1250 C.3    78  ARG78       0.2205
     17  NE        79.3740    0.7140  -52.5860 N.pl3  78  ARG78      -0.0865
     18  CZ        79.2880   -0.4200  -51.8750 C.cat  78  ARG78       0.5346
     19  NH1       78.8110   -0.4220  -50.6240 N.pl3  78  ARG78       0.1354
     20  NH2       79.7200   -1.5620  -52.4040 N.pl3  78  ARG78       0.1354
     21  N         79.2990    7.4780  -52.4290 N.am   79  HIS79      -0.1962
     22  CA        79.0540    8.8760  -52.1570 C.3    79  HIS79       0.1787
     23  C         78.4080    9.5050  -53.3790 C.2    79  HIS79       0.2620
     24  O         79.0740    9.6840  -54.3890 O.2    79  HIS79      -0.2715
     25  CB        80.3680    9.6070  -51.8550 C.3    79  HIS79       0.0785
     26  CG        80.1890   10.8190  -51.0100 C.ar   79  HIS79       0.0821
     27  ND1       79.9070   12.0660  -51.5200 N.ar   79  HIS79      -0.2267
     28  CD2       80.1360   10.9470  -49.6620 C.ar   79  HIS79       0.1154
     29  CE1       79.7530   12.9180  -50.5250 C.ar   79  HIS79       0.1986
     30  NE2       79.8800   12.2660  -49.3860 N.ar   79  HIS79      -0.2212
     31  N         77.1180    9.8160  -53.3070 N.am   80  ASP80      -0.1957
     32  CA        76.3890   10.3290  -54.4760 C.3    80  ASP80       0.1840
     33  C         76.9210   11.6750  -54.9770 C.2    80  ASP80       0.2621
     34  O         77.0640   11.8670  -56.1820 O.2    80  ASP80      -0.2715
     35  CB        74.8570   10.3400  -54.2510 C.3    80  ASP80       0.1450
     36  CG        74.3970   11.2180  -53.0730 C.2    80  ASP80       0.3671
     37  OD1       75.2370   11.7380  -52.3060 O.co2  80  ASP80      -0.2456
     38  OD2       73.1510   11.3730  -52.9220 O.co2  80  ASP80      -0.2456
     39  N         77.2580   12.5830  -54.0630 N.am   81  VAL81      -0.1977
     40  CA        77.7840   13.9010  -54.4610 C.3    81  VAL81       0.1596
     41  C         79.1390   13.7840  -55.1530 C.2    81  VAL81       0.2287
     42  O         79.3550   14.3960  -56.1920 O.2    81  VAL81      -0.2864
     43  CB        77.8630   14.8870  -53.2640 C.3    81  VAL81       0.0276
     44  CG1       78.5900   16.1580  -53.6480 C.3    81  VAL81       0.0022
     45  CG2       76.4470   15.2210  -52.7910 C.3    81  VAL81       0.0022
     46  N         81.0570   21.6810  -49.2220 N.3   104  THR104     -0.1203
     47  CA        80.6730   20.3760  -48.7030 C.3   104  THR104      0.1994
     48  C         79.4520   19.8860  -49.4630 C.2   104  THR104      0.2619
     49  O         78.8040   20.6520  -50.1680 O.2   104  THR104     -0.2717
     50  CB        80.3900   20.4280  -47.1920 C.3   104  THR104      0.1784
     51  OG1       80.3460   19.1010  -46.6560 O.3   104  THR104     -0.2211
     52  CG2       79.1280   21.2300  -46.8620 C.3   104  THR104      0.0376
     53  N         79.1270   18.6090  -49.3160 N.am  105  SER105     -0.1937
     54  CA        78.0570   17.9860  -50.1040 C.3   105  SER105      0.2055
     55  C         76.7350   18.7380  -49.9640 C.2   105  SER105      0.2643
     56  O         76.0100   18.8960  -50.9330 O.2   105  SER105     -0.2714
     57  CB        77.8910   16.5310  -49.6780 C.3   105  SER105      0.2130
     58  OG        79.0710   15.7890  -49.9240 O.3   105  SER105     -0.2179
     59  N         76.4450   19.2220  -48.7720 N.am  106  CYS106     -0.1967
     60  CA        75.2330   19.9860  -48.5170 C.3   106  CYS106      0.1712
     61  C         75.1070   21.2890  -49.3300 C.2   106  CYS106      0.2296
     62  O         73.9990   21.8020  -49.4780 O.2   106  CYS106     -0.2864
     63  CB        75.0760   20.2990  -47.0260 C.3   106  CYS106      0.0983
     64  SG        74.5270   18.8690  -46.0830 S.3   106  CYS106     -0.0798
     65  N         76.5210   21.8640  -40.7200 N.3   234  GLN234     -0.1245
     66  CA        76.6710   21.4170  -42.0880 C.3   234  GLN234      0.1566
     67  C         75.4040   21.6550  -42.8980 C.2   234  GLN234      0.2260
     68  O         75.4790   21.9540  -44.0880 O.2   234  GLN234     -0.2867
     69  CB        77.0160   19.9230  -42.1120 C.3   234  GLN234      0.0367
     70  CG        77.3730   19.3970  -43.5000 C.3   234  GLN234      0.0905
     71  CD        77.9920   18.0250  -43.4440 C.2   234  GLN234      0.2608
     72  OE1       77.3040   17.0450  -43.6320 O.2   234  GLN234     -0.2717
     73  NE2       79.3110   17.9590  -43.2160 N.am  234  GLN234     -0.0878
     74  N         75.5930   17.8000  -37.6270 N.3   322  ARG322     -0.1245
     75  CA        74.7210   17.0060  -38.5360 C.3   322  ARG322      0.1563
     76  C         75.0030   15.4940  -38.3730 C.2   322  ARG322      0.2260
     77  O         76.1520   15.0750  -38.1510 O.2   322  ARG322     -0.2867
     78  CB        74.6950   17.5050  -39.9880 C.3   322  ARG322      0.0307
     79  CG        75.3450   16.7090  -41.1570 C.3   322  ARG322      0.0489
     80  CD        74.7820   15.4190  -41.6180 C.3   322  ARG322      0.2205
     81  NE        73.6540   15.2980  -42.5560 N.pl3 322  ARG322     -0.0865
     82  CZ        73.6700   15.6100  -43.8290 C.cat 322  ARG322      0.5346
     83  NH1       74.7440   16.1020  -44.4580 N.pl3 322  ARG322      0.1354
     84  NH2       72.5770   15.4000  -44.5310 N.pl3 322  ARG322      0.1354
     85  N         73.7610   11.8340  -40.6360 N.3   324  LEU324     -0.1245
     86  CA        73.2290   11.4810  -41.9480 C.3   324  LEU324      0.1561
     87  C         71.9660   10.6220  -41.8890 C.2   324  LEU324      0.2260
     88  O         71.4240   10.2450  -42.9310 O.2   324  LEU324     -0.2867
     89  CB        74.3030   10.7470  -42.7500 C.3   324  LEU324      0.0270
     90  CG        74.1300   10.7530  -44.2730 C.3   324  LEU324      0.0019
     91  CD1       74.5650   12.0580  -44.8950 C.3   324  LEU324      0.0001
     92  CD2       74.8830    9.6050  -44.8920 C.3   324  LEU324      0.0001
     93  N         68.9740   11.6730  -44.1510 N.3   327  SER327     -0.1202
     94  CA        69.0280   11.7480  -45.6110 C.3   327  SER327      0.2020
     95  C         68.0040   10.8520  -46.3160 C.2   327  SER327      0.2618
     96  O         67.2180   11.3430  -47.1300 O.2   327  SER327     -0.2717
     97  CB        70.4440   11.4400  -46.1000 C.3   327  SER327      0.2103
     98  OG        70.5140   11.3590  -47.5090 O.3   327  SER327     -0.2182
     99  N         67.9990    9.5520  -46.0010 N.am  328  ALA328     -0.1979
    100  CA        67.0920    8.6200  -46.6960 C.3   328  ALA328      0.1597
    101  C         65.6250    8.9520  -46.3990 C.2   328  ALA328      0.2287
    102  O         64.7720    8.9280  -47.2970 O.2   328  ALA328     -0.2864
    103  CB        67.3900    7.1820  -46.3150 C.3   328  ALA328      0.0319
    104  N         64.4700   11.8610  -48.4840 N.3   331  ARG331     -0.1245
    105  CA        64.2150   11.4850  -49.8910 C.3   331  ARG331      0.1563
    106  C         62.7930   10.9760  -50.0850 C.2   331  ARG331      0.2260
    107  O         62.2010   11.1550  -51.1560 O.2   331  ARG331     -0.2867
    108  CB        65.1760   10.3920  -50.3730 C.3   331  ARG331      0.0307
    109  CG        66.6380   10.7710  -50.5250 C.3   331  ARG331      0.0489
    110  CD        67.4040    9.5150  -50.9280 C.3   331  ARG331      0.2205
    111  NE        68.8510    9.6060  -50.6970 N.pl3 331  ARG331     -0.0865
    112  CZ        69.7660    9.9240  -51.6140 C.cat 331  ARG331      0.5346
    113  NH1       69.4290   10.2070  -52.8680 N.pl3 331  ARG331      0.1354
    114  NH2       71.0480    9.9590  -51.2550 N.pl3 331  ARG331      0.1354
@<TRIPOS>BOND
     1     1     2    1
     2     5     2    1
     3     5     6    1
     4     2     3    1
     5     8     7   ar
     6     3     4    2
     7    42    41    2
     8    34    33    2
     9     6     7    1
    10     7     9   ar
    11    41    40    1
    12    33    32    1
    13    33    39   am
    14    32    35    1
    15    32    31    1
    16    40    39    1
    17    40    43    1
    18    24    23    2
    19    35    36    1
    20    44    43    1
    21    23    31   am
    22    23    22    1
    23    43    45    1
    24    10    11    1
    25    36    38   ar
    26    36    37   ar
    27   113   112    1
    28    17    16    1
    29    17    18    2
    30    21    22    1
    31    21    12   am
    32    20    18    1
    33    22    25    1
    34    16    15    1
    35    11    12    1
    36    11    14    1
    37    18    19    1
    38    25    26    1
    39   112   114    1
    40   112   111    2
    41    12    13    2
    42    27    26   ar
    43    27    29   ar
    44    15    14    1
    45   107   106    2
    46    26    28   ar
    47    56    55    2
    48   110   111    1
    49   110   109    1
    50    29    30   ar
    51   109   108    1
    52   108   105    1
    53    49    48    2
    54    54    55    1
    55    54    57    1
    56    54    53    1
    57   106   105    1
    58    55    59   am
    59    58    57    1
    60   105   104    1
    61    28    30   ar
    62    62    61    2
    63    48    53   am
    64    48    47    1
    65    61    60    1
    66    46    47    1
    67    59    60    1
    68    47    50    1
    69    60    63    1
    70    98    97    1
    71   102   101    2
    72    50    52    1
    73    50    51    1
    74    96    95    2
    75    63    64    1
    76   100   101    1
    77   100   103    1
    78   100    99    1
    79    95    99   am
    80    95    94    1
    81    97    94    1
    82    94    93    1
    83    91    90    1
    84    92    90    1
    85    84    82    1
    86    83    82    1
    87    90    89    1
    88    68    67    2
    89    82    81    2
    90    72    71    2
    91    70    71    1
    92    70    69    1
    93    71    73   am
    94    88    87    2
    95    67    66    1
    96    89    86    1
    97    81    80    1
    98    69    66    1
    99    66    65    1
   100    86    87    1
   101    86    85    1
   102    80    79    1
   103    79    78    1
   104    78    75    1
   105    75    76    1
   106    75    74    1
   107    76    77    2
