@<TRIPOS>MOLECULE
tmp/5nxaB02.pdb
 88 82 0 0 0
SMALL
GASTEIGER

@<TRIPOS>ATOM
      1  N          8.1170  -17.7290   31.0940 N.3    13  ARG13      -0.1231
      2  CA         8.6040  -17.8800   29.7120 C.3    13  ARG13       0.1694
      3  C          9.0260  -19.3420   29.4420 C.2    13  ARG13       0.2592
      4  O          8.6290  -19.9010   28.4110 O.2    13  ARG13      -0.2718
      5  CB         9.8470  -16.9160   29.4150 C.3    13  ARG13       0.0321
      6  CG        10.0080  -16.5580   28.0270 C.3    13  ARG13       0.0489
      7  CD        10.9720  -15.3600   27.9380 C.3    13  ARG13       0.2205
      8  NE        10.7750  -14.6760   26.6740 N.pl3  13  ARG13      -0.0865
      9  CZ        11.5760  -14.7580   25.5990 C.cat  13  ARG13       0.5346
     10  NH1       12.6410  -15.5340   25.6100 N.pl3  13  ARG13       0.1354
     11  NH2       11.2770  -14.0870   24.4910 N.pl3  13  ARG13       0.1354
     12  N          9.9110  -19.9110   30.2940 N.am   14  TYR14      -0.1976
     13  CA        10.7480  -21.0390   29.8340 C.3    14  TYR14       0.1639
     14  C         10.2330  -22.4220   30.2370 C.2    14  TYR14       0.2290
     15  O         10.4620  -23.4130   29.5450 O.2    14  TYR14      -0.2864
     16  CB        12.1830  -20.8900   30.3340 C.3    14  TYR14       0.0560
     17  CG        12.9250  -19.6790   29.8020 C.ar   14  TYR14      -0.0198
     18  CD1       12.9710  -19.4210   28.4340 C.ar   14  TYR14      -0.0009
     19  CD2       13.4720  -18.7490   30.6720 C.ar   14  TYR14      -0.0009
     20  CE1       13.6100  -18.3070   27.9520 C.ar   14  TYR14       0.0417
     21  CE2       14.1430  -17.6310   30.1910 C.ar   14  TYR14       0.0417
     22  CZ        14.1950  -17.4080   28.8350 C.ar   14  TYR14       0.1957
     23  OH        14.8170  -16.2860   28.3620 O.3    14  TYR14      -0.2866
     24  N         11.0400  -14.4080   12.4210 N.3   218  ILE218     -0.1231
     25  CA        11.8480  -13.2540   12.1090 C.3   218  ILE218      0.1692
     26  C         13.1330  -13.3630   12.9100 C.2   218  ILE218      0.2593
     27  O         13.0970  -13.5140   14.1300 O.2   218  ILE218     -0.2718
     28  CB        11.1010  -11.9630   12.4580 C.3   218  ILE218      0.0266
     29  CG1        9.8510  -11.8480   11.5980 C.3   218  ILE218      0.0019
     30  CG2       12.0030  -10.7590   12.2580 C.3   218  ILE218      0.0020
     31  CD1        9.0010  -10.6340   11.9220 C.3   218  ILE218      0.0001
     32  N         14.2700  -13.2940   12.2180 N.am  219  GLY219     -0.1942
     33  CA        15.5700  -13.4110   12.8660 C.3   219  GLY219      0.2014
     34  C         15.9980  -12.1250   13.5410 C.2   219  GLY219      0.2640
     35  O         16.6350  -12.1630   14.5980 O.2   219  GLY219     -0.2714
     36  N         15.6450  -10.9940   12.9270 N.am  220  SER220     -0.1935
     37  CA        16.1600   -9.6880   13.2990 C.3   220  SER220      0.2055
     38  C         15.1180   -8.6040   13.0030 C.2   220  SER220      0.2643
     39  O         14.4380   -8.6660   11.9830 O.2   220  SER220     -0.2714
     40  CB        17.4350   -9.4180   12.5070 C.3   220  SER220      0.2130
     41  OG        17.8690   -8.0770   12.6080 O.3   220  SER220     -0.2179
     42  N         14.9830   -7.6310   13.9100 N.am  221  SER221     -0.1949
     43  CA        14.1180   -6.4670   13.6850 C.3   221  SER221      0.1924
     44  C         14.6340   -5.5250   12.6020 C.2   221  SER221      0.2314
     45  O         13.8420   -4.8430   11.9580 O.2   221  SER221     -0.2863
     46  CB        13.9330   -5.6680   14.9700 C.3   221  SER221      0.2116
     47  OG        15.0680   -4.8820   15.2390 O.3   221  SER221     -0.2180
     48  N         19.3350  -16.6870   12.5210 N.3   228  ASN228     -0.1240
     49  CA        20.1460  -16.8310   13.6980 C.3   228  ASN228      0.1653
     50  C         19.8710  -18.1380   14.3980 C.2   228  ASN228      0.2266
     51  O         18.7370  -18.5940   14.4310 O.2   228  ASN228     -0.2867
     52  CB        19.8550  -15.6640   14.6690 C.3   228  ASN228      0.1155
     53  CG        20.2680  -14.3290   14.0930 C.2   228  ASN228      0.2627
     54  OD1       21.3120  -14.2170   13.4710 O.2   228  ASN228     -0.2716
     55  ND2       19.4510  -13.3150   14.2880 N.am  228  ASN228     -0.0877
     56  N         19.0560  -18.8790   17.3970 N.3   230  MET230     -0.1245
     57  CA        18.5600  -18.2920   18.6570 C.3   230  MET230      0.1570
     58  C         18.1490  -19.3220   19.7040 C.2   230  MET230      0.2261
     59  O         18.2500  -19.0580   20.9000 O.2   230  MET230     -0.2867
     60  CB        17.4110  -17.2960   18.4090 C.3   230  MET230      0.0387
     61  CG        16.1590  -17.8440   17.7420 C.3   230  MET230      0.0595
     62  SD        14.9000  -18.4780   18.8780 S.3   230  MET230     -0.1393
     63  CE        13.9120  -17.0290   19.1640 C.3   230  MET230      0.0692
     64  N         19.9260  -19.4920   23.2910 N.3   234  ARG234     -0.1245
     65  CA        19.1710  -19.5550   24.5470 C.3   234  ARG234      0.1563
     66  C         19.6000  -20.7370   25.4120 C.2   234  ARG234      0.2260
     67  O         19.6740  -20.6150   26.6400 O.2   234  ARG234     -0.2867
     68  CB        17.6780  -19.6190   24.2700 C.3   234  ARG234      0.0307
     69  CG        16.8250  -19.6320   25.5220 C.3   234  ARG234      0.0489
     70  CD        15.3770  -19.8750   25.1980 C.3   234  ARG234      0.2205
     71  NE        14.8680  -18.8470   24.3130 N.pl3 234  ARG234     -0.0865
     72  CZ        13.8330  -18.9930   23.4990 C.cat 234  ARG234      0.5346
     73  NH1       13.1080  -20.1360   23.4800 N.pl3 234  ARG234      0.1354
     74  NH2       13.4920  -17.9710   22.6980 N.pl3 234  ARG234      0.1354
     75  N         22.8140  -19.7910   27.0270 N.3   237  SER237     -0.1217
     76  CA        22.5130  -18.7780   28.0380 C.3   237  SER237      0.1889
     77  C         22.0080  -19.3930   29.3260 C.2   237  SER237      0.2288
     78  O         22.4720  -19.0480   30.4130 O.2   237  SER237     -0.2866
     79  CB        21.4670  -17.7890   27.5110 C.3   237  SER237      0.2089
     80  OG        21.4810  -16.5980   28.2500 O.3   237  SER237     -0.2183
     81  N          8.0390  -19.8020   21.7860 N.3   415  LEU415     -0.1245
     82  CA         8.8570  -18.6310   21.7180 C.3   415  LEU415      0.1561
     83  C         10.2990  -19.0510   21.6360 C.2   415  LEU415      0.2260
     84  O         11.0940  -18.4000   21.0060 O.2   415  LEU415     -0.2867
     85  CB         8.6000  -17.7370   22.9240 C.3   415  LEU415      0.0270
     86  CG         9.0570  -18.0090   24.3510 C.3   415  LEU415      0.0019
     87  CD1        7.9450  -17.7030   25.3030 C.3   415  LEU415      0.0001
     88  CD2        9.5470  -19.4030   24.5820 C.3   415  LEU415      0.0001
@<TRIPOS>BOND
     1    29    31    1
     2    29    28    1
     3    45    44    2
     4    39    38    2
     5    25    24    1
     6    25    28    1
     7    25    26    1
     8    32    33    1
     9    32    26   am
    10    30    28    1
    11    40    41    1
    12    40    37    1
    13    48    49    1
    14    44    43    1
    15    33    34    1
    16    26    27    2
    17    36    37    1
    18    36    34   am
    19    38    37    1
    20    38    42   am
    21    54    53    2
    22    34    35    2
    23    43    42    1
    24    43    46    1
    25    49    50    1
    26    49    52    1
    27    53    55   am
    28    53    52    1
    29    50    51    2
    30    46    47    1
    31    56    57    1
    32    61    60    1
    33    61    62    1
    34    60    57    1
    35    57    58    1
    36    62    63    1
    37    58    59    2
    38    84    83    2
    39    83    82    1
    40    82    81    1
    41    82    85    1
    42    74    72    1
    43    85    86    1
    44    64    65    1
    45    73    72    1
    46    72    71    2
    47    68    65    1
    48    68    69    1
    49    71    70    1
    50    86    88    1
    51    86    87    1
    52    11     9    1
    53    65    66    1
    54    70    69    1
    55    66    67    2
    56     9    10    1
    57     9     8    2
    58     8     7    1
    59    75    76    1
    60    79    76    1
    61    79    80    1
    62     7     6    1
    63    20    18   ar
    64    20    22   ar
    65     6     5    1
    66    76    77    1
    67    23    22    1
    68     4     3    2
    69    18    17   ar
    70    22    21   ar
    71    77    78    2
    72     5     2    1
    73     3     2    1
    74     3    12   am
    75    15    14    2
    76     2     1    1
    77    17    16    1
    78    17    19   ar
    79    13    14    1
    80    13    12    1
    81    13    16    1
    82    21    19   ar
