@<TRIPOS>MOLECULE
tmp/5nxaH01.pdb
 119 112 0 0 0
SMALL
GASTEIGER

@<TRIPOS>ATOM
      1  N         49.9330    7.3590  -60.7900 N.3    13  ARG13      -0.1231
      2  CA        48.4830    7.3740  -60.6150 C.3    13  ARG13       0.1694
      3  C         47.9080    8.7360  -60.2200 C.2    13  ARG13       0.2592
      4  O         46.9030    9.1520  -60.7620 O.2    13  ARG13      -0.2718
      5  CB        48.1210    6.3180  -59.5690 C.3    13  ARG13       0.0321
      6  CG        46.6740    5.9200  -59.5850 C.3    13  ARG13       0.0489
      7  CD        46.3660    4.7940  -58.6030 C.3    13  ARG13       0.2205
      8  NE        44.9440    4.7970  -58.2990 N.pl3  13  ARG13      -0.0865
      9  CZ        43.9880    4.4030  -59.1540 C.cat  13  ARG13       0.5346
     10  NH1       44.2900    3.9200  -60.3570 N.pl3  13  ARG13       0.1354
     11  NH2       42.7100    4.4900  -58.8190 N.pl3  13  ARG13       0.1354
     12  N         48.5630    9.4370  -59.3020 N.am   14  TYR14      -0.1976
     13  CA        47.9380   10.5530  -58.5930 C.3    14  TYR14       0.1639
     14  C         48.4210   11.9480  -58.9830 C.2    14  TYR14       0.2290
     15  O         47.6310   12.7720  -59.4130 O.2    14  TYR14      -0.2864
     16  CB        48.0990   10.3380  -57.0850 C.3    14  TYR14       0.0560
     17  CG        47.3260    9.1420  -56.5690 C.ar   14  TYR14      -0.0198
     18  CD1       45.9850    8.9630  -56.8990 C.ar   14  TYR14      -0.0009
     19  CD2       47.9280    8.1960  -55.7570 C.ar   14  TYR14      -0.0009
     20  CE1       45.2770    7.8720  -56.4430 C.ar   14  TYR14       0.0417
     21  CE2       47.2160    7.1040  -55.2920 C.ar   14  TYR14       0.0417
     22  CZ        45.8820    6.9520  -55.6400 C.ar   14  TYR14       0.1957
     23  OH        45.1590    5.8790  -55.2000 O.3    14  TYR14      -0.2866
     24  N         30.9710    6.8530  -66.1940 N.3   279  GLN279     -0.1231
     25  CA        31.4470    6.3200  -64.9040 C.3   279  GLN279      0.1698
     26  C         30.5970    5.1480  -64.3330 C.2   279  GLN279      0.2592
     27  O         29.3540    5.1430  -64.3650 O.2   279  GLN279     -0.2718
     28  CB        31.6060    7.4650  -63.8800 C.3   279  GLN279      0.0381
     29  CG        32.1310    7.0570  -62.5150 C.3   279  GLN279      0.0905
     30  CD        32.6550    8.2360  -61.6670 C.2   279  GLN279      0.2608
     31  OE1       32.7020    9.3770  -62.1260 O.2   279  GLN279     -0.2717
     32  NE2       33.0560    7.9470  -60.4200 N.am  279  GLN279     -0.0878
     33  N         31.3070    4.1490  -63.8240 N.am  280  ILE280     -0.1966
     34  CA        30.7040    3.0120  -63.1690 C.3   280  ILE280      0.1727
     35  C         31.0460    3.1050  -61.7010 C.2   280  ILE280      0.2617
     36  O         32.2340    3.2280  -61.3390 O.2   280  ILE280     -0.2715
     37  CB        31.2210    1.6940  -63.7750 C.3   280  ILE280      0.0290
     38  CG1       30.7570    1.6220  -65.2440 C.3   280  ILE280      0.0022
     39  CG2       30.7600    0.4910  -62.9370 C.3   280  ILE280      0.0023
     40  CD1       30.8300    0.2590  -65.9110 C.3   280  ILE280      0.0001
     41  N         30.0150    3.0610  -60.8480 N.am  281  GLY281     -0.1940
     42  CA        30.2320    3.1820  -59.4050 C.3   281  GLY281      0.2014
     43  C         30.7300    1.9090  -58.7550 C.2   281  GLY281      0.2640
     44  O         31.5280    1.9520  -57.8310 O.2   281  GLY281     -0.2714
     45  N         30.2570    0.7790  -59.2710 N.am  282  SER282     -0.1935
     46  CA        30.3980   -0.5210  -58.6340 C.3   282  SER282      0.2055
     47  C         30.4570   -1.6240  -59.6920 C.2   282  SER282      0.2644
     48  O         29.7420   -1.5630  -60.6830 O.2   282  SER282     -0.2714
     49  CB        29.1790   -0.7480  -57.7210 C.3   282  SER282      0.2130
     50  OG        29.1200   -2.0820  -57.2290 O.3   282  SER282     -0.2179
     51  N         31.3170   -2.6140  -59.4810 N.am  283  SER283     -0.1935
     52  CA        31.3700   -3.7990  -60.3660 C.3   283  SER283      0.2055
     53  C         30.1490   -4.7090  -60.2240 C.2   283  SER283      0.2643
     54  O         29.7900   -5.4010  -61.1680 O.2   283  SER283     -0.2714
     55  CB        32.6270   -4.6180  -60.1250 C.3   283  SER283      0.2130
     56  OG        32.4990   -5.3640  -58.9500 O.3   283  SER283     -0.2179
     57  N         29.5330   -4.7050  -59.0470 N.am  284  ALA284     -0.1963
     58  CA        28.4280   -5.6290  -58.7300 C.3   284  ALA284      0.1728
     59  C         27.0290   -4.9900  -58.6340 C.2   284  ALA284      0.2616
     60  O         26.0220   -5.6670  -58.8830 O.2   284  ALA284     -0.2715
     61  CB        28.7430   -6.3790  -57.4360 C.3   284  ALA284      0.0334
     62  N         26.9740   -3.7350  -58.2030 N.am  285  MET285     -0.1977
     63  CA        25.6970   -3.0270  -57.9380 C.3   285  MET285      0.1605
     64  C         25.5090   -1.8570  -58.9120 C.2   285  MET285      0.2287
     65  O         25.8570   -0.7530  -58.5930 O.2   285  MET285     -0.2864
     66  CB        25.6820   -2.4910  -56.5040 C.3   285  MET285      0.0413
     67  CG        25.6310   -3.5660  -55.4450 C.3   285  MET285      0.0598
     68  SD        25.8570   -2.9190  -53.7700 S.3   285  MET285     -0.1393
     69  CE        27.6400   -2.6310  -53.8060 C.3   285  MET285      0.0692
     70  N         24.5400    2.1660  -58.2470 N.3   288  LYS288     -0.1245
     71  CA        25.2550    2.7240  -57.1340 C.3   288  LYS288      0.1561
     72  C         26.0950    3.9090  -57.5650 C.2   288  LYS288      0.2260
     73  O         26.7910    3.8320  -58.5570 O.2   288  LYS288     -0.2867
     74  CB        26.1480    1.6390  -56.5070 C.3   288  LYS288      0.0271
     75  CG        26.6930    1.9610  -55.1490 C.3   288  LYS288      0.0035
     76  CD        25.9190    1.3750  -53.9590 C.3   288  LYS288      0.0206
     77  CE        26.7790    0.9010  -52.8180 C.3   288  LYS288      0.1093
     78  NZ        28.2170    1.2810  -52.5440 N.3   288  LYS288     -0.1314
     79  N         28.8950    6.4000  -55.7680 N.3   290  ASN290     -0.1240
     80  CA        29.7630    6.5490  -54.6120 C.3   290  ASN290      0.1653
     81  C         30.5110    7.8540  -54.6480 C.2   290  ASN290      0.2266
     82  O         30.8910    8.3100  -55.7240 O.2   290  ASN290     -0.2867
     83  CB        30.7680    5.3870  -54.5790 C.3   290  ASN290      0.1155
     84  CG        30.0930    4.0470  -54.4020 C.2   290  ASN290      0.2627
     85  OD1       29.1610    3.9330  -53.5920 O.2   290  ASN290     -0.2716
     86  ND2       30.5270    3.0310  -55.1690 N.am  290  ASN290     -0.0877
     87  N         33.6120    8.6060  -54.5100 N.3   292  MET292     -0.1245
     88  CA        34.9550    8.0150  -54.5800 C.3   292  MET292      0.1570
     89  C         36.0850    9.0290  -54.6520 C.2   292  MET292      0.2261
     90  O         37.1900    8.7540  -54.1790 O.2   292  MET292     -0.2867
     91  CB        35.0540    6.9980  -55.7260 C.3   292  MET292      0.0387
     92  CG        34.8300    7.5430  -57.1530 C.3   292  MET292      0.0595
     93  SD        36.2850    8.1770  -58.0040 S.3   292  MET292     -0.1393
     94  CE        37.2360    6.7530  -58.5520 C.3   292  MET292      0.0692
     95  N         38.9490    9.2040  -51.8480 N.3   296  ARG296     -0.1245
     96  CA        40.3720    9.2530  -52.1560 C.3   296  ARG296      0.1563
     97  C         41.0760   10.4340  -51.5000 C.2   296  ARG296      0.2260
     98  O         42.2180   10.3040  -51.0540 O.2   296  ARG296     -0.2867
     99  CB        40.5840    9.3200  -53.7100 C.3   296  ARG296      0.0307
    100  CG        42.0330    9.4010  -54.1330 C.3   296  ARG296      0.0489
    101  CD        42.1940    8.6830  -55.4390 C.3   296  ARG296      0.2205
    102  NE        41.7190    9.3930  -56.5360 N.pl3 296  ARG296     -0.0865
    103  CZ        41.1260    8.8540  -57.6130 C.cat 296  ARG296      0.5346
    104  NH1       40.8590    9.6200  -58.6660 N.pl3 296  ARG296      0.1354
    105  NH2       40.6980    7.6050  -57.6210 N.pl3 296  ARG296      0.1354
    106  N         41.6040    9.5330  -47.9380 N.3   299  SER299     -0.1217
    107  CA        42.6490    8.5100  -47.8940 C.3   299  SER299      0.1889
    108  C         44.0360    9.1030  -47.9880 C.2   299  SER299      0.2288
    109  O         44.9190    8.7580  -47.1900 O.2   299  SER299     -0.2866
    110  CB        42.4580    7.4990  -49.0300 C.3   299  SER299      0.2089
    111  OG        43.1310    6.2920  -48.7210 O.3   299  SER299     -0.2183
    112  N         41.2910    9.3550  -63.5770 N.3   477  LEU477     -0.1245
    113  CA        40.8990    8.1920  -62.8430 C.3   477  LEU477      0.1561
    114  C         40.2750    8.7320  -61.5980 C.2   477  LEU477      0.2260
    115  O         39.8470    7.9880  -60.7700 O.2   477  LEU477     -0.2867
    116  CB        42.0860    7.3210  -62.4860 C.3   477  LEU477      0.0270
    117  CG        43.4300    7.9640  -62.2340 C.3   477  LEU477      0.0019
    118  CD1       43.5420    8.3160  -60.7880 C.3   477  LEU477      0.0001
    119  CD2       44.5560    7.0590  -62.6460 C.3   477  LEU477      0.0001
@<TRIPOS>BOND
     1    24    25    1
     2    40    38    1
     3    38    37    1
     4    25    26    1
     5    25    28    1
     6    27    26    2
     7    26    33   am
     8    28    29    1
     9    33    34    1
    10    37    34    1
    11    37    39    1
    12   112   113    1
    13    34    35    1
    14   113   116    1
    15   113   114    1
    16   119   117    1
    17    29    30    1
    18   116   117    1
    19   117   118    1
    20    31    30    2
    21    35    36    2
    22    35    41   am
    23    30    32   am
    24   114   115    2
    25    54    53    2
    26    41    42    1
    27     1     2    1
    28     4     3    2
    29    48    47    2
    30     2     3    1
    31     2     5    1
    32    52    53    1
    33    52    55    1
    34    52    51    1
    35    10     9    1
    36    53    57   am
    37     3    12   am
    38    55    56    1
    39    47    51   am
    40    47    46    1
    41     6     5    1
    42     6     7    1
    43    15    14    2
    44    42    43    1
    45    12    13    1
    46    45    43   am
    47    45    46    1
    48     9    11    1
    49     9     8    2
    50    57    58    1
    51    14    13    1
    52    64    65    2
    53    64    63    1
    54    60    59    2
    55    43    44    2
    56    58    59    1
    57    58    61    1
    58   104   103    1
    59    46    49    1
    60    59    62   am
    61     7     8    1
    62    13    16    1
    63    73    72    2
    64    94    93    1
    65    70    71    1
    66    62    63    1
    67    93    92    1
    68    63    66    1
    69    49    50    1
    70   105   103    1
    71   103   102    2
    72    72    71    1
    73    92    91    1
    74    71    74    1
    75    16    17    1
    76    18    17   ar
    77    18    20   ar
    78    17    19   ar
    79   102   101    1
    80    74    75    1
    81    66    67    1
    82    20    22   ar
    83    79    80    1
    84    19    21   ar
    85    91    88    1
    86    82    81    2
    87    22    21   ar
    88    22    23    1
    89    67    68    1
    90   101   100    1
    91    86    84   am
    92    75    76    1
    93    89    88    1
    94    89    90    2
    95    81    80    1
    96    80    83    1
    97    88    87    1
    98    83    84    1
    99    84    85    2
   100   100    99    1
   101    76    77    1
   102    69    68    1
   103    99    96    1
   104    77    78    1
   105    96    95    1
   106    96    97    1
   107    97    98    2
   108   110   111    1
   109   110   107    1
   110   108   107    1
   111   108   109    2
   112   106   107    1
