@<TRIPOS>MOLECULE
tmp/5nxaG01.pdb
 131 123 0 0 0
SMALL
GASTEIGER

@<TRIPOS>ATOM
      1  N         25.6440   16.7310  -12.1790 N.3    73  GLU73      -0.1245
      2  CA        26.2060   16.0910  -13.3550 C.3    73  GLU73       0.1567
      3  C         25.8820   14.5890  -13.4030 C.2    73  GLU73       0.2260
      4  O         25.6150   14.0490  -14.4700 O.2    73  GLU73      -0.2867
      5  CB        27.7190   16.3370  -13.4600 C.3    73  GLU73       0.0388
      6  CG        28.2850   15.8850  -14.8110 C.3    73  GLU73       0.1160
      7  CD        29.7110   16.2650  -15.0630 C.2    73  GLU73       0.3649
      8  OE1       30.3290   16.9620  -14.2220 O.co2  73  GLU73      -0.2457
      9  OE2       30.2110   15.8720  -16.1340 O.co2  73  GLU73      -0.2457
     10  N         24.0030   14.2950  -16.6660 N.3    77  ARG77      -0.1231
     11  CA        25.0150   13.8670  -17.6380 C.3    77  ARG77       0.1694
     12  C         25.4020   15.0010  -18.6040 C.2    77  ARG77       0.2592
     13  O         25.7630   14.7730  -19.7680 O.2    77  ARG77      -0.2718
     14  CB        24.5750   12.6050  -18.4090 C.3    77  ARG77       0.0321
     15  CG        24.0720   11.4470  -17.5180 C.3    77  ARG77       0.0489
     16  CD        25.0540   11.0070  -16.4300 C.3    77  ARG77       0.2205
     17  NE        25.2480    9.5210  -16.3360 N.pl3  77  ARG77      -0.0865
     18  CZ        24.4030    8.6700  -15.7880 C.cat  77  ARG77       0.5346
     19  NH1       23.3440    9.0940  -15.1080 N.pl3  77  ARG77       0.1354
     20  NH2       24.6920    7.3850  -15.8180 N.pl3  77  ARG77       0.1354
     21  N         25.3340   16.2260  -18.0940 N.am   78  HIS78      -0.1962
     22  CA        25.6850   17.4050  -18.8420 C.3    78  HIS78       0.1787
     23  C         26.4250   18.3670  -17.9050 C.2    78  HIS78       0.2620
     24  O         25.7940   18.9640  -17.0230 O.2    78  HIS78      -0.2715
     25  CB        24.4440   18.1040  -19.3780 C.3    78  HIS78       0.0785
     26  CG        24.7080   18.9150  -20.6000 C.ar   78  HIS78       0.0821
     27  ND1       25.1360   20.2290  -20.5690 N.ar   78  HIS78      -0.2267
     28  CD2       24.6460   18.5730  -21.9000 C.ar   78  HIS78       0.1154
     29  CE1       25.3220   20.6510  -21.8000 C.ar   78  HIS78       0.1986
     30  NE2       25.0100   19.6800  -22.6320 N.ar   78  HIS78      -0.2212
     31  N         27.7430   18.4980  -18.0690 N.am   79  ASP79      -0.1957
     32  CA        28.5330   19.3050  -17.1440 C.3    79  ASP79       0.1840
     33  C         28.1530   20.8000  -17.1570 C.2    79  ASP79       0.2621
     34  O         28.0530   21.4280  -16.0990 O.2    79  ASP79      -0.2715
     35  CB        30.0520   19.0880  -17.3220 C.3    79  ASP79       0.1450
     36  CG        30.5870   19.4310  -18.7190 C.2    79  ASP79       0.3671
     37  OD1       29.7860   19.7340  -19.6470 O.co2  79  ASP79      -0.2456
     38  OD2       31.8480   19.3750  -18.8570 O.co2  79  ASP79      -0.2456
     39  N         27.8940   21.3520  -18.3390 N.am   80  VAL80      -0.1977
     40  CA        27.5180   22.7710  -18.4530 C.3    80  VAL80       0.1596
     41  C         26.1660   23.0510  -17.7810 C.2    80  VAL80       0.2287
     42  O         26.0410   24.0230  -17.0290 O.2    80  VAL80      -0.2864
     43  CB        27.5060   23.2710  -19.9090 C.3    80  VAL80       0.0276
     44  CG1       26.9180   24.6800  -19.9940 C.3    80  VAL80       0.0022
     45  CG2       28.9310   23.2660  -20.4530 C.3    80  VAL80       0.0022
     46  N         23.0270   32.1380  -18.9840 N.3    99  HIS99      -0.1241
     47  CA        23.1610   31.3470  -20.2110 C.3    99  HIS99       0.1621
     48  C         22.1100   31.7370  -21.2680 C.2    99  HIS99       0.2264
     49  O         21.8780   30.9980  -22.2260 O.2    99  HIS99      -0.2867
     50  CB        23.1010   29.8240  -19.8810 C.3    99  HIS99       0.0745
     51  CG        23.7230   28.9310  -20.9210 C.ar   99  HIS99       0.0817
     52  ND1       25.0760   28.9230  -21.1860 N.ar   99  HIS99      -0.2268
     53  CD2       23.1830   27.9720  -21.7170 C.ar   99  HIS99       0.1154
     54  CE1       25.3430   28.0210  -22.1130 C.ar   99  HIS99       0.1986
     55  NE2       24.2110   27.4310  -22.4570 N.ar   99  HIS99      -0.2212
     56  N         24.7830   28.4890  -26.0950 N.3   103  THR103     -0.1203
     57  CA        25.0150   27.0520  -26.1020 C.3   103  THR103      0.1994
     58  C         26.2270   26.7480  -25.2160 C.2   103  THR103      0.2619
     59  O         26.9750   27.6460  -24.8490 O.2   103  THR103     -0.2717
     60  CB        25.2360   26.5390  -27.5450 C.3   103  THR103      0.1784
     61  OG1       25.1870   25.1190  -27.5820 O.3   103  THR103     -0.2211
     62  CG2       26.5780   26.9970  -28.1300 C.3   103  THR103      0.0376
     63  N         26.4120   25.4780  -24.8940 N.am  104  SER104     -0.1937
     64  CA        27.4390   25.0600  -23.9410 C.3   104  SER104      0.2055
     65  C         28.8280   25.5810  -24.3070 C.2   104  SER104      0.2643
     66  O         29.5930   26.0000  -23.4420 O.2   104  SER104     -0.2714
     67  CB        27.4680   23.5360  -23.8350 C.3   104  SER104      0.2130
     68  OG        26.2320   23.0630  -23.3350 O.3   104  SER104     -0.2179
     69  N         29.1300   25.5710  -25.6080 N.am  105  CYS105     -0.1967
     70  CA        30.4160   26.0510  -26.0850 C.3   105  CYS105      0.1712
     71  C         30.7020   27.5280  -25.7880 C.2   105  CYS105      0.2296
     72  O         31.8600   27.9350  -25.8260 O.2   105  CYS105     -0.2864
     73  CB        30.5500   25.7760  -27.5870 C.3   105  CYS105      0.0983
     74  SG        30.9450   24.0450  -27.9480 S.3   105  CYS105     -0.0798
     75  N         23.8510   27.7210  -31.0690 N.3   193  THR193     -0.1218
     76  CA        23.9770   26.2600  -31.0990 C.3   193  THR193      0.1862
     77  C         24.6940   25.7270  -32.3500 C.2   193  THR193      0.2287
     78  O         25.4950   24.7980  -32.2260 O.2   193  THR193     -0.2866
     79  CB        22.5550   25.5960  -31.0310 C.3   193  THR193      0.1770
     80  OG1       21.8770   26.0350  -29.8650 O.3   193  THR193     -0.2211
     81  CG2       22.6230   24.0580  -30.9940 C.3   193  THR193      0.0375
     82  N         29.1660   25.1150  -34.0720 N.3   233  GLN233     -0.1245
     83  CA        28.9900   25.2090  -32.6330 C.3   233  GLN233      0.1566
     84  C         30.2950   25.6030  -31.9450 C.2   233  GLN233      0.2260
     85  O         30.2730   26.3100  -30.9400 O.2   233  GLN233     -0.2867
     86  CB        28.5030   23.8810  -32.0660 C.3   233  GLN233      0.0367
     87  CG        28.1200   23.9300  -30.5960 C.3   233  GLN233      0.0905
     88  CD        27.3850   22.7010  -30.1240 C.2   233  GLN233      0.2608
     89  OE1       27.9910   21.7440  -29.6300 O.2   233  GLN233     -0.2717
     90  NE2       26.0750   22.6870  -30.3230 N.am  233  GLN233     -0.0878
     91  N         29.6590   20.1500  -35.5150 N.3   308  ARG308     -0.1245
     92  CA        30.4000   19.6550  -34.3410 C.3   308  ARG308      0.1563
     93  C         30.0340   18.2170  -34.0050 C.2   308  ARG308      0.2260
     94  O         28.8670   17.8580  -34.0720 O.2   308  ARG308     -0.2867
     95  CB        29.9200   20.4250  -33.1070 C.3   308  ARG308      0.0307
     96  CG        30.7310   20.3760  -31.9580 C.3   308  ARG308      0.0489
     97  CD        30.3510   19.3060  -30.9450 C.3   308  ARG308      0.2205
     98  NE        31.4340   19.3830  -29.9940 N.pl3 308  ARG308     -0.0865
     99  CZ        31.4810   20.1270  -28.8830 C.cat 308  ARG308      0.5346
    100  NH1       30.4660   20.8950  -28.5210 N.pl3 308  ARG308      0.1354
    101  NH2       32.5700   20.0780  -28.1340 N.pl3 308  ARG308      0.1354
    102  N         31.0110   15.4930  -30.5960 N.3   310  LEU310     -0.1245
    103  CA        31.5260   15.5670  -29.2370 C.3   310  LEU310      0.1561
    104  C         32.7120   14.6420  -28.9740 C.2   310  LEU310      0.2260
    105  O         33.2350   14.6140  -27.8520 O.2   310  LEU310     -0.2867
    106  CB        30.3960   15.2460  -28.2640 C.3   310  LEU310      0.0270
    107  CG        30.5630   15.7220  -26.8290 C.3   310  LEU310      0.0019
    108  CD1       30.2520   17.2430  -26.7150 C.3   310  LEU310      0.0001
    109  CD2       29.7080   14.8040  -25.9150 C.3   310  LEU310      0.0001
    110  N         35.8300   16.1400  -27.1690 N.3   313  SER313     -0.1202
    111  CA        35.8080   16.7270  -25.8260 C.3   313  SER313      0.2020
    112  C         36.7830   16.0610  -24.8360 C.2   313  SER313      0.2618
    113  O         37.6270   16.7320  -24.2410 O.2   313  SER313     -0.2717
    114  CB        34.3940   16.7310  -25.2750 C.3   313  SER313      0.2103
    115  OG        34.3750   17.2430  -23.9600 O.3   313  SER313     -0.2182
    116  N         36.6690   14.7470  -24.6670 N.am  314  ALA314     -0.1979
    117  CA        37.5210   14.0320  -23.6960 C.3   314  ALA314      0.1597
    118  C         38.9950   14.1040  -24.0820 C.2   314  ALA314      0.2287
    119  O         39.8580   14.3150  -23.2300 O.2   314  ALA314     -0.2864
    120  CB        37.0810   12.5770  -23.5620 C.3   314  ALA314      0.0319
    121  N         40.4410   17.4350  -23.1220 N.3   317  ARG317     -0.1245
    122  CA        40.6910   17.5460  -21.6710 C.3   317  ARG317      0.1563
    123  C         42.0720   17.0070  -21.3020 C.2   317  ARG317      0.2260
    124  O         42.6970   17.4910  -20.3520 O.2   317  ARG317     -0.2867
    125  CB        39.6540   16.7770  -20.8520 C.3   317  ARG317      0.0307
    126  CG        38.2400   17.3320  -20.8450 C.3   317  ARG317      0.0489
    127  CD        37.3550   16.3930  -20.0280 C.3   317  ARG317      0.2205
    128  NE        35.9180   16.5560  -20.3290 N.pl3 317  ARG317     -0.0865
    129  CZ        35.0530   17.2690  -19.6050 C.cat 317  ARG317      0.5346
    130  NH1       35.4430   17.9150  -18.5020 N.pl3 317  ARG317      0.1354
    131  NH2       33.7830   17.3340  -19.9820 N.pl3 317  ARG317      0.1354
@<TRIPOS>BOND
     1    91    92    1
     2    92    93    1
     3    92    95    1
     4    82    83    1
     5    94    93    2
     6    95    96    1
     7    83    86    1
     8    83    84    1
     9    77    78    2
    10    77    76    1
    11    86    87    1
    12    96    97    1
    13    84    85    2
    14    76    75    1
    15    76    79    1
    16    79    81    1
    17    79    80    1
    18    97    98    1
    19    87    88    1
    20   102   103    1
    21    90    88   am
    22    88    89    2
    23    98    99    2
    24   103   104    1
    25   103   106    1
    26   104   105    2
    27    99   100    1
    28    99   101    1
    29   106   107    1
    30    62    60    1
    31    74    73    1
    32    73    70    1
    33    61    60    1
    34    60    57    1
    35   110   111    1
    36   107   108    1
    37   107   109    1
    38    57    56    1
    39    57    58    1
    40    70    71    1
    41    70    69    1
    42    72    71    2
    43   111   114    1
    44   111   112    1
    45    69    65   am
    46   114   115    1
    47    58    63   am
    48    58    59    2
    49    63    64    1
    50   112   116   am
    51   112   113    2
    52   116   117    1
    53    65    64    1
    54    65    66    2
    55   118   117    1
    56   118   119    2
    57    64    67    1
    58    67    68    1
    59   117   120    1
    60   121   122    1
    61    30    28   ar
    62    30    29   ar
    63    55    54   ar
    64    55    53   ar
    65    49    48    2
    66    54    52   ar
    67    28    26   ar
    68    29    27   ar
    69    53    51   ar
    70   122   123    1
    71   122   125    1
    72   123   124    2
    73    48    47    1
    74    52    51   ar
    75    51    50    1
    76   125   126    1
    77   126   127    1
    78    26    27   ar
    79    26    25    1
    80    45    43    1
    81   128   127    1
    82   128   129    2
    83    47    50    1
    84    47    46    1
    85    44    43    1
    86   131   129    1
    87    43    40    1
    88    13    12    2
    89    37    36   ar
    90   129   130    1
    91    25    22    1
    92    38    36   ar
    93    22    21    1
    94    22    23    1
    95    36    35    1
    96    12    21   am
    97    12    11    1
    98    40    39    1
    99    40    41    1
   100    14    11    1
   101    14    15    1
   102    39    33   am
   103    31    23   am
   104    31    32    1
   105    23    24    2
   106    41    42    2
   107    11    10    1
   108    15    16    1
   109    35    32    1
   110    33    32    1
   111    33    34    2
   112    16    17    1
   113    17    18    2
   114     9     7   ar
   115    20    18    1
   116    18    19    1
   117     7     6    1
   118     7     8   ar
   119     6     5    1
   120     4     3    2
   121     5     2    1
   122     3     2    1
   123     2     1    1
