@<TRIPOS>MOLECULE
tmp/5nxgA00.pdb
 129 126 0 0 0
SMALL
GASTEIGER

@<TRIPOS>ATOM
      1  N         -7.6910    2.0300    5.7670 N.3    64  ASN64      -0.1240
      2  CA        -8.4150    3.0580    6.4760 C.3    64  ASN64       0.1653
      3  C         -9.4910    3.6380    5.5930 C.2    64  ASN64       0.2266
      4  O         -9.2250    4.0990    4.4870 O.2    64  ASN64      -0.2867
      5  CB        -7.5070    4.1860    6.9810 C.3    64  ASN64       0.1155
      6  CG        -6.2660    3.6830    7.6640 C.2    64  ASN64       0.2627
      7  OD1       -6.3050    2.7000    8.3770 O.2    64  ASN64      -0.2716
      8  ND2       -5.1580    4.3790    7.4510 N.am   64  ASN64      -0.0877
      9  N        -12.4980    7.9280   11.1420 N.3    89  GLN89      -0.1245
     10  CA       -12.1370    6.7970   10.2850 C.3    89  GLN89       0.1566
     11  C        -12.3900    5.5080   11.0290 C.2    89  GLN89       0.2260
     12  O        -12.4350    5.5100   12.2700 O.2    89  GLN89      -0.2867
     13  CB       -10.6580    6.8380    9.8260 C.3    89  GLN89       0.0367
     14  CG        -9.6150    6.8820   10.9330 C.3    89  GLN89       0.0905
     15  CD        -8.8630    5.5890   11.1580 C.2    89  GLN89       0.2608
     16  OE1       -9.4030    4.5200   11.0070 O.2    89  GLN89      -0.2717
     17  NE2       -7.6190    5.6890   11.5950 N.am   89  GLN89      -0.0878
     18  N        -11.0210    1.2050   10.7470 N.3    91  HIS91      -0.1241
     19  CA       -10.1630    0.2200   10.1420 C.3    91  HIS91       0.1621
     20  C        -10.2610   -1.0550   10.9630 C.2    91  HIS91       0.2264
     21  O        -10.8720   -1.0810   12.0280 O.2    91  HIS91      -0.2867
     22  CB        -8.7190    0.7150   10.0940 C.3    91  HIS91       0.0745
     23  CG        -8.1820    0.9960   11.4580 C.ar   91  HIS91       0.0817
     24  ND1       -8.3370    2.2070   12.0870 N.ar   91  HIS91      -0.2268
     25  CD2       -7.5940    0.1780   12.3530 C.ar   91  HIS91       0.1154
     26  CE1       -7.8500    2.1160   13.3050 C.ar   91  HIS91       0.1986
     27  NE2       -7.4110    0.8880   13.4940 N.ar   91  HIS91      -0.2212
     28  N         -7.9570   -4.7980   12.2840 N.3    93  HIS93      -0.1241
     29  CA        -6.7420   -5.5850   12.4540 C.3    93  HIS93       0.1621
     30  C         -7.1800   -7.0420   12.3550 C.2    93  HIS93       0.2264
     31  O         -8.2490   -7.3950   12.8450 O.2    93  HIS93      -0.2867
     32  CB        -6.0850   -5.3360   13.8210 C.3    93  HIS93       0.0745
     33  CG        -5.7950   -3.9110   14.1030 C.ar   93  HIS93       0.0817
     34  ND1       -4.5460   -3.3590   13.9440 N.ar   93  HIS93      -0.2268
     35  CD2       -6.5940   -2.9010   14.4870 C.ar   93  HIS93       0.1154
     36  CE1       -4.5930   -2.0710   14.2370 C.ar   93  HIS93       0.1986
     37  NE2       -5.8310   -1.7730   14.5620 N.ar   93  HIS93      -0.2212
     38  N        -11.8990   -0.9550   14.6880 N.3   116  HIS116     -0.1241
     39  CA       -11.6540    0.2770   15.4440 C.3   116  HIS116      0.1621
     40  C        -12.3180    1.4370   14.7490 C.2   116  HIS116      0.2264
     41  O        -11.9560    1.8030   13.6450 O.2   116  HIS116     -0.2867
     42  CB       -10.1620    0.5280   15.5380 C.3   116  HIS116      0.0745
     43  CG        -9.4710   -0.4420   16.4410 C.ar  116  HIS116      0.0817
     44  ND1       -8.1190   -0.6810   16.4270 N.ar  116  HIS116     -0.2268
     45  CD2       -9.9850   -1.2500   17.3950 C.ar  116  HIS116      0.1154
     46  CE1       -7.8420   -1.5770   17.3530 C.ar  116  HIS116      0.1986
     47  NE2       -8.9590   -1.9630   17.9330 N.ar  116  HIS116     -0.2212
     48  N        -12.6510    5.2820   15.0890 N.3   118  VAL118     -0.1245
     49  CA       -11.8040    6.2780   15.6980 C.3   118  VAL118      0.1561
     50  C        -12.4970    7.6300   15.7040 C.2   118  VAL118      0.2260
     51  O        -12.9060    8.1170   14.6590 O.2   118  VAL118     -0.2867
     52  CB       -10.4750    6.3800   14.9030 C.3   118  VAL118      0.0252
     53  CG1       -9.5340    7.3890   15.5550 C.3   118  VAL118      0.0019
     54  CG2       -9.8080    4.9940   14.7600 C.3   118  VAL118      0.0019
     55  N         -8.6970   16.3600   14.4480 N.3   127  PHE127     -0.1241
     56  CA        -8.0000   15.1560   14.8130 C.3   127  PHE127      0.1605
     57  C         -6.5140   15.4050   15.1600 C.2   127  PHE127      0.2264
     58  O         -5.9710   14.8680   16.1520 O.2   127  PHE127     -0.2867
     59  CB        -8.1170   14.1220   13.6820 C.3   127  PHE127      0.0534
     60  CG        -7.3260   12.8620   13.9470 C.ar  127  PHE127     -0.0203
     61  CD1       -7.8420   11.8360   14.7000 C.ar  127  PHE127     -0.0042
     62  CD2       -6.0470   12.7240   13.4540 C.ar  127  PHE127     -0.0042
     63  CE1       -7.0970   10.6900   14.9510 C.ar  127  PHE127     -0.0003
     64  CE2       -5.3040   11.5840   13.6970 C.ar  127  PHE127     -0.0003
     65  CZ        -5.8350   10.5700   14.4390 C.ar  127  PHE127     -0.0000
     66  N         -4.9460   14.3240   18.8950 N.3   131  VAL131     -0.1245
     67  CA        -4.0190   13.2250   19.2250 C.3   131  VAL131      0.1561
     68  C         -2.8720   13.6260   20.1330 C.2   131  VAL131      0.2260
     69  O         -2.2360   12.7680   20.7240 O.2   131  VAL131     -0.2867
     70  CB        -3.4100   12.4830   18.0000 C.3   131  VAL131      0.0252
     71  CG1       -4.5020   11.8070   17.2630 C.3   131  VAL131      0.0019
     72  CG2       -2.5750   13.3890   17.1040 C.3   131  VAL131      0.0019
     73  N        -11.7540    5.4390   20.9340 N.3   139  VAL139     -0.1245
     74  CA       -11.7900    4.3910   19.9430 C.3   139  VAL139      0.1561
     75  C        -12.7680    3.3330   20.4250 C.2   139  VAL139      0.2260
     76  O        -12.6380    2.8170   21.5190 O.2   139  VAL139     -0.2867
     77  CB       -10.4040    3.7890   19.5850 C.3   139  VAL139      0.0252
     78  CG1      -10.5910    2.8030   18.4530 C.3   139  VAL139      0.0019
     79  CG2       -9.4660    4.8840   19.1330 C.3   139  VAL139      0.0019
     80  N         -2.8750    4.7870   21.0600 N.3   194  LEU194     -0.1231
     81  CA        -2.9120    4.2400   19.7200 C.3   194  LEU194      0.1693
     82  C         -2.1880    2.9100   19.7740 C.2   194  LEU194      0.2593
     83  O         -1.1360    2.7780   20.4690 O.2   194  LEU194     -0.2718
     84  CB        -2.1780    5.1630   18.7430 C.3   194  LEU194      0.0284
     85  CG        -2.7270    6.5900   18.6490 C.3   194  LEU194      0.0019
     86  CD1       -1.8860    7.4080   17.6690 C.3   194  LEU194      0.0001
     87  CD2       -4.1640    6.6310   18.2090 C.3   194  LEU194      0.0001
     88  N         -2.6320    1.9660   18.9550 N.am  195  THR195     -0.1939
     89  CA        -1.9740    0.6650   18.8980 C.3   195  THR195      0.2028
     90  C         -0.9560    0.5400   17.7690 C.2   195  THR195      0.2643
     91  O         -0.3610   -0.5290   17.6080 O.2   195  THR195     -0.2714
     92  CB        -2.9740   -0.4930   18.7920 C.3   195  THR195      0.1808
     93  OG1       -3.5580   -0.4360   17.4910 O.3   195  THR195     -0.2208
     94  CG2       -4.0250   -0.4660   19.8670 C.3   195  THR195      0.0379
     95  N         -0.7650    1.5950   16.9840 N.am  196  THR196     -0.1937
     96  CA         0.3300    1.6620   16.0430 C.3   196  THR196      0.2013
     97  C          1.0840    2.9330   16.3380 C.2   196  THR196      0.2484
     98  O          0.5650    3.8660   16.9620 O.2   196  THR196     -0.2729
     99  CB        -0.1580    1.7440   14.5600 C.3   196  THR196      0.1807
    100  OG1       -0.7590    3.0180   14.2910 O.3   196  THR196     -0.2208
    101  CG2       -1.1610    0.6630   14.2420 C.3   196  THR196      0.0379
    102  N          2.3370    3.0060   15.8500 N.am  197  PRO197     -0.2715
    103  CA         3.0610    4.2870   15.8670 C.3   197  PRO197      0.1521
    104  C          2.1360    5.3990   15.3390 C.2   197  PRO197      0.2440
    105  O          1.4410    5.1910   14.3570 O.2   197  PRO197     -0.2731
    106  CB         4.2240    3.9960   14.9290 C.3   197  PRO197      0.0310
    107  CG         4.5240    2.5390   15.1560 C.3   197  PRO197      0.0237
    108  CD         3.1350    1.9310   15.2190 C.3   197  PRO197      0.0939
    109  N          2.1280    6.5700   15.9940 N.am  198  PRO198     -0.2727
    110  CA         3.1050    6.9850   17.0180 C.3   198  PRO198      0.1402
    111  C          2.8230    6.5400   18.4770 C.2   198  PRO198      0.2269
    112  O          3.4880    6.9910   19.4080 O.2   198  PRO198     -0.2865
    113  CB         3.0730    8.5280   16.8810 C.3   198  PRO198      0.0296
    114  CG         1.6420    8.8100   16.4760 C.3   198  PRO198      0.0237
    115  CD         1.3390    7.7040   15.4860 C.3   198  PRO198      0.0939
    116  N        -10.3450    3.9540   25.4560 N.3   205  TRP205     -0.1241
    117  CA       -10.8120    2.7420   24.7920 C.3   205  TRP205      0.1605
    118  C        -12.1760    2.3400   25.3000 C.2   205  TRP205      0.2264
    119  O        -12.4010    2.2930   26.5140 O.2   205  TRP205     -0.2867
    120  CB        -9.8200    1.5790   24.9930 C.3   205  TRP205      0.0550
    121  CG        -8.6840    1.7120   24.0290 C.ar  205  TRP205      0.0003
    122  CD1       -7.4490    2.2890   24.2110 C.ar  205  TRP205      0.0946
    123  CD2       -8.7290    1.3210   22.6730 C.ar  205  TRP205      0.0152
    124  NE1       -6.7420    2.2620   23.0550 N.ar  205  TRP205     -0.2442
    125  CE2       -7.4890    1.6730   22.0710 C.ar  205  TRP205      0.0810
    126  CE3       -9.6960    0.6960   21.8750 C.ar  205  TRP205      0.0012
    127  CZ2       -7.2300    1.4690   20.7330 C.ar  205  TRP205      0.0191
    128  CZ3       -9.4150    0.4440   20.5580 C.ar  205  TRP205      0.0001
    129  CH2       -8.1780    0.8250   19.9910 C.ar  205  TRP205      0.0015
@<TRIPOS>BOND
     1     4     3    2
     2     3     2    1
     3     1     2    1
     4     2     5    1
     5     5     6    1
     6     8     6   am
     7     6     7    2
     8    13    10    1
     9    13    14    1
    10    22    19    1
    11    22    23    1
    12    19    18    1
    13    19    20    1
    14    10    11    1
    15    10     9    1
    16    14    15    1
    17    20    21    2
    18    16    15    2
    19    11    12    2
    20    15    17   am
    21    23    24   ar
    22    23    25   ar
    23    24    26   ar
    24    28    29    1
    25    25    27   ar
    26    30    29    1
    27    30    31    2
    28    29    32    1
    29    26    27   ar
    30    62    64   ar
    31    62    60   ar
    32    41    40    2
    33    59    60    1
    34    59    56    1
    35    64    65   ar
    36    32    33    1
    37    34    33   ar
    38    34    36   ar
    39    60    61   ar
    40    33    35   ar
    41    36    37   ar
    42   101    99    1
    43   100    99    1
    44   105   104    2
    45    65    63   ar
    46    55    56    1
    47    35    37   ar
    48    99    96    1
    49    51    50    2
    50    38    39    1
    51    61    63   ar
    52    40    39    1
    53    54    52    1
    54    56    57    1
    55    52    53    1
    56    52    49    1
    57   106   107    1
    58   106   103    1
    59    48    49    1
    60   107   108    1
    61    57    58    2
    62   108   102    1
    63   104   103    1
    64   104   109   am
    65    39    42    1
    66   115   109    1
    67   115   114    1
    68    42    43    1
    69    49    50    1
    70   102   103    1
    71   102    97   am
    72   109   110    1
    73    96    97    1
    74    96    95    1
    75    97    98    2
    76    44    43   ar
    77    44    46   ar
    78    43    45   ar
    79   114   113    1
    80   113   110    1
    81    95    90   am
    82   110   111    1
    83    72    70    1
    84    71    70    1
    85    46    47   ar
    86    45    47   ar
    87    93    92    1
    88    91    90    2
    89    86    85    1
    90    90    89    1
    91    70    67    1
    92    87    85    1
    93    78    77    1
    94   111   112    2
    95    85    84    1
    96    84    81    1
    97    92    89    1
    98    92    94    1
    99    66    67    1
   100    89    88    1
   101    88    82   am
   102    79    77    1
   103    67    68    1
   104    77    74    1
   105    81    82    1
   106    81    80    1
   107    82    83    2
   108    74    75    1
   109    74    73    1
   110   129   128   ar
   111   129   127   ar
   112    68    69    2
   113    75    76    2
   114   128   126   ar
   115   127   125   ar
   116   126   123   ar
   117   125   123   ar
   118   125   124   ar
   119   123   121   ar
   120   124   122   ar
   121   121   122   ar
   122   121   120    1
   123   117   120    1
   124   117   118    1
   125   117   116    1
   126   118   119    2
