@<TRIPOS>MOLECULE
tmp/5nxiA00.pdb
 83 78 0 0 0
SMALL
GASTEIGER

@<TRIPOS>ATOM
      1  N         -3.4530    1.9810    3.6390 N.3    61  ASN61      -0.1240
      2  CA        -2.3300    2.8070    4.0800 C.3    61  ASN61       0.1653
      3  C         -1.0500    2.0110    4.3280 C.2    61  ASN61       0.2266
      4  O         -0.0810    2.5440    4.8790 O.2    61  ASN61      -0.2867
      5  CB        -2.6900    3.6430    5.3080 C.3    61  ASN61       0.1155
      6  CG        -2.9850    2.7980    6.5180 C.2    61  ASN61       0.2627
      7  OD1       -2.6920    1.6000    6.5820 O.2    61  ASN61      -0.2716
      8  ND2       -3.5720    3.4220    7.4890 N.am   61  ASN61      -0.0877
      9  N        -12.6920    7.9230   11.2150 N.3    91  GLN91      -0.1245
     10  CA       -12.3960    6.7840   10.3770 C.3    91  GLN91       0.1566
     11  C        -12.6660    5.5200   11.1530 C.2    91  GLN91       0.2260
     12  O        -12.6950    5.5350   12.3880 O.2    91  GLN91      -0.2867
     13  CB       -10.9260    6.8160    9.8980 C.3    91  GLN91       0.0367
     14  CG        -9.8610    6.8620   10.9960 C.3    91  GLN91       0.0905
     15  CD        -9.1310    5.5590   11.2920 C.2    91  GLN91       0.2608
     16  OE1       -9.6890    4.4730   11.2210 O.2    91  GLN91      -0.2717
     17  NE2       -7.8940    5.6810   11.7770 N.am   91  GLN91      -0.0878
     18  N        -12.8650    5.2630   15.2120 N.3   120  VAL120     -0.1245
     19  CA       -12.0100    6.2650   15.8400 C.3   120  VAL120      0.1561
     20  C        -12.7210    7.6020   15.8570 C.2   120  VAL120      0.2260
     21  O        -13.1610    8.0870   14.8000 O.2   120  VAL120     -0.2867
     22  CB       -10.6870    6.3810   15.0430 C.3   120  VAL120      0.0252
     23  CG1       -9.7360    7.3870   15.6910 C.3   120  VAL120      0.0019
     24  CG2      -10.0200    5.0140   14.9000 C.3   120  VAL120      0.0019
     25  N         -8.3130   16.6170   14.7720 N.3   129  PHE129     -0.1227
     26  CA        -7.7360   15.3420   15.1830 C.3   129  PHE129      0.1736
     27  C         -6.2820   15.4850   15.6120 C.2   129  PHE129      0.2596
     28  O         -5.8460   14.8910   16.6060 O.2   129  PHE129     -0.2718
     29  CB        -7.8740   14.3240   14.0230 C.3   129  PHE129      0.0547
     30  CG        -7.3020   12.9500   14.3040 C.ar  129  PHE129     -0.0202
     31  CD1       -8.0770   11.9660   14.9380 C.ar  129  PHE129     -0.0042
     32  CD2       -5.9950   12.6120   13.9620 C.ar  129  PHE129     -0.0042
     33  CE1       -7.6020   10.6520   15.1620 C.ar  129  PHE129     -0.0003
     34  CE2       -5.5270   11.3140   14.2360 C.ar  129  PHE129     -0.0003
     35  CZ        -6.3270   10.3530   14.8800 C.ar  129  PHE129     -0.0000
     36  N         -5.5260   16.2830   14.8580 N.am  130  GLY130     -0.1957
     37  CA        -4.1140   16.4450   15.1520 C.3   130  GLY130      0.1869
     38  C         -3.8390   17.0650   16.5190 C.2   130  GLY130      0.2309
     39  O         -2.8530   16.7440   17.1890 O.2   130  GLY130     -0.2863
     40  N         -4.9760   14.3040   19.4440 N.3   133  VAL133     -0.1245
     41  CA        -4.0500   13.2220   19.8060 C.3   133  VAL133      0.1561
     42  C         -2.9450   13.6440   20.7630 C.2   133  VAL133      0.2260
     43  O         -2.2660   12.7830   21.3160 O.2   133  VAL133     -0.2867
     44  CB        -3.4240   12.5070   18.5880 C.3   133  VAL133      0.0252
     45  CG1       -4.5030   11.8820   17.7180 C.3   133  VAL133      0.0019
     46  CG2       -2.5480   13.4540   17.7890 C.3   133  VAL133      0.0019
     47  N         -3.0670    4.8410   21.2470 N.3   196  LEU196     -0.1245
     48  CA        -3.0740    4.3040   19.8950 C.3   196  LEU196      0.1561
     49  C         -2.3250    2.9710   19.9280 C.2   196  LEU196      0.2260
     50  O         -1.3160    2.8300   20.6280 O.2   196  LEU196     -0.2867
     51  CB        -2.3620    5.2540   18.9530 C.3   196  LEU196      0.0270
     52  CG        -2.8740    6.6830   18.8660 C.3   196  LEU196      0.0019
     53  CD1       -2.0230    7.4850   17.8990 C.3   196  LEU196      0.0001
     54  CD2       -4.3410    6.7250   18.4680 C.3   196  LEU196      0.0001
     55  N         -0.8810    1.6550   17.1760 N.3   198  THR198     -0.1204
     56  CA         0.1910    1.7210   16.1890 C.3   198  THR198      0.1979
     57  C          0.9850    2.9750   16.4740 C.2   198  THR198      0.2460
     58  O          0.4820    3.9290   17.0810 O.2   198  THR198     -0.2732
     59  CB        -0.3190    1.8040   14.7390 C.3   198  THR198      0.1783
     60  OG1       -1.1670    2.9480   14.5580 O.3   198  THR198     -0.2211
     61  CG2       -1.1180    0.5810   14.3880 C.3   198  THR198      0.0376
     62  N          2.2610    2.9980   16.0410 N.am  199  PRO199     -0.2718
     63  CA         3.0060    4.2580   16.0940 C.3   199  PRO199      0.1520
     64  C          2.1730    5.4140   15.5250 C.2   199  PRO199      0.2440
     65  O          1.5280    5.2370   14.4860 O.2   199  PRO199     -0.2731
     66  CB         4.2650    3.9420   15.3020 C.3   199  PRO199      0.0310
     67  CG         4.4500    2.4650   15.5160 C.3   199  PRO199      0.0237
     68  CD         3.0610    1.9210   15.4570 C.3   199  PRO199      0.0939
     69  N          2.1740    6.5690   16.1820 N.am  200  PRO200     -0.2727
     70  CA         3.0720    6.9790   17.2750 C.3   200  PRO200      0.1402
     71  C          2.7180    6.5350   18.7170 C.2   200  PRO200      0.2269
     72  O          3.3740    7.0000   19.6660 O.2   200  PRO200     -0.2865
     73  CB         3.0520    8.5160   17.1380 C.3   200  PRO200      0.0296
     74  CG         1.6780    8.7990   16.6450 C.3   200  PRO200      0.0237
     75  CD         1.4030    7.7090   15.6430 C.3   200  PRO200      0.0939
     76  N          0.4580    7.1810   20.8760 N.3   202  LEU202     -0.1245
     77  CA         0.1780    8.2940   21.7710 C.3   202  LEU202      0.1561
     78  C         -0.8480    7.8920   22.8030 C.2   202  LEU202      0.2260
     79  O         -1.8270    7.1870   22.4860 O.2   202  LEU202     -0.2867
     80  CB        -0.3160    9.5220   20.9810 C.3   202  LEU202      0.0270
     81  CG         0.7320   10.1060   20.0310 C.3   202  LEU202      0.0019
     82  CD1        0.1010   11.1160   19.0970 C.3   202  LEU202      0.0001
     83  CD2        1.8930   10.7480   20.7930 C.3   202  LEU202      0.0001
@<TRIPOS>BOND
     1     1     2    1
     2     2     3    1
     3     2     5    1
     4     3     4    2
     5     5     6    1
     6     6     7    2
     7     6     8   am
     8    13    10    1
     9    13    14    1
    10    10    11    1
    11    10     9    1
    12    14    15    1
    13    11    12    2
    14    16    15    2
    15    15    17   am
    16    32    34   ar
    17    32    30   ar
    18    29    30    1
    19    29    26    1
    20    34    35   ar
    21    30    31   ar
    22    61    59    1
    23    65    64    2
    24    60    59    1
    25    59    56    1
    26    25    26    1
    27    21    20    2
    28    36    37    1
    29    36    27   am
    30    35    33   ar
    31    24    22    1
    32    31    33   ar
    33    22    23    1
    34    22    19    1
    35    37    38    1
    36    26    27    1
    37    18    19    1
    38    66    67    1
    39    66    63    1
    40    68    67    1
    41    68    62    1
    42    64    63    1
    43    64    69   am
    44    27    28    2
    45    75    69    1
    46    75    74    1
    47    19    20    1
    48    62    63    1
    49    62    57   am
    50    69    70    1
    51    56    57    1
    52    56    55    1
    53    57    58    2
    54    38    39    2
    55    74    73    1
    56    73    70    1
    57    70    71    1
    58    45    44    1
    59    46    44    1
    60    53    52    1
    61    54    52    1
    62    44    41    1
    63    71    72    2
    64    52    51    1
    65    51    48    1
    66    82    81    1
    67    40    41    1
    68    41    42    1
    69    48    49    1
    70    48    47    1
    71    49    50    2
    72    81    83    1
    73    81    80    1
    74    42    43    2
    75    76    77    1
    76    80    77    1
    77    77    78    1
    78    79    78    2
