@<TRIPOS>MOLECULE
tmp/5nxmA00.pdb
 129 126 0 0 0
SMALL
GASTEIGER

@<TRIPOS>ATOM
      1  N         -8.3840    2.1110    5.8710 N.3    65  ASN65      -0.1240
      2  CA        -9.2180    3.0500    6.6030 C.3    65  ASN65       0.1653
      3  C        -10.4200    3.4650    5.7920 C.2    65  ASN65       0.2266
      4  O        -10.2610    3.9030    4.6300 O.2    65  ASN65      -0.2867
      5  CB        -8.4560    4.3130    6.9960 C.3    65  ASN65       0.1155
      6  CG        -7.4070    4.0710    8.0330 C.2    65  ASN65       0.2627
      7  OD1       -7.2400    2.9560    8.5290 O.2    65  ASN65      -0.2716
      8  ND2       -6.6830    5.1270    8.3770 N.am   65  ASN65      -0.0877
      9  N        -12.6010    7.8830   11.2090 N.3    90  GLN90      -0.1245
     10  CA       -12.3050    6.7450   10.3600 C.3    90  GLN90       0.1566
     11  C        -12.5620    5.4840   11.1320 C.2    90  GLN90       0.2260
     12  O        -12.6070    5.5130   12.3750 O.2    90  GLN90      -0.2867
     13  CB       -10.8670    6.7510    9.8760 C.3    90  GLN90       0.0367
     14  CG        -9.7870    6.8630   10.9690 C.3    90  GLN90       0.0905
     15  CD        -9.0500    5.5610   11.2880 C.2    90  GLN90       0.2608
     16  OE1       -9.6140    4.4720   11.1470 O.2    90  GLN90      -0.2717
     17  NE2       -7.8250    5.6590   11.7460 N.am   90  GLN90      -0.0878
     18  N        -11.1650    1.1890   10.8950 N.3    92  HIS92      -0.1241
     19  CA       -10.3020    0.1960   10.2890 C.3    92  HIS92       0.1621
     20  C        -10.3660   -1.0670   11.1150 C.2    92  HIS92       0.2264
     21  O        -11.0020   -1.0890   12.1670 O.2    92  HIS92      -0.2867
     22  CB        -8.8640    0.6780   10.2280 C.3    92  HIS92       0.0745
     23  CG        -8.3240    0.9810   11.5940 C.ar   92  HIS92       0.0817
     24  ND1       -8.4870    2.1900   12.2290 N.ar   92  HIS92      -0.2268
     25  CD2       -7.6700    0.1780   12.4740 C.ar   92  HIS92       0.1154
     26  CE1       -7.9810    2.0980   13.4550 C.ar   92  HIS92       0.1986
     27  NE2       -7.5080    0.8710   13.6340 N.ar   92  HIS92      -0.2212
     28  N         -8.0450   -4.7700   12.4500 N.3    94  HIS94      -0.1241
     29  CA        -6.8570   -5.5730   12.6170 C.3    94  HIS94       0.1621
     30  C         -7.2830   -7.0310   12.5110 C.2    94  HIS94       0.2264
     31  O         -8.3580   -7.3800   13.0040 O.2    94  HIS94      -0.2867
     32  CB        -6.1920   -5.3210   13.9880 C.3    94  HIS94       0.0745
     33  CG        -5.9010   -3.8830   14.2410 C.ar   94  HIS94       0.0817
     34  ND1       -4.6590   -3.3180   14.0690 N.ar   94  HIS94      -0.2268
     35  CD2       -6.7100   -2.8950   14.6710 C.ar   94  HIS94       0.1154
     36  CE1       -4.7250   -2.0330   14.3630 C.ar   94  HIS94       0.1986
     37  NE2       -5.9520   -1.7550   14.7350 N.ar   94  HIS94      -0.2212
     38  N        -12.0000   -0.9540   14.8250 N.3   117  HIS117     -0.1241
     39  CA       -11.7610    0.2600   15.5870 C.3   117  HIS117      0.1621
     40  C        -12.4430    1.4230   14.8910 C.2   117  HIS117      0.2264
     41  O        -12.0700    1.7850   13.7670 O.2   117  HIS117     -0.2867
     42  CB       -10.2690    0.5330   15.6910 C.3   117  HIS117      0.0745
     43  CG        -9.5990   -0.4290   16.5840 C.ar  117  HIS117      0.0817
     44  ND1       -8.2500   -0.6490   16.5910 N.ar  117  HIS117     -0.2268
     45  CD2      -10.1200   -1.2450   17.5310 C.ar  117  HIS117      0.1154
     46  CE1       -7.9590   -1.5800   17.4760 C.ar  117  HIS117      0.1986
     47  NE2       -9.0650   -1.9440   18.0800 N.ar  117  HIS117     -0.2212
     48  N        -12.8000    5.2390   15.2030 N.3   119  VAL119     -0.1245
     49  CA       -11.9600    6.2440   15.8280 C.3   119  VAL119      0.1561
     50  C        -12.6530    7.5850   15.8360 C.2   119  VAL119      0.2260
     51  O        -13.0860    8.0770   14.7720 O.2   119  VAL119     -0.2867
     52  CB       -10.6400    6.3570   15.0270 C.3   119  VAL119      0.0252
     53  CG1       -9.6970    7.3700   15.6610 C.3   119  VAL119      0.0019
     54  CG2       -9.9630    4.9850   14.8740 C.3   119  VAL119      0.0019
     55  N         -8.3150   16.4700   14.7270 N.3   128  PHE128     -0.1241
     56  CA        -7.7530   15.2070   15.1460 C.3   128  PHE128      0.1605
     57  C         -6.3080   15.3890   15.5860 C.2   128  PHE128      0.2264
     58  O         -5.8560   14.8110   16.5850 O.2   128  PHE128     -0.2867
     59  CB        -7.8680   14.2080   13.9980 C.3   128  PHE128      0.0534
     60  CG        -7.2630   12.8610   14.2930 C.ar  128  PHE128     -0.0203
     61  CD1       -7.9950   11.8970   14.9380 C.ar  128  PHE128     -0.0042
     62  CD2       -5.9400   12.5980   14.0210 C.ar  128  PHE128     -0.0042
     63  CE1       -7.4610   10.6650   15.2110 C.ar  128  PHE128     -0.0003
     64  CE2       -5.3900   11.3740   14.3330 C.ar  128  PHE128     -0.0003
     65  CZ        -6.1590   10.4060   14.9360 C.ar  128  PHE128     -0.0000
     66  N         -4.9290   14.2390   19.4220 N.3   132  VAL132     -0.1245
     67  CA        -4.0170   13.1650   19.7800 C.3   132  VAL132      0.1561
     68  C         -2.9220   13.5870   20.7260 C.2   132  VAL132      0.2260
     69  O         -2.2480   12.7410   21.2830 O.2   132  VAL132     -0.2867
     70  CB        -3.3820   12.4590   18.5750 C.3   132  VAL132      0.0252
     71  CG1       -4.4440   11.7960   17.7260 C.3   132  VAL132      0.0019
     72  CG2       -2.5190   13.3860   17.7560 C.3   132  VAL132      0.0019
     73  N        -11.9240    5.4370   21.0840 N.3   140  VAL140     -0.1245
     74  CA       -11.9510    4.3880   20.0630 C.3   140  VAL140      0.1561
     75  C        -12.9030    3.3290   20.5640 C.2   140  VAL140      0.2260
     76  O        -12.7560    2.8180   21.6740 O.2   140  VAL140     -0.2867
     77  CB       -10.5570    3.8140   19.7090 C.3   140  VAL140      0.0252
     78  CG1      -10.7270    2.8050   18.5830 C.3   140  VAL140      0.0019
     79  CG2       -9.6090    4.9150   19.2780 C.3   140  VAL140      0.0019
     80  N         -3.0270    4.8180   21.2130 N.3   195  LEU195     -0.1231
     81  CA        -3.0300    4.2980   19.8450 C.3   195  LEU195      0.1693
     82  C         -2.2910    2.9670   19.8540 C.2   195  LEU195      0.2593
     83  O         -1.2720    2.8290   20.5730 O.2   195  LEU195     -0.2718
     84  CB        -2.3210    5.2690   18.9000 C.3   195  LEU195      0.0284
     85  CG        -2.8280    6.6970   18.8390 C.3   195  LEU195      0.0019
     86  CD1       -2.0280    7.5180   17.8540 C.3   195  LEU195      0.0001
     87  CD2       -4.2920    6.7570   18.4900 C.3   195  LEU195      0.0001
     88  N         -2.7380    2.0060   19.0490 N.am  196  THR196     -0.1939
     89  CA        -2.0840    0.7170   18.9960 C.3   196  THR196      0.2028
     90  C         -1.0770    0.6020   17.8510 C.2   196  THR196      0.2643
     91  O         -0.4720   -0.4610   17.6890 O.2   196  THR196     -0.2714
     92  CB        -3.1030   -0.4150   18.8900 C.3   196  THR196      0.1808
     93  OG1       -3.6830   -0.3860   17.6020 O.3   196  THR196     -0.2208
     94  CG2       -4.1010   -0.3970   20.0200 C.3   196  THR196      0.0379
     95  N         -0.9010    1.6650   17.0720 N.am  197  THR197     -0.1937
     96  CA         0.1730    1.7530   16.0710 C.3   197  THR197      0.2013
     97  C          0.9700    3.0070   16.3630 C.2   197  THR197      0.2484
     98  O          0.4520    3.9460   16.9710 O.2   197  THR197     -0.2729
     99  CB        -0.3600    1.8320   14.6340 C.3   197  THR197      0.1807
    100  OG1       -1.3110    2.8960   14.4800 O.3   197  THR197     -0.2208
    101  CG2       -1.0290    0.5740   14.2360 C.3   197  THR197      0.0379
    102  N          2.2530    3.0520   15.9310 N.am  198  PRO198     -0.2715
    103  CA         3.0090    4.2900   16.0120 C.3   198  PRO198      0.1521
    104  C          2.1790    5.4640   15.4730 C.2   198  PRO198      0.2440
    105  O          1.5370    5.3240   14.4340 O.2   198  PRO198     -0.2731
    106  CB         4.2290    3.9750   15.1600 C.3   198  PRO198      0.0310
    107  CG         4.4340    2.5250   15.3830 C.3   198  PRO198      0.0237
    108  CD         3.0430    1.9630   15.3280 C.3   198  PRO198      0.0939
    109  N          2.1450    6.6030   16.1500 N.am  199  PRO199     -0.2727
    110  CA         3.0940    6.9930   17.2050 C.3   199  PRO199      0.1402
    111  C          2.7190    6.5460   18.6400 C.2   199  PRO199      0.2269
    112  O          3.3700    6.9710   19.5880 O.2   199  PRO199     -0.2865
    113  CB         3.0870    8.5190   17.0680 C.3   199  PRO199      0.0296
    114  CG         1.7070    8.8340   16.5970 C.3   199  PRO199      0.0237
    115  CD         1.4000    7.7480   15.6030 C.3   199  PRO199      0.0939
    116  N        -10.5080    3.9700   25.6350 N.3   206  TRP206     -0.1241
    117  CA       -10.9430    2.7690   24.9430 C.3   206  TRP206      0.1605
    118  C        -12.3030    2.3480   25.4620 C.2   206  TRP206      0.2264
    119  O        -12.5420    2.3010   26.6680 O.2   206  TRP206     -0.2867
    120  CB        -9.9440    1.6160   25.1530 C.3   206  TRP206      0.0550
    121  CG        -8.8300    1.7190   24.1590 C.ar  206  TRP206      0.0003
    122  CD1       -7.5890    2.3010   24.3410 C.ar  206  TRP206      0.0946
    123  CD2       -8.8890    1.3130   22.7990 C.ar  206  TRP206      0.0152
    124  NE1       -6.9120    2.2850   23.1670 N.ar  206  TRP206     -0.2442
    125  CE2       -7.6610    1.6800   22.1980 C.ar  206  TRP206      0.0810
    126  CE3       -9.8530    0.6680   22.0200 C.ar  206  TRP206      0.0012
    127  CZ2       -7.3820    1.4450   20.8670 C.ar  206  TRP206      0.0191
    128  CZ3       -9.5650    0.4120   20.7060 C.ar  206  TRP206      0.0001
    129  CH2       -8.3510    0.7950   20.1440 C.ar  206  TRP206      0.0015
@<TRIPOS>BOND
     1     4     3    2
     2     3     2    1
     3     1     2    1
     4     2     5    1
     5     5     6    1
     6     6     8   am
     7     6     7    2
     8    13    10    1
     9    13    14    1
    10    22    19    1
    11    22    23    1
    12    19    18    1
    13    19    20    1
    14    10    11    1
    15    10     9    1
    16    14    15    1
    17    20    21    2
    18    11    12    2
    19    16    15    2
    20    15    17   am
    21    23    24   ar
    22    23    25   ar
    23    24    26   ar
    24    28    29    1
    25    25    27   ar
    26    30    29    1
    27    30    31    2
    28    29    32    1
    29    26    27   ar
    30    41    40    2
    31    32    33    1
    32    59    60    1
    33    59    56    1
    34    62    60   ar
    35    62    64   ar
    36    34    33   ar
    37    34    36   ar
    38   101    99    1
    39    33    35   ar
    40    60    61   ar
    41    64    65   ar
    42    36    37   ar
    43   105   104    2
    44   100    99    1
    45    99    96    1
    46    35    37   ar
    47    55    56    1
    48    51    50    2
    49    38    39    1
    50    54    52    1
    51    40    39    1
    52    65    63   ar
    53    61    63   ar
    54    52    53    1
    55    52    49    1
    56    56    57    1
    57   106   107    1
    58   106   103    1
    59    48    49    1
    60   108   107    1
    61   108   102    1
    62   104   103    1
    63   104   109   am
    64    57    58    2
    65    39    42    1
    66   115   109    1
    67   115   114    1
    68    42    43    1
    69    49    50    1
    70   102   103    1
    71   102    97   am
    72    96    97    1
    73    96    95    1
    74   109   110    1
    75    97    98    2
    76    43    44   ar
    77    43    45   ar
    78    44    46   ar
    79   114   113    1
    80   113   110    1
    81    95    90   am
    82   110   111    1
    83    46    47   ar
    84    45    47   ar
    85    93    92    1
    86    91    90    2
    87    71    70    1
    88    72    70    1
    89    90    89    1
    90    86    85    1
    91    87    85    1
    92    70    67    1
    93    78    77    1
    94   111   112    2
    95    85    84    1
    96    92    89    1
    97    92    94    1
    98    84    81    1
    99    89    88    1
   100    88    82   am
   101    79    77    1
   102    66    67    1
   103    77    74    1
   104    67    68    1
   105    81    82    1
   106    81    80    1
   107    82    83    2
   108    74    75    1
   109    74    73    1
   110   129   128   ar
   111   129   127   ar
   112    75    76    2
   113   128   126   ar
   114    68    69    2
   115   127   125   ar
   116   126   123   ar
   117   125   123   ar
   118   125   124   ar
   119   123   121   ar
   120   124   122   ar
   121   121   122   ar
   122   121   120    1
   123   117   120    1
   124   117   118    1
   125   117   116    1
   126   118   119    2
