@<TRIPOS>MOLECULE
tmp/5nxoA00.pdb
 136 132 0 0 0
SMALL
GASTEIGER

@<TRIPOS>ATOM
      1  N        -12.7780    7.9060   11.1070 N.3    90  GLN90      -0.1245
      2  CA       -12.4690    6.7530   10.2760 C.3    90  GLN90       0.1566
      3  C        -12.7240    5.4970   11.0530 C.2    90  GLN90       0.2260
      4  O        -12.7920    5.5350   12.2890 O.2    90  GLN90      -0.2867
      5  CB       -11.0240    6.7670    9.7790 C.3    90  GLN90       0.0367
      6  CG        -9.9570    6.9060   10.8850 C.3    90  GLN90       0.0905
      7  CD        -9.1620    5.6450   11.1570 C.2    90  GLN90       0.2608
      8  OE1       -9.6870    4.5300   11.0830 O.2    90  GLN90      -0.2717
      9  NE2       -7.9010    5.8150   11.4710 N.am   90  GLN90      -0.0878
     10  N        -11.2440    1.2200   10.8430 N.3    92  HIS92      -0.1241
     11  CA       -10.3660    0.2310   10.2450 C.3    92  HIS92       0.1621
     12  C        -10.4420   -1.0310   11.0720 C.2    92  HIS92       0.2264
     13  O        -11.0600   -1.0610   12.1250 O.2    92  HIS92      -0.2867
     14  CB        -8.9240    0.7420   10.2010 C.3    92  HIS92       0.0745
     15  CG        -8.3900    1.0350   11.5600 C.ar   92  HIS92       0.0817
     16  ND1       -8.5540    2.2520   12.1760 N.ar   92  HIS92      -0.2268
     17  CD2       -7.7310    0.2520   12.4440 C.ar   92  HIS92       0.1154
     18  CE1       -8.0600    2.1820   13.4070 C.ar   92  HIS92       0.1986
     19  NE2       -7.5730    0.9790   13.5900 N.ar   92  HIS92      -0.2212
     20  N         -8.1200   -4.7360   12.4200 N.3    94  HIS94      -0.1241
     21  CA        -6.9180   -5.5510   12.5890 C.3    94  HIS94       0.1621
     22  C         -7.3620   -7.0010   12.4950 C.2    94  HIS94       0.2264
     23  O         -8.4270   -7.3580   13.0010 O.2    94  HIS94      -0.2867
     24  CB        -6.2600   -5.2740   13.9470 C.3    94  HIS94       0.0745
     25  CG        -5.9800   -3.8240   14.2180 C.ar   94  HIS94       0.0817
     26  ND1       -4.7400   -3.2560   14.0280 N.ar   94  HIS94      -0.2268
     27  CD2       -6.7930   -2.8180   14.6250 C.ar   94  HIS94       0.1154
     28  CE1       -4.8000   -1.9650   14.3270 C.ar   94  HIS94       0.1986
     29  NE2       -6.0380   -1.6740   14.6740 N.ar   94  HIS94      -0.2212
     30  N        -12.0910   -0.9360   14.7820 N.3   117  HIS117     -0.1241
     31  CA       -11.8570    0.3030   15.5090 C.3   117  HIS117      0.1621
     32  C        -12.5570    1.4470   14.8210 C.2   117  HIS117      0.2264
     33  O        -12.1620    1.8190   13.7230 O.2   117  HIS117     -0.2867
     34  CB       -10.3520    0.5820   15.6290 C.3   117  HIS117      0.0745
     35  CG        -9.6730   -0.3840   16.5300 C.ar  117  HIS117      0.0817
     36  ND1       -8.3260   -0.5960   16.5310 N.ar  117  HIS117     -0.2268
     37  CD2      -10.1800   -1.2140   17.4690 C.ar  117  HIS117      0.1154
     38  CE1       -8.0130   -1.5030   17.4280 C.ar  117  HIS117      0.1986
     39  NE2       -9.1220   -1.8960   18.0210 N.ar  117  HIS117     -0.2212
     40  N        -12.9320    5.2440   15.1250 N.3   119  VAL119     -0.1245
     41  CA       -12.0750    6.2510   15.7280 C.3   119  VAL119      0.1561
     42  C        -12.7870    7.5960   15.7510 C.2   119  VAL119      0.2260
     43  O        -13.2410    8.0910   14.7070 O.2   119  VAL119     -0.2867
     44  CB       -10.7690    6.3780   14.9200 C.3   119  VAL119      0.0252
     45  CG1       -9.8410    7.4260   15.5730 C.3   119  VAL119      0.0019
     46  CG2      -10.0960    5.0130   14.7930 C.3   119  VAL119      0.0019
     47  N         -8.4450   16.5670   14.6400 N.3   128  PHE128     -0.1241
     48  CA        -7.8560   15.3020   15.0380 C.3   128  PHE128      0.1605
     49  C         -6.4130   15.4660   15.4690 C.2   128  PHE128      0.2264
     50  O         -5.9730   14.8820   16.4580 O.2   128  PHE128     -0.2867
     51  CB        -7.9670   14.3330   13.8670 C.3   128  PHE128      0.0534
     52  CG        -7.4230   12.9620   14.1410 C.ar  128  PHE128     -0.0203
     53  CD1       -8.1780   12.0240   14.8280 C.ar  128  PHE128     -0.0042
     54  CD2       -6.1300   12.6150   13.7440 C.ar  128  PHE128     -0.0042
     55  CE1       -7.6760   10.7750   15.1000 C.ar  128  PHE128     -0.0003
     56  CE2       -5.6240   11.3500   14.0150 C.ar  128  PHE128     -0.0003
     57  CZ        -6.4100   10.4400   14.7030 C.ar  128  PHE128     -0.0000
     58  N         -5.0280   14.2820   19.2850 N.3   132  VAL132     -0.1245
     59  CA        -4.1110   13.1830   19.6460 C.3   132  VAL132      0.1561
     60  C         -3.0140   13.6180   20.6050 C.2   132  VAL132      0.2260
     61  O         -2.3140   12.7640   21.1500 O.2   132  VAL132     -0.2867
     62  CB        -3.4910   12.4820   18.4200 C.3   132  VAL132      0.0252
     63  CG1       -4.5970   11.8580   17.5810 C.3   132  VAL132      0.0019
     64  CG2       -2.6030   13.4030   17.5860 C.3   132  VAL132      0.0019
     65  N        -12.0300    5.4460   20.9990 N.3   140  VAL140     -0.1245
     66  CA       -12.0520    4.4040   19.9840 C.3   140  VAL140      0.1561
     67  C        -13.0070    3.3500   20.4730 C.2   140  VAL140      0.2260
     68  O        -12.8710    2.8390   21.6040 O.2   140  VAL140     -0.2867
     69  CB       -10.6730    3.8270   19.6450 C.3   140  VAL140      0.0252
     70  CG1      -10.8250    2.8260   18.5320 C.3   140  VAL140      0.0019
     71  CG2       -9.7350    4.9250   19.1910 C.3   140  VAL140      0.0019
     72  N         -3.1000    4.8170   21.1930 N.3   195  LEU195     -0.1231
     73  CA        -3.1070    4.2810   19.8400 C.3   195  LEU195      0.1693
     74  C         -2.3730    2.9620   19.8630 C.2   195  LEU195      0.2593
     75  O         -1.3570    2.8070   20.5580 O.2   195  LEU195     -0.2718
     76  CB        -2.3860    5.2140   18.8830 C.3   195  LEU195      0.0284
     77  CG        -2.8520    6.6640   18.8130 C.3   195  LEU195      0.0019
     78  CD1       -1.9700    7.4400   17.8550 C.3   195  LEU195      0.0001
     79  CD2       -4.3070    6.7560   18.3880 C.3   195  LEU195      0.0001
     80  N         -2.8100    2.0290   19.0160 N.am  196  THR196     -0.1939
     81  CA        -2.1740    0.7060   18.9300 C.3   196  THR196      0.2028
     82  C         -1.1760    0.5860   17.7980 C.2   196  THR196      0.2643
     83  O         -0.5660   -0.4610   17.6370 O.2   196  THR196     -0.2714
     84  CB        -3.1880   -0.4360   18.8380 C.3   196  THR196      0.1808
     85  OG1       -3.8100   -0.3560   17.5550 O.3   196  THR196     -0.2208
     86  CG2       -4.1850   -0.4200   19.9680 C.3   196  THR196      0.0379
     87  N         -0.9910    1.6570   17.0300 N.am  197  THR197     -0.1937
     88  CA         0.0710    1.7510   16.0350 C.3   197  THR197      0.2013
     89  C          0.9010    2.9990   16.3290 C.2   197  THR197      0.2484
     90  O          0.4120    3.9410   16.9460 O.2   197  THR197     -0.2729
     91  CB        -0.4600    1.8660   14.6080 C.3   197  THR197      0.1807
     92  OG1       -1.3510    2.9790   14.4880 O.3   197  THR197     -0.2208
     93  CG2       -1.1670    0.6380   14.2290 C.3   197  THR197      0.0379
     94  N          2.1780    3.0170   15.8940 N.am  198  PRO198     -0.2715
     95  CA         2.9400    4.2470   15.9900 C.3   198  PRO198      0.1521
     96  C          2.1330    5.4340   15.4520 C.2   198  PRO198      0.2440
     97  O          1.5090    5.3010   14.4050 O.2   198  PRO198     -0.2731
     98  CB         4.1790    3.9270   15.1610 C.3   198  PRO198      0.0310
     99  CG         4.3590    2.4560   15.3650 C.3   198  PRO198      0.0237
    100  CD         2.9630    1.9290   15.3030 C.3   198  PRO198      0.0939
    101  N          2.1390    6.5740   16.1270 N.am  199  PRO199     -0.2727
    102  CA         3.0760    6.9490   17.1920 C.3   199  PRO199      0.1402
    103  C          2.7020    6.5000   18.6190 C.2   199  PRO199      0.2269
    104  O          3.3480    6.9500   19.5680 O.2   199  PRO199     -0.2865
    105  CB         3.1060    8.4790   17.0670 C.3   199  PRO199      0.0296
    106  CG         1.7270    8.7910   16.5900 C.3   199  PRO199      0.0237
    107  CD         1.4090    7.7400   15.5910 C.3   199  PRO199      0.0939
    108  N          0.4610    7.1700   20.7770 N.3   201  LEU201     -0.1245
    109  CA         0.1640    8.2760   21.6850 C.3   201  LEU201      0.1561
    110  C         -0.8720    7.8660   22.7150 C.2   201  LEU201      0.2260
    111  O         -1.8400    7.1550   22.3980 O.2   201  LEU201     -0.2867
    112  CB        -0.3220    9.5120   20.9060 C.3   201  LEU201      0.0270
    113  CG         0.7350   10.1000   19.9670 C.3   201  LEU201      0.0019
    114  CD1        0.1080   11.1560   19.0680 C.3   201  LEU201      0.0001
    115  CD2        1.9250   10.7020   20.7220 C.3   201  LEU201      0.0001
    116  N         -6.2070    7.9490   24.2040 N.3   204  VAL204     -0.1245
    117  CA        -7.4380    7.2300   23.8670 C.3   204  VAL204      0.1561
    118  C         -8.1980    6.7940   25.1080 C.2   204  VAL204      0.2260
    119  O         -7.6400    6.1570   25.9960 O.2   204  VAL204     -0.2867
    120  CB        -7.1370    5.9770   22.9910 C.3   204  VAL204      0.0252
    121  CG1       -8.4320    5.2500   22.6090 C.3   204  VAL204      0.0019
    122  CG2       -6.3470    6.3580   21.7280 C.3   204  VAL204      0.0019
    123  N        -10.6290    3.9760   25.5600 N.3   206  TRP206     -0.1241
    124  CA       -11.0650    2.7830   24.8870 C.3   206  TRP206      0.1605
    125  C        -12.4390    2.3720   25.3830 C.2   206  TRP206      0.2264
    126  O        -12.6620    2.3460   26.5710 O.2   206  TRP206     -0.2867
    127  CB       -10.0530    1.6180   25.0960 C.3   206  TRP206      0.0550
    128  CG        -8.9410    1.7360   24.1240 C.ar  206  TRP206      0.0003
    129  CD1       -7.7060    2.3240   24.3130 C.ar  206  TRP206      0.0946
    130  CD2       -8.9940    1.3560   22.7450 C.ar  206  TRP206      0.0152
    131  NE1       -7.0170    2.3310   23.1470 N.ar  206  TRP206     -0.2442
    132  CE2       -7.7630    1.7180   22.1670 C.ar  206  TRP206      0.0810
    133  CE3       -9.9410    0.7130   21.9530 C.ar  206  TRP206      0.0012
    134  CZ2       -7.4790    1.4800   20.8280 C.ar  206  TRP206      0.0191
    135  CZ3       -9.6510    0.4650   20.6390 C.ar  206  TRP206      0.0001
    136  CH2       -8.4390    0.8440   20.0800 C.ar  206  TRP206      0.0015
@<TRIPOS>BOND
     1     5     2    1
     2     5     6    1
     3    14    11    1
     4    14    15    1
     5    11    10    1
     6    11    12    1
     7     2     3    1
     8     2     1    1
     9     6     7    1
    10     3     4    2
    11    12    13    2
    12     8     7    2
    13     7     9   am
    14    15    16   ar
    15    15    17   ar
    16    16    18   ar
    17    20    21    1
    18    17    19   ar
    19    22    21    1
    20    22    23    2
    21    21    24    1
    22    18    19   ar
    23    33    32    2
    24    54    56   ar
    25    54    52   ar
    26    51    52    1
    27    51    48    1
    28    24    25    1
    29    56    57   ar
    30    26    25   ar
    31    26    28   ar
    32    52    53   ar
    33    25    27   ar
    34    93    91    1
    35    28    29   ar
    36    97    96    2
    37    92    91    1
    38    91    88    1
    39    27    29   ar
    40    47    48    1
    41    57    55   ar
    42    43    42    2
    43    30    31    1
    44    46    44    1
    45    32    31    1
    46    53    55   ar
    47    44    45    1
    48    44    41    1
    49    48    49    1
    50    40    41    1
    51    98    99    1
    52    98    95    1
    53   100    99    1
    54   100    94    1
    55    96    95    1
    56    96   101   am
    57    49    50    2
    58    31    34    1
    59   107   101    1
    60   107   106    1
    61    34    35    1
    62    41    42    1
    63    94    95    1
    64    94    89   am
    65    88    89    1
    66    88    87    1
    67   101   102    1
    68    89    90    2
    69    35    36   ar
    70    35    37   ar
    71    36    38   ar
    72   106   105    1
    73    87    82   am
    74   105   102    1
    75   102   103    1
    76    38    39   ar
    77    37    39   ar
    78    85    84    1
    79    63    62    1
    80    64    62    1
    81    83    82    2
    82    82    81    1
    83    78    77    1
    84    79    77    1
    85    62    59    1
    86    70    69    1
    87   103   104    2
    88    77    76    1
    89    84    81    1
    90    84    86    1
    91    76    73    1
    92    81    80    1
    93    80    74   am
    94   114   113    1
    95    71    69    1
    96    58    59    1
    97    69    66    1
    98    59    60    1
    99    73    74    1
   100    73    72    1
   101    74    75    2
   102   113   115    1
   103   113   112    1
   104    66    67    1
   105    66    65    1
   106   136   135   ar
   107   136   134   ar
   108    67    68    2
   109    60    61    2
   110   135   133   ar
   111   108   109    1
   112   134   132   ar
   113   112   109    1
   114   109   110    1
   115   122   120    1
   116   133   130   ar
   117   132   130   ar
   118   132   131   ar
   119   111   110    2
   120   121   120    1
   121   130   128   ar
   122   120   117    1
   123   131   129   ar
   124   117   116    1
   125   117   118    1
   126   128   129   ar
   127   128   127    1
   128   124   127    1
   129   124   125    1
   130   124   123    1
   131   118   119    2
   132   125   126    2
