@<TRIPOS>MOLECULE
tmp/5nxoA01.pdb
 104 109 0 0 0
SMALL
GASTEIGER

@<TRIPOS>ATOM
      1  N         13.7220    2.0950    5.7670 N.3     1  HIS1       -0.1226
      2  CA        12.8110    1.1720    6.4880 C.3     1  HIS1        0.1752
      3  C         11.6670    1.9410    7.1610 C.2     1  HIS1        0.2596
      4  O         11.5750    3.1540    7.0650 O.2     1  HIS1       -0.2718
      5  CB        13.5970    0.4030    7.5400 C.3     1  HIS1        0.0759
      6  CG        14.7080   -0.4320    6.9850 C.ar    1  HIS1        0.0818
      7  ND1       14.4990   -1.4720    6.1030 N.ar    1  HIS1       -0.2268
      8  CD2       16.0380   -0.4090    7.2310 C.ar    1  HIS1        0.1154
      9  CE1       15.6580   -2.0370    5.8140 C.ar    1  HIS1        0.1986
     10  NE2       16.6040   -1.4160    6.4910 N.ar    1  HIS1       -0.2212
     11  N         10.8190    1.2100    7.8710 N.am    2  HIS2       -0.1961
     12  CA         9.6100    1.7680    8.5090 C.3     2  HIS2        0.1787
     13  C          9.0750    0.7290    9.4770 C.2     2  HIS2        0.2620
     14  O          9.3860   -0.4500    9.3670 O.2     2  HIS2       -0.2715
     15  CB         8.5440    2.0410    7.4470 C.3     2  HIS2        0.0785
     16  CG         7.9540    0.8170    6.8170 C.ar    2  HIS2        0.0821
     17  ND1        8.7060   -0.0170    6.0080 N.ar    2  HIS2       -0.2267
     18  CD2        6.6590    0.3770    6.8440 C.ar    2  HIS2        0.1154
     19  CE1        7.8650   -0.9350    5.5470 C.ar    2  HIS2        0.1986
     20  NE2        6.6380   -0.7200    6.0330 N.ar    2  HIS2       -0.2212
     21  N          8.2420    1.1510   10.4140 N.am    3  TRP3       -0.1974
     22  CA         7.5600    0.1930   11.2870 C.3     3  TRP3        0.1640
     23  C          6.5490   -0.6090   10.4930 C.2     3  TRP3        0.2290
     24  O          6.0340   -0.1290    9.4820 O.2     3  TRP3       -0.2864
     25  CB         6.8860    0.8950   12.4660 C.3     3  TRP3        0.0576
     26  CG         5.7060    1.7590   12.0960 C.ar    3  TRP3        0.0006
     27  CD1        5.7190    3.0910   11.8130 C.ar    3  TRP3        0.0946
     28  CD2        4.3440    1.3340   12.0070 C.ar    3  TRP3        0.0152
     29  NE1        4.4470    3.5160   11.5470 N.ar    3  TRP3       -0.2442
     30  CE2        3.5880    2.4480   11.6580 C.ar    3  TRP3        0.0810
     31  CE3        3.6920    0.1060   12.2210 C.ar    3  TRP3        0.0012
     32  CZ2        2.2030    2.3800   11.5030 C.ar    3  TRP3        0.0191
     33  CZ3        2.3260    0.0460   12.0580 C.ar    3  TRP3        0.0001
     34  CH2        1.6100    1.1730   11.6900 C.ar    3  TRP3        0.0015
     35  N         10.9510   -8.2510   11.0280 N.3     8  HIS8       -0.1226
     36  CA        12.0280   -7.3530   11.4290 C.3     8  HIS8        0.1752
     37  C         11.6020   -5.9630   11.8690 C.2     8  HIS8        0.2596
     38  O         12.4260   -5.1920   12.3320 O.2     8  HIS8       -0.2718
     39  CB        13.0410   -7.2170   10.2690 C.3     8  HIS8        0.0759
     40  CG        13.5580   -8.5340    9.8110 C.ar    8  HIS8        0.0818
     41  ND1       14.5180   -9.2150   10.5110 N.ar    8  HIS8       -0.2268
     42  CD2       13.2040   -9.3300    8.7750 C.ar    8  HIS8        0.1154
     43  CE1       14.7630  -10.3690    9.9200 C.ar    8  HIS8        0.1986
     44  NE2       13.9750  -10.4640    8.8600 N.ar    8  HIS8       -0.2212
     45  N         10.3170   -5.6430   11.7530 N.am    9  ASN9       -0.1974
     46  CA         9.8440   -4.3130   12.0850 C.3     9  ASN9        0.1688
     47  C          8.5150   -4.3120   12.8460 C.2     9  ASN9        0.2292
     48  O          7.8460   -3.2750   12.9170 O.2     9  ASN9       -0.2864
     49  CB         9.7250   -3.4850   10.8170 C.3     9  ASN9        0.1181
     50  CG         8.6770   -4.0120    9.8570 C.2     9  ASN9        0.2629
     51  OD1        8.1140   -5.0920   10.0370 O.2     9  ASN9       -0.2716
     52  ND2        8.4530   -3.2630    8.7990 N.am    9  ASN9       -0.0877
     53  N          9.7560   -4.2090   17.9880 N.3    13  HIS13      -0.1226
     54  CA        10.7670   -3.2620   17.5500 C.3    13  HIS13       0.1752
     55  C         10.3560   -1.8080   17.6820 C.2    13  HIS13       0.2596
     56  O         11.1990   -0.9280   17.5830 O.2    13  HIS13      -0.2718
     57  CB        11.1290   -3.5060   16.0760 C.3    13  HIS13       0.0759
     58  CG        11.7010   -4.8740   15.8140 C.ar   13  HIS13       0.0818
     59  ND1       13.0420   -5.1340   15.9050 N.ar   13  HIS13      -0.2268
     60  CD2       11.1130   -6.0510   15.4850 C.ar   13  HIS13       0.1154
     61  CE1       13.2570   -6.4110   15.6610 C.ar   13  HIS13       0.1986
     62  NE2       12.1040   -6.9930   15.3960 N.ar   13  HIS13      -0.2212
     63  N          9.0550   -1.5480   17.8700 N.am   14  TRP14      -0.1976
     64  CA         8.5400   -0.1770   17.7650 C.3    14  TRP14       0.1640
     65  C          9.1360    0.7640   18.7880 C.2    14  TRP14       0.2290
     66  O          9.2930    1.9460   18.5150 O.2    14  TRP14      -0.2864
     67  CB         7.0160   -0.1780   17.8840 C.3    14  TRP14       0.0576
     68  CG         6.3020   -0.8930   16.7730 C.ar   14  TRP14       0.0006
     69  CD1        6.8150   -1.3590   15.5940 C.ar   14  TRP14       0.0946
     70  CD2        4.9060   -1.1720   16.7250 C.ar   14  TRP14       0.0152
     71  NE1        5.8310   -1.9450   14.8280 N.ar   14  TRP14      -0.2442
     72  CE2        4.6400   -1.8080   15.4970 C.ar   14  TRP14       0.0810
     73  CE3        3.8480   -0.9330   17.5970 C.ar   14  TRP14       0.0012
     74  CZ2        3.3540   -2.2350   15.1410 C.ar   14  TRP14       0.0191
     75  CZ3        2.5680   -1.3570   17.2360 C.ar   14  TRP14       0.0001
     76  CH2        2.3400   -1.9790   16.0180 C.ar   14  TRP14       0.0015
     77  N         12.0580    1.3030   19.6230 N.3    16  LYS16      -0.1231
     78  CA        13.3200    1.9070   19.1980 C.3    16  LYS16       0.1693
     79  C         13.1220    3.2480   18.5060 C.2    16  LYS16       0.2592
     80  O         14.0150    4.0760   18.5410 O.2    16  LYS16      -0.2718
     81  CB        14.0780    0.9530   18.2700 C.3    16  LYS16       0.0285
     82  CG        14.6520   -0.2490   18.9920 C.3    16  LYS16       0.0035
     83  CD        15.3600   -1.1960   18.0450 C.3    16  LYS16       0.0206
     84  CE        14.4050   -2.1500   17.3610 C.3    16  LYS16       0.1093
     85  NZ        15.0980   -2.9440   16.3270 N.3    16  LYS16      -0.1314
     86  N         11.9750    3.4570   17.8570 N.am   17  ASP17      -0.1960
     87  CA        11.6230    4.7660   17.2970 C.3    17  ASP17       0.1840
     88  C         10.5200    5.4940   18.0380 C.2    17  ASP17       0.2622
     89  O         10.3900    6.7020   17.8620 O.2    17  ASP17      -0.2715
     90  CB        11.2950    4.6500   15.8150 C.3    17  ASP17       0.1450
     91  CG        12.5320    4.3060   15.0080 C.2    17  ASP17       0.3671
     92  OD1       13.2260    5.2560   14.6200 O.co2  17  ASP17      -0.2456
     93  OD2       12.8680    3.0960   14.8800 O.co2  17  ASP17      -0.2456
     94  N          9.7460    4.7750   18.8550 N.am   18  PHE18      -0.1974
     95  CA         8.6080    5.3340   19.5910 C.3    18  PHE18       0.1639
     96  C          8.7130    4.8370   21.0270 C.2    18  PHE18       0.2290
     97  O          8.0670    3.8710   21.4100 O.2    18  PHE18      -0.2864
     98  CB         7.3080    4.8660   18.9290 C.3    18  PHE18       0.0560
     99  CG         7.2460    5.2050   17.4720 C.ar   18  PHE18      -0.0200
    100  CD1        6.8580    6.4680   17.0540 C.ar   18  PHE18      -0.0042
    101  CD2        7.6500    4.2830   16.5030 C.ar   18  PHE18      -0.0042
    102  CE1        6.8320    6.7930   15.7010 C.ar   18  PHE18      -0.0003
    103  CE2        7.6560    4.6200   15.1710 C.ar   18  PHE18      -0.0003
    104  CZ         7.2650    5.8760   14.7670 C.ar   18  PHE18      -0.0000
@<TRIPOS>BOND
     1    19    17   ar
     2    19    20   ar
     3     1     2    1
     4     9     7   ar
     5     9    10   ar
     6    17    16   ar
     7    20    18   ar
     8     7     6   ar
     9     2     3    1
    10     2     5    1
    11    10     8   ar
    12    16    18   ar
    13    16    15    1
    14     6     8   ar
    15     6     5    1
    16     4     3    2
    17     3    11   am
    18    15    12    1
    19    11    12    1
    20    12    13    1
    21    42    44   ar
    22    42    40   ar
    23    52    50   am
    24    44    43   ar
    25    14    13    2
    26    13    21   am
    27    24    23    2
    28    40    39    1
    29    40    41   ar
    30    50    51    2
    31    50    49    1
    32    43    41   ar
    33    39    36    1
    34    21    22    1
    35    23    22    1
    36    49    46    1
    37    35    36    1
    38    22    25    1
    39    36    37    1
    40    32    30   ar
    41    32    34   ar
    42    29    30   ar
    43    29    27   ar
    44    30    28   ar
    45    34    33   ar
    46    45    37   am
    47    45    46    1
    48    27    26   ar
    49    37    38    2
    50    28    26   ar
    51    28    31   ar
    52    33    31   ar
    53    46    47    1
    54    26    25    1
    55    47    48    2
    56    92    91   ar
    57   104   103   ar
    58   104   102   ar
    59    71    72   ar
    60    71    69   ar
    61    93    91   ar
    62    91    90    1
    63    74    72   ar
    64    74    76   ar
    65   103   101   ar
    66    62    60   ar
    67    62    61   ar
    68    60    58   ar
    69    72    70   ar
    70    69    68   ar
    71    61    59   ar
    72   102   100   ar
    73    58    59   ar
    74    58    57    1
    75    90    87    1
    76    76    75   ar
    77    57    54    1
    78    85    84    1
    79   101    99   ar
    80    70    68   ar
    81    70    73   ar
    82    68    67    1
    83   100    99   ar
    84    75    73   ar
    85    87    86    1
    86    87    88    1
    87    84    83    1
    88    99    98    1
    89    54    55    1
    90    54    53    1
    91    56    55    2
    92    55    63   am
    93    64    63    1
    94    64    67    1
    95    64    65    1
    96    86    79   am
    97    89    88    2
    98    88    94   am
    99    83    82    1
   100    81    82    1
   101    81    78    1
   102    79    80    2
   103    79    78    1
   104    66    65    2
   105    94    95    1
   106    98    95    1
   107    78    77    1
   108    95    96    1
   109    96    97    2
