@<TRIPOS>MOLECULE
tmp/5nxpA00.pdb
 103 99 0 0 0
SMALL
GASTEIGER

@<TRIPOS>ATOM
      1  N          8.5030    1.1870   10.3550 N.3     3  TRP3       -0.1241
      2  CA         7.8060    0.2280   11.1740 C.3     3  TRP3        0.1605
      3  C          6.7840   -0.5770   10.3830 C.2     3  TRP3        0.2264
      4  O          6.2850   -0.1450    9.3600 O.2     3  TRP3       -0.2867
      5  CB         7.1410    0.9500   12.3430 C.3     3  TRP3        0.0550
      6  CG         5.9850    1.7560   11.9720 C.ar    3  TRP3        0.0003
      7  CD1        5.9690    3.0810   11.6560 C.ar    3  TRP3        0.0946
      8  CD2        4.6280    1.3160   11.9160 C.ar    3  TRP3        0.0152
      9  NE1        4.6850    3.4890   11.4000 N.ar    3  TRP3       -0.2442
     10  CE2        3.8410    2.4230   11.5620 C.ar    3  TRP3        0.0810
     11  CE3        3.9940    0.0830   12.1610 C.ar    3  TRP3        0.0012
     12  CZ2        2.4510    2.3420   11.4170 C.ar    3  TRP3        0.0191
     13  CZ3        2.5920    0.0090   12.0010 C.ar    3  TRP3        0.0001
     14  CH2        1.8670    1.1410   11.6280 C.ar    3  TRP3        0.0015
     15  N         -8.3130    2.0310    5.7230 N.3    65  ASN65      -0.1240
     16  CA        -9.1970    2.9740    6.4510 C.3    65  ASN65       0.1653
     17  C        -10.4660    3.4220    5.6830 C.2    65  ASN65       0.2266
     18  O        -10.3570    3.8970    4.5370 O.2    65  ASN65      -0.2867
     19  CB        -8.4520    4.2610    6.8410 C.3    65  ASN65       0.1155
     20  CG        -7.3570    4.0580    7.8560 C.2    65  ASN65       0.2627
     21  OD1       -7.1720    2.9810    8.4070 O.2    65  ASN65      -0.2716
     22  ND2       -6.5980    5.1180    8.0980 N.am   65  ASN65      -0.0877
     23  N        -12.4380    7.9360   11.1400 N.3    90  GLN90      -0.1245
     24  CA       -12.1200    6.7860   10.3040 C.3    90  GLN90       0.1566
     25  C        -12.3780    5.5060   11.0500 C.2    90  GLN90       0.2260
     26  O        -12.4230    5.5220   12.2940 O.2    90  GLN90      -0.2867
     27  CB       -10.6580    6.8280    9.8470 C.3    90  GLN90       0.0367
     28  CG        -9.5980    6.9120   10.9620 C.3    90  GLN90       0.0905
     29  CD        -8.8550    5.6000   11.2220 C.2    90  GLN90       0.2608
     30  OE1       -9.3870    4.5090   11.0570 O.2    90  GLN90      -0.2717
     31  NE2       -7.6050    5.7110   11.6860 N.am   90  GLN90      -0.0878
     32  N        -10.9840    1.2100   10.7830 N.3    92  HIS92      -0.1241
     33  CA       -10.1400    0.2130   10.1820 C.3    92  HIS92       0.1621
     34  C        -10.2090   -1.0470   11.0270 C.2    92  HIS92       0.2264
     35  O        -10.8530   -1.0660   12.0790 O.2    92  HIS92      -0.2867
     36  CB        -8.6730    0.6910   10.1390 C.3    92  HIS92       0.0745
     37  CG        -8.1390    0.9880   11.5010 C.ar   92  HIS92       0.0817
     38  ND1       -8.3110    2.1960   12.1320 N.ar   92  HIS92      -0.2268
     39  CD2       -7.5380    0.1860   12.3980 C.ar   92  HIS92       0.1154
     40  CE1       -7.8390    2.1210   13.3600 C.ar   92  HIS92       0.1986
     41  NE2       -7.3580    0.9080   13.5380 N.ar   92  HIS92      -0.2212
     42  N        -12.6720    5.2700   15.1220 N.3   119  VAL119     -0.1245
     43  CA       -11.8130    6.2700   15.7280 C.3   119  VAL119      0.1561
     44  C        -12.4980    7.6200   15.7420 C.2   119  VAL119      0.2260
     45  O        -12.8930    8.1250   14.7000 O.2   119  VAL119     -0.2867
     46  CB       -10.4680    6.3660   14.9530 C.3   119  VAL119      0.0252
     47  CG1       -9.5300    7.3740   15.5990 C.3   119  VAL119      0.0019
     48  CG2       -9.8150    4.9820   14.7950 C.3   119  VAL119      0.0019
     49  N         -8.5520   16.4340   14.6350 N.3   128  PHE128     -0.1241
     50  CA        -7.8780   15.2150   15.0110 C.3   128  PHE128      0.1605
     51  C         -6.4080   15.4620   15.4000 C.2   128  PHE128      0.2264
     52  O         -5.9050   14.9160   16.3940 O.2   128  PHE128     -0.2867
     53  CB        -7.9600   14.1980   13.8750 C.3   128  PHE128      0.0534
     54  CG        -7.2200   12.9170   14.1470 C.ar  128  PHE128     -0.0203
     55  CD1       -7.8350   11.8770   14.8180 C.ar  128  PHE128     -0.0042
     56  CD2       -5.9210   12.7410   13.7110 C.ar  128  PHE128     -0.0042
     57  CE1       -7.1880   10.6820   15.0360 C.ar  128  PHE128     -0.0003
     58  CE2       -5.2720   11.5530   13.9580 C.ar  128  PHE128     -0.0003
     59  CZ        -5.9160   10.5210   14.6020 C.ar  128  PHE128     -0.0000
     60  N         -4.9480   14.3760   19.1880 N.3   132  VAL132     -0.1245
     61  CA        -4.0090   13.2960   19.5390 C.3   132  VAL132      0.1561
     62  C         -2.8890   13.7080   20.4630 C.2   132  VAL132      0.2260
     63  O         -2.1910   12.8510   20.9930 O.2   132  VAL132     -0.2867
     64  CB        -3.3510   12.5980   18.3280 C.3   132  VAL132      0.0252
     65  CG1       -4.4130   11.9190   17.5070 C.3   132  VAL132      0.0019
     66  CG2       -2.5040   13.5370   17.4760 C.3   132  VAL132      0.0019
     67  N         -2.8840    4.8480   21.0680 N.3   195  LEU195     -0.1245
     68  CA        -2.8830    4.3120   19.7110 C.3   195  LEU195      0.1561
     69  C         -2.1790    2.9800   19.7570 C.2   195  LEU195      0.2260
     70  O         -1.1200    2.8390   20.4150 O.2   195  LEU195     -0.2867
     71  CB        -2.1520    5.2430   18.7580 C.3   195  LEU195      0.0270
     72  CG        -2.6540    6.6810   18.6620 C.3   195  LEU195      0.0019
     73  CD1       -1.8340    7.4910   17.6710 C.3   195  LEU195      0.0001
     74  CD2       -4.1320    6.7640   18.3370 C.3   195  LEU195      0.0001
     75  N         -0.7890    1.6570   16.9450 N.3   197  THR197     -0.1204
     76  CA         0.2980    1.7480   15.9780 C.3   197  THR197      0.1979
     77  C          1.0950    3.0070   16.2470 C.2   197  THR197      0.2460
     78  O          0.5890    3.9750   16.8360 O.2   197  THR197     -0.2732
     79  CB        -0.2180    1.7940   14.5240 C.3   197  THR197      0.1783
     80  OG1       -1.2240    2.8150   14.4050 O.3   197  THR197     -0.2211
     81  CG2       -0.8310    0.4950   14.1420 C.3   197  THR197      0.0376
     82  N          2.3740    3.0270   15.8100 N.am  198  PRO198     -0.2718
     83  CA         3.1420    4.2600   15.8660 C.3   198  PRO198      0.1520
     84  C          2.3340    5.4470   15.3120 C.2   198  PRO198      0.2440
     85  O          1.7300    5.3190   14.2390 O.2   198  PRO198     -0.2731
     86  CB         4.3550    3.9250   15.0060 C.3   198  PRO198      0.0310
     87  CG         4.5690    2.4620   15.2850 C.3   198  PRO198      0.0237
     88  CD         3.1610    1.9070   15.2390 C.3   198  PRO198      0.0939
     89  N          2.3320    6.5990   15.9890 N.am  199  PRO199     -0.2727
     90  CA         3.2500    6.9650   17.0750 C.3   199  PRO199      0.1402
     91  C          2.8840    6.5400   18.4920 C.2   199  PRO199      0.2269
     92  O          3.5160    6.9720   19.4550 O.2   199  PRO199     -0.2865
     93  CB         3.2860    8.4980   16.9540 C.3   199  PRO199      0.0296
     94  CG         1.9350    8.8560   16.4420 C.3   199  PRO199      0.0237
     95  CD         1.6330    7.7710   15.4280 C.3   199  PRO199      0.0939
     96  N          0.6340    7.2030   20.6580 N.3   201  LEU201     -0.1245
     97  CA         0.3350    8.2960   21.5660 C.3   201  LEU201      0.1561
     98  C         -0.6920    7.8780   22.5890 C.2   201  LEU201      0.2260
     99  O         -1.6780    7.1870   22.2860 O.2   201  LEU201     -0.2867
    100  CB        -0.1600    9.5090   20.7960 C.3   201  LEU201      0.0270
    101  CG         0.8740   10.1280   19.8620 C.3   201  LEU201      0.0019
    102  CD1        0.2330   11.1750   18.9790 C.3   201  LEU201      0.0001
    103  CD2        2.0600   10.7330   20.5950 C.3   201  LEU201      0.0001
@<TRIPOS>BOND
     1    18    17    2
     2    17    16    1
     3    15    16    1
     4    16    19    1
     5    19    20    1
     6    20    22   am
     7    20    21    2
     8     4     3    2
     9    27    24    1
    10    27    28    1
    11    36    33    1
    12    36    37    1
    13    33    32    1
    14    33    34    1
    15    24    25    1
    16    24    23    1
    17     1     2    1
    18     3     2    1
    19    28    29    1
    20    34    35    2
    21    25    26    2
    22    30    29    2
    23     2     5    1
    24    29    31   am
    25     9    10   ar
    26     9     7   ar
    27    12    10   ar
    28    12    14   ar
    29    37    38   ar
    30    37    39   ar
    31    10     8   ar
    32    14    13   ar
    33     7     6   ar
    34     8     6   ar
    35     8    11   ar
    36     6     5    1
    37    13    11   ar
    38    38    40   ar
    39    39    41   ar
    40    40    41   ar
    41    56    58   ar
    42    56    54   ar
    43    53    54    1
    44    53    50    1
    45    58    59   ar
    46    81    79    1
    47    54    55   ar
    48    85    84    2
    49    80    79    1
    50    79    76    1
    51    59    57   ar
    52    49    50    1
    53    45    44    2
    54    48    46    1
    55    55    57   ar
    56    46    47    1
    57    46    43    1
    58    86    87    1
    59    86    83    1
    60    50    51    1
    61    42    43    1
    62    88    87    1
    63    88    82    1
    64    84    83    1
    65    84    89   am
    66    51    52    2
    67    95    89    1
    68    95    94    1
    69    43    44    1
    70    82    83    1
    71    82    77   am
    72    76    77    1
    73    76    75    1
    74    89    90    1
    75    77    78    2
    76    94    93    1
    77    93    90    1
    78    90    91    1
    79    66    64    1
    80    65    64    1
    81    73    72    1
    82    64    61    1
    83    74    72    1
    84    91    92    2
    85    72    71    1
    86    71    68    1
    87   102   101    1
    88    60    61    1
    89    61    62    1
    90    68    69    1
    91    68    67    1
    92    69    70    2
    93   101   103    1
    94   101   100    1
    95    62    63    2
    96    96    97    1
    97   100    97    1
    98    97    98    1
    99    99    98    2
