@<TRIPOS>MOLECULE
tmp/5nxvA00.pdb
 133 130 0 0 0
SMALL
GASTEIGER

@<TRIPOS>ATOM
      1  N        -12.5030    7.9300   11.1570 N.3    90  GLN90      -0.1245
      2  CA       -12.1770    6.7830   10.3090 C.3    90  GLN90       0.1566
      3  C        -12.4360    5.5160   11.0630 C.2    90  GLN90       0.2260
      4  O        -12.4890    5.5250   12.3120 O.2    90  GLN90      -0.2867
      5  CB       -10.7140    6.8310    9.8490 C.3    90  GLN90       0.0367
      6  CG        -9.6660    6.9190   10.9530 C.3    90  GLN90       0.0905
      7  CD        -8.9190    5.6110   11.2340 C.2    90  GLN90       0.2608
      8  OE1       -9.4530    4.4980   11.0880 O.2    90  GLN90      -0.2717
      9  NE2       -7.6650    5.7380   11.6540 N.am   90  GLN90      -0.0878
     10  N        -11.0420    1.2120   10.8220 N.3    92  HIS92      -0.1241
     11  CA       -10.1900    0.2170   10.2160 C.3    92  HIS92       0.1621
     12  C        -10.2690   -1.0520   11.0600 C.2    92  HIS92       0.2264
     13  O        -10.8940   -1.0690   12.1300 O.2    92  HIS92      -0.2867
     14  CB        -8.7420    0.7140   10.1500 C.3    92  HIS92       0.0745
     15  CG        -8.1950    0.9940   11.5050 C.ar   92  HIS92       0.0817
     16  ND1       -8.3740    2.2070   12.1160 N.ar   92  HIS92      -0.2268
     17  CD2       -7.5540    0.1990   12.3910 C.ar   92  HIS92       0.1154
     18  CE1       -7.8810    2.1310   13.3390 C.ar   92  HIS92       0.1986
     19  NE2       -7.4050    0.9110   13.5430 N.ar   92  HIS92      -0.2212
     20  N         -7.9610   -4.7710   12.3820 N.3    94  HIS94      -0.1241
     21  CA        -6.7580   -5.5810   12.5490 C.3    94  HIS94       0.1621
     22  C         -7.1880   -7.0360   12.4630 C.2    94  HIS94       0.2264
     23  O         -8.2540   -7.3800   12.9730 O.2    94  HIS94      -0.2867
     24  CB        -6.0890   -5.3210   13.9220 C.3    94  HIS94       0.0745
     25  CG        -5.7930   -3.8830   14.1750 C.ar   94  HIS94       0.0817
     26  ND1       -4.5500   -3.3290   13.9820 N.ar   94  HIS94      -0.2268
     27  CD2       -6.5850   -2.8680   14.5920 C.ar   94  HIS94       0.1154
     28  CE1       -4.5940   -2.0410   14.2720 C.ar   94  HIS94       0.1986
     29  NE2       -5.8290   -1.7310   14.6210 N.ar   94  HIS94      -0.2212
     30  N        -11.9050   -0.9540   14.7800 N.3   117  HIS117     -0.1241
     31  CA       -11.6620    0.2770   15.5200 C.3   117  HIS117      0.1621
     32  C        -12.3250    1.4480   14.8460 C.2   117  HIS117      0.2264
     33  O        -11.9700    1.8010   13.7170 O.2   117  HIS117     -0.2867
     34  CB       -10.1670    0.5380   15.6300 C.3   117  HIS117      0.0745
     35  CG        -9.4830   -0.4350   16.5240 C.ar  117  HIS117      0.0817
     36  ND1       -8.1220   -0.6400   16.5160 N.ar  117  HIS117     -0.2268
     37  CD2       -9.9910   -1.2510   17.4820 C.ar  117  HIS117      0.1154
     38  CE1       -7.8220   -1.5420   17.4230 C.ar  117  HIS117      0.1986
     39  NE2       -8.9310   -1.9320   18.0190 N.ar  117  HIS117     -0.2212
     40  N        -12.6850    5.2610   15.1480 N.3   119  VAL119     -0.1245
     41  CA       -11.8520    6.2650   15.7660 C.3   119  VAL119      0.1561
     42  C        -12.5380    7.6210   15.7980 C.2   119  VAL119      0.2260
     43  O        -12.9720    8.0940   14.7450 O.2   119  VAL119     -0.2867
     44  CB       -10.5260    6.3840   14.9710 C.3   119  VAL119      0.0252
     45  CG1       -9.5650    7.3950   15.5850 C.3   119  VAL119      0.0019
     46  CG2       -9.8580    5.0100   14.8010 C.3   119  VAL119      0.0019
     47  N         -8.4490   16.4620   14.6920 N.3   128  PHE128     -0.1227
     48  CA        -7.7780   15.2170   15.0930 C.3   128  PHE128      0.1736
     49  C         -6.3150   15.3970   15.5030 C.2   128  PHE128      0.2596
     50  O         -5.8620   14.8520   16.5190 O.2   128  PHE128     -0.2718
     51  CB        -7.8790   14.2150   13.9450 C.3   128  PHE128      0.0547
     52  CG        -7.2560   12.8860   14.2430 C.ar  128  PHE128     -0.0202
     53  CD1       -7.9780   11.9040   14.8970 C.ar  128  PHE128     -0.0042
     54  CD2       -5.9380   12.6220   13.9280 C.ar  128  PHE128     -0.0042
     55  CE1       -7.4300   10.6680   15.1590 C.ar  128  PHE128     -0.0003
     56  CE2       -5.3910   11.3940   14.2180 C.ar  128  PHE128     -0.0003
     57  CZ        -6.1370   10.4240   14.8480 C.ar  128  PHE128     -0.0000
     58  N         -5.5810   16.1850   14.7230 N.am  129  GLY129     -0.1957
     59  CA        -4.1610   16.3740   14.9910 C.3   129  GLY129      0.1869
     60  C         -3.8520   17.0200   16.3480 C.2   129  GLY129      0.2309
     61  O         -2.8680   16.6910   17.0000 O.2   129  GLY129     -0.2863
     62  N         -4.8630   14.3180   19.3160 N.3   132  VAL132     -0.1245
     63  CA        -3.9510   13.2250   19.6800 C.3   132  VAL132      0.1561
     64  C         -2.8600   13.6490   20.6380 C.2   132  VAL132      0.2260
     65  O         -2.1680   12.8020   21.1930 O.2   132  VAL132     -0.2867
     66  CB        -3.2960   12.4940   18.4910 C.3   132  VAL132      0.0252
     67  CG1       -4.3550   11.8260   17.6310 C.3   132  VAL132      0.0019
     68  CG2       -2.4020   13.4100   17.6720 C.3   132  VAL132      0.0019
     69  N        -11.7950    5.4450   21.0160 N.3   140  VAL140     -0.1245
     70  CA       -11.8380    4.3900   19.9970 C.3   140  VAL140      0.1561
     71  C        -12.7960    3.3290   20.4960 C.2   140  VAL140      0.2260
     72  O        -12.6520    2.8290   21.6320 O.2   140  VAL140     -0.2867
     73  CB       -10.4450    3.8140   19.6490 C.3   140  VAL140      0.0252
     74  CG1      -10.5830    2.8090   18.5210 C.3   140  VAL140      0.0019
     75  CG2       -9.5050    4.9300   19.2190 C.3   140  VAL140      0.0019
     76  N         -2.9120    4.8270   21.1240 N.3   195  LEU195     -0.1231
     77  CA        -2.9140    4.3060   19.7670 C.3   195  LEU195      0.1693
     78  C         -2.1740    2.9780   19.7940 C.2   195  LEU195      0.2593
     79  O         -1.1370    2.8460   20.4790 O.2   195  LEU195     -0.2718
     80  CB        -2.1960    5.2590   18.8220 C.3   195  LEU195      0.0284
     81  CG        -2.7050    6.6950   18.7460 C.3   195  LEU195      0.0019
     82  CD1       -1.9080    7.5140   17.7510 C.3   195  LEU195      0.0001
     83  CD2       -4.1760    6.7520   18.3950 C.3   195  LEU195      0.0001
     84  N         -2.6080    2.0220   18.9810 N.am  196  THR196     -0.1939
     85  CA        -1.9800    0.7020   18.9270 C.3   196  THR196      0.2028
     86  C         -0.9680    0.5670   17.7830 C.2   196  THR196      0.2643
     87  O         -0.3590   -0.4890   17.6450 O.2   196  THR196     -0.2714
     88  CB        -3.0040   -0.4290   18.8340 C.3   196  THR196      0.1808
     89  OG1       -3.5790   -0.3750   17.5380 O.3   196  THR196     -0.2208
     90  CG2       -4.0470   -0.4100   19.9400 C.3   196  THR196      0.0379
     91  N         -0.7700    1.6340   17.0130 N.am  197  THR197     -0.1937
     92  CA         0.3040    1.7110   16.0260 C.3   197  THR197      0.2013
     93  C          1.0900    2.9810   16.2900 C.2   197  THR197      0.2484
     94  O          0.5790    3.9300   16.8820 O.2   197  THR197     -0.2729
     95  CB        -0.2010    1.7610   14.5710 C.3   197  THR197      0.1807
     96  OG1       -1.1390    2.8270   14.4010 O.3   197  THR197     -0.2208
     97  CG2       -0.9400    0.5230   14.2220 C.3   197  THR197      0.0379
     98  N          2.3650    3.0200   15.8610 N.am  198  PRO198     -0.2715
     99  CA         3.1090    4.2740   15.9410 C.3   198  PRO198      0.1521
    100  C          2.2730    5.4340   15.3800 C.2   198  PRO198      0.2440
    101  O          1.6760    5.2810   14.2970 O.2   198  PRO198     -0.2731
    102  CB         4.3370    3.9690   15.0840 C.3   198  PRO198      0.0310
    103  CG         4.5660    2.5270   15.3510 C.3   198  PRO198      0.0237
    104  CD         3.1900    1.9410   15.2760 C.3   198  PRO198      0.0939
    105  N          2.2310    6.5890   16.0380 N.am  199  PRO199     -0.2727
    106  CA         3.1690    7.0010   17.0940 C.3   199  PRO199      0.1402
    107  C          2.8180    6.5570   18.5400 C.2   199  PRO199      0.2269
    108  O          3.4560    7.0050   19.4840 O.2   199  PRO199     -0.2865
    109  CB         3.1390    8.5390   16.9470 C.3   199  PRO199      0.0296
    110  CG         1.7720    8.8440   16.4160 C.3   199  PRO199      0.0237
    111  CD         1.4770    7.7310   15.4710 C.3   199  PRO199      0.0939
    112  N          0.6140    7.1970   20.7170 N.3   201  LEU201     -0.1245
    113  CA         0.3180    8.3030   21.6240 C.3   201  LEU201      0.1561
    114  C         -0.7230    7.9120   22.6460 C.2   201  LEU201      0.2260
    115  O         -1.6910    7.2160   22.3440 O.2   201  LEU201     -0.2867
    116  CB        -0.1520    9.5220   20.8260 C.3   201  LEU201      0.0270
    117  CG         0.8980   10.1360   19.8940 C.3   201  LEU201      0.0019
    118  CD1        0.2250   11.1350   18.9500 C.3   201  LEU201      0.0001
    119  CD2        2.0730   10.7740   20.6550 C.3   201  LEU201      0.0001
    120  N        -10.3830    3.9900   25.5630 N.3   206  TRP206     -0.1241
    121  CA       -10.8090    2.7610   24.8680 C.3   206  TRP206      0.1605
    122  C        -12.1750    2.3340   25.3840 C.2   206  TRP206      0.2264
    123  O        -12.4020    2.3180   26.6040 O.2   206  TRP206     -0.2867
    124  CB        -9.8000    1.6160   25.0890 C.3   206  TRP206      0.0550
    125  CG        -8.6920    1.7150   24.0980 C.ar  206  TRP206      0.0003
    126  CD1       -7.4490    2.3090   24.2650 C.ar  206  TRP206      0.0946
    127  CD2       -8.7710    1.3220   22.7300 C.ar  206  TRP206      0.0152
    128  NE1       -6.7730    2.2960   23.0790 N.ar  206  TRP206     -0.2442
    129  CE2       -7.5420    1.6760   22.1290 C.ar  206  TRP206      0.0810
    130  CE3       -9.7500    0.6740   21.9550 C.ar  206  TRP206      0.0012
    131  CZ2       -7.2990    1.4460   20.7980 C.ar  206  TRP206      0.0191
    132  CZ3       -9.4890    0.4250   20.6480 C.ar  206  TRP206      0.0001
    133  CH2       -8.2780    0.7930   20.0790 C.ar  206  TRP206      0.0015
@<TRIPOS>BOND
     1     5     2    1
     2     5     6    1
     3    14    11    1
     4    14    15    1
     5    11    10    1
     6    11    12    1
     7     2     3    1
     8     2     1    1
     9     6     7    1
    10    12    13    2
    11     3     4    2
    12     8     7    2
    13     7     9   am
    14    15    16   ar
    15    15    17   ar
    16    16    18   ar
    17    20    21    1
    18    17    19   ar
    19    22    21    1
    20    22    23    2
    21    21    24    1
    22    18    19   ar
    23    33    32    2
    24    24    25    1
    25    54    56   ar
    26    54    52   ar
    27    51    52    1
    28    51    48    1
    29    26    25   ar
    30    26    28   ar
    31    25    27   ar
    32    56    57   ar
    33    97    95    1
    34    52    53   ar
    35    28    29   ar
    36   101   100    2
    37    96    95    1
    38    95    92    1
    39    27    29   ar
    40    47    48    1
    41    58    59    1
    42    58    49   am
    43    43    42    2
    44    30    31    1
    45    46    44    1
    46    32    31    1
    47    57    55   ar
    48    53    55   ar
    49    44    45    1
    50    44    41    1
    51    59    60    1
    52   102   103    1
    53   102    99    1
    54    48    49    1
    55    40    41    1
    56   104   103    1
    57   104    98    1
    58   100    99    1
    59   100   105   am
    60   111   105    1
    61   111   110    1
    62    49    50    2
    63    31    34    1
    64    34    35    1
    65    41    42    1
    66    98    99    1
    67    98    93   am
    68    92    93    1
    69    92    91    1
    70   105   106    1
    71    93    94    2
    72    60    61    2
    73   110   109    1
    74    36    35   ar
    75    36    38   ar
    76    35    37   ar
    77   109   106    1
    78    91    86   am
    79   106   107    1
    80    38    39   ar
    81    37    39   ar
    82    89    88    1
    83    67    66    1
    84    87    86    2
    85    68    66    1
    86    82    81    1
    87    86    85    1
    88    83    81    1
    89    66    63    1
    90    74    73    1
    91   107   108    2
    92    81    80    1
    93    80    77    1
    94    88    85    1
    95    88    90    1
    96    85    84    1
    97   118   117    1
    98    84    78   am
    99    75    73    1
   100    62    63    1
   101    73    70    1
   102    63    64    1
   103    77    78    1
   104    77    76    1
   105    78    79    2
   106   117   119    1
   107   117   116    1
   108    70    71    1
   109    70    69    1
   110   133   132   ar
   111   133   131   ar
   112    71    72    2
   113    64    65    2
   114   132   130   ar
   115   112   113    1
   116   131   129   ar
   117   116   113    1
   118   113   114    1
   119   130   127   ar
   120   129   127   ar
   121   129   128   ar
   122   115   114    2
   123   127   125   ar
   124   128   126   ar
   125   125   126   ar
   126   125   124    1
   127   121   124    1
   128   121   122    1
   129   121   120    1
   130   122   123    2
