@<TRIPOS>MOLECULE
tmp/5nxwA00.pdb
 75 71 0 0 0
SMALL
GASTEIGER

@<TRIPOS>ATOM
      1  N        -12.6820    7.9010   11.1450 N.3    89  GLN89      -0.1245
      2  CA       -12.3510    6.7500   10.3020 C.3    89  GLN89       0.1566
      3  C        -12.6520    5.4910   11.0760 C.2    89  GLN89       0.2260
      4  O        -12.6930    5.5050   12.3160 O.2    89  GLN89      -0.2867
      5  CB       -10.8850    6.7840    9.8580 C.3    89  GLN89       0.0367
      6  CG        -9.8430    6.8490   10.9780 C.3    89  GLN89       0.0905
      7  CD        -9.1240    5.5300   11.2520 C.2    89  GLN89       0.2608
      8  OE1       -9.6810    4.4470   11.0570 O.2    89  GLN89      -0.2717
      9  NE2       -7.9030    5.6200   11.7290 N.am   89  GLN89      -0.0878
     10  N        -12.9010    5.2640   15.1410 N.3   118  VAL118     -0.1245
     11  CA       -12.0420    6.2760   15.7500 C.3   118  VAL118      0.1561
     12  C        -12.7480    7.6190   15.7730 C.2   118  VAL118      0.2260
     13  O        -13.1850    8.0980   14.7310 O.2   118  VAL118     -0.2867
     14  CB       -10.7360    6.3900   14.9460 C.3   118  VAL118      0.0252
     15  CG1       -9.7890    7.3950   15.5840 C.3   118  VAL118      0.0019
     16  CG2      -10.0670    5.0270   14.8240 C.3   118  VAL118      0.0019
     17  N         -8.4740   16.5550   14.6710 N.3   127  PHE127     -0.1227
     18  CA        -7.8400   15.3200   15.0830 C.3   127  PHE127      0.1736
     19  C         -6.3890   15.5140   15.5160 C.2   127  PHE127      0.2596
     20  O         -5.9330   14.9420   16.5120 O.2   127  PHE127     -0.2718
     21  CB        -7.9170   14.3260   13.9300 C.3   127  PHE127      0.0547
     22  CG        -7.2960   12.9950   14.2350 C.ar  127  PHE127     -0.0202
     23  CD1       -8.0450   11.9870   14.8180 C.ar  127  PHE127     -0.0042
     24  CD2       -5.9550   12.7510   13.9730 C.ar  127  PHE127     -0.0042
     25  CE1       -7.4780   10.7620   15.1060 C.ar  127  PHE127     -0.0003
     26  CE2       -5.3850   11.5200   14.2720 C.ar  127  PHE127     -0.0003
     27  CZ        -6.1590   10.5220   14.8330 C.ar  127  PHE127     -0.0000
     28  N         -5.6470   16.3150   14.7570 N.am  128  GLY128     -0.1957
     29  CA        -4.2310   16.5030   15.0370 C.3   128  GLY128      0.1869
     30  C         -3.9340   17.1380   16.3900 C.2   128  GLY128      0.2309
     31  O         -2.9620   16.8050   17.0460 O.2   128  GLY128     -0.2863
     32  N         -5.0350   14.3420   19.3270 N.3   131  VAL131     -0.1245
     33  CA        -4.1120   13.2650   19.6850 C.3   131  VAL131      0.1561
     34  C         -3.0040   13.6860   20.6300 C.2   131  VAL131      0.2260
     35  O         -2.3180   12.8240   21.1750 O.2   131  VAL131     -0.2867
     36  CB        -3.4580   12.5410   18.4920 C.3   131  VAL131      0.0252
     37  CG1       -4.5120   11.8500   17.6480 C.3   131  VAL131      0.0019
     38  CG2       -2.6090   13.4770   17.6420 C.3   131  VAL131      0.0019
     39  N         -3.0620    4.8610   21.1160 N.3   194  LEU194     -0.1245
     40  CA        -3.0660    4.3180   19.7610 C.3   194  LEU194      0.1561
     41  C         -2.3220    2.9820   19.7790 C.2   194  LEU194      0.2260
     42  O         -1.3030    2.8600   20.4880 O.2   194  LEU194     -0.2867
     43  CB        -2.3420    5.2680   18.8090 C.3   194  LEU194      0.0270
     44  CG        -2.8500    6.7060   18.7480 C.3   194  LEU194      0.0019
     45  CD1       -2.0280    7.4720   17.7300 C.3   194  LEU194      0.0001
     46  CD2       -4.3400    6.7870   18.4270 C.3   194  LEU194      0.0001
     47  N         -0.9150    1.6840   17.0150 N.3   196  THR196     -0.1204
     48  CA         0.1490    1.7870   16.0300 C.3   196  THR196      0.1979
     49  C          0.9630    3.0260   16.3370 C.2   196  THR196      0.2460
     50  O          0.4530    3.9980   16.8980 O.2   196  THR196     -0.2732
     51  CB        -0.4030    1.8860   14.6040 C.3   196  THR196      0.1783
     52  OG1       -1.4140    2.9020   14.5180 O.3   196  THR196     -0.2211
     53  CG2       -1.0230    0.5890   14.1860 C.3   196  THR196      0.0376
     54  N          2.2410    3.0430   15.9120 N.am  197  PRO197     -0.2718
     55  CA         3.0210    4.2790   15.9840 C.3   197  PRO197      0.1520
     56  C          2.2340    5.4500   15.4030 C.2   197  PRO197      0.2440
     57  O          1.6290    5.2840   14.3370 O.2   197  PRO197     -0.2731
     58  CB         4.2510    3.9380   15.1620 C.3   197  PRO197      0.0310
     59  CG         4.4420    2.4750   15.4240 C.3   197  PRO197      0.0237
     60  CD         3.0400    1.9380   15.3570 C.3   197  PRO197      0.0939
     61  N          2.1810    6.5970   16.0680 N.am  198  PRO198     -0.2727
     62  CA         3.0810    7.0100   17.1450 C.3   198  PRO198      0.1402
     63  C          2.7090    6.5620   18.5810 C.2   198  PRO198      0.2269
     64  O          3.3430    7.0190   19.5350 O.2   198  PRO198     -0.2865
     65  CB         3.0530    8.5440   17.0090 C.3   198  PRO198      0.0296
     66  CG         1.7010    8.8370   16.4780 C.3   198  PRO198      0.0237
     67  CD         1.4120    7.7320   15.5090 C.3   198  PRO198      0.0939
     68  N          0.4520    7.2020   20.7170 N.3   200  LEU200     -0.1245
     69  CA         0.1650    8.3100   21.6240 C.3   200  LEU200      0.1561
     70  C         -0.8760    7.9000   22.6540 C.2   200  LEU200      0.2260
     71  O         -1.8520    7.1960   22.3520 O.2   200  LEU200     -0.2867
     72  CB        -0.3090    9.5410   20.8430 C.3   200  LEU200      0.0270
     73  CG         0.7440   10.1270   19.9000 C.3   200  LEU200      0.0019
     74  CD1        0.1110   11.1590   18.9750 C.3   200  LEU200      0.0001
     75  CD2        1.9140   10.7450   20.6590 C.3   200  LEU200      0.0001
@<TRIPOS>BOND
     1     5     2    1
     2     5     6    1
     3     2     3    1
     4     2     1    1
     5     6     7    1
     6     8     7    2
     7     3     4    2
     8     7     9   am
     9    21    22    1
    10    21    18    1
    11    24    22   ar
    12    24    26   ar
    13    53    51    1
    14    22    23   ar
    15    26    27   ar
    16    57    56    2
    17    52    51    1
    18    51    48    1
    19    17    18    1
    20    13    12    2
    21    28    29    1
    22    28    19   am
    23    23    25   ar
    24    16    14    1
    25    27    25   ar
    26    14    15    1
    27    14    11    1
    28    29    30    1
    29    18    19    1
    30    10    11    1
    31    58    59    1
    32    58    55    1
    33    60    59    1
    34    60    54    1
    35    56    55    1
    36    56    61   am
    37    67    61    1
    38    67    66    1
    39    19    20    2
    40    11    12    1
    41    54    55    1
    42    54    49   am
    43    48    49    1
    44    48    47    1
    45    61    62    1
    46    49    50    2
    47    30    31    2
    48    66    65    1
    49    65    62    1
    50    62    63    1
    51    38    36    1
    52    37    36    1
    53    45    44    1
    54    46    44    1
    55    36    33    1
    56    63    64    2
    57    44    43    1
    58    43    40    1
    59    74    73    1
    60    32    33    1
    61    33    34    1
    62    40    41    1
    63    40    39    1
    64    41    42    2
    65    73    75    1
    66    73    72    1
    67    34    35    2
    68    68    69    1
    69    72    69    1
    70    69    70    1
    71    71    70    2
