@<TRIPOS>MOLECULE
tmp/5ny1A00.pdb
 120 118 0 0 0
SMALL
GASTEIGER

@<TRIPOS>ATOM
      1  N         11.2160    1.2820    8.1020 N.3     1  HIS1       -0.1226
      2  CA        10.0790    1.9160    8.8240 C.3     1  HIS1        0.1752
      3  C          9.3150    0.8040    9.5300 C.2     1  HIS1        0.2596
      4  O          9.4950   -0.3700    9.2130 O.2     1  HIS1       -0.2718
      5  CB         9.1840    2.6640    7.8360 C.3     1  HIS1        0.0759
      6  CG         8.8530    4.0610    8.2620 C.ar    1  HIS1        0.0818
      7  ND1        8.4590    5.0380    7.3760 N.ar    1  HIS1       -0.2268
      8  CD2        8.8910    4.6540    9.4760 C.ar    1  HIS1        0.1154
      9  CE1        8.2520    6.1670    8.0300 C.ar    1  HIS1        0.1986
     10  NE2        8.5070    5.9600    9.3080 N.ar    1  HIS1       -0.2212
     11  N          8.4710    1.1590   10.4890 N.am    2  TRP2       -0.1976
     12  CA         7.8010    0.1430   11.3100 C.3     2  TRP2        0.1640
     13  C          6.7790   -0.6550   10.5110 C.2     2  TRP2        0.2290
     14  O          6.2720   -0.1930    9.4950 O.2     2  TRP2       -0.2864
     15  CB         7.1280    0.8130   12.5050 C.3     2  TRP2        0.0576
     16  CG         5.9610    1.6760   12.1370 C.ar    2  TRP2        0.0006
     17  CD1        5.9760    3.0070   11.8600 C.ar    2  TRP2        0.0946
     18  CD2        4.5840    1.2570   12.0490 C.ar    2  TRP2        0.0152
     19  NE1        4.7000    3.4450   11.5810 N.ar    2  TRP2       -0.2442
     20  CE2        3.8300    2.3880   11.6910 C.ar    2  TRP2        0.0810
     21  CE3        3.9230    0.0360   12.2520 C.ar    2  TRP2        0.0012
     22  CZ2        2.4390    2.3430   11.5300 C.ar    2  TRP2        0.0191
     23  CZ3        2.5470   -0.0080   12.0710 C.ar    2  TRP2        0.0001
     24  CH2        1.8290    1.1450   11.7150 C.ar    2  TRP2        0.0015
     25  N          9.9060    4.8520   18.8950 N.3    17  PHE17      -0.1241
     26  CA         8.7670    5.3780   19.6590 C.3    17  PHE17       0.1605
     27  C          8.8710    4.8900   21.1020 C.2    17  PHE17       0.2264
     28  O          8.2150    3.9280   21.4870 O.2    17  PHE17      -0.2867
     29  CB         7.4420    4.9450   19.0010 C.3    17  PHE17       0.0534
     30  CG         7.3720    5.3220   17.5500 C.ar   17  PHE17      -0.0203
     31  CD1        7.0020    6.5900   17.1720 C.ar   17  PHE17      -0.0042
     32  CD2        7.7470    4.4150   16.5740 C.ar   17  PHE17      -0.0042
     33  CE1        7.0070    6.9440   15.8190 C.ar   17  PHE17      -0.0003
     34  CE2        7.7500    4.7520   15.2450 C.ar   17  PHE17      -0.0003
     35  CZ         7.3670    6.0120   14.8660 C.ar   17  PHE17      -0.0000
     36  N         -0.6340   -0.5450    6.2780 N.3    61  HIS61      -0.1241
     37  CA        -0.7650   -1.2250    7.5870 C.3    61  HIS61       0.1621
     38  C         -2.1650   -1.8200    7.8080 C.2    61  HIS61       0.2264
     39  O         -2.3290   -2.8100    8.5350 O.2    61  HIS61      -0.2867
     40  CB        -0.4230   -0.2290    8.6950 C.3    61  HIS61       0.0745
     41  CG         0.9560    0.3380    8.5680 C.ar   61  HIS61       0.0817
     42  ND1        1.2070    1.6660    8.3040 N.ar   61  HIS61      -0.2268
     43  CD2        2.1620   -0.2660    8.6420 C.ar   61  HIS61       0.1154
     44  CE1        2.5140    1.8620    8.2470 C.ar   61  HIS61       0.1986
     45  NE2        3.1130    0.7060    8.4550 N.ar   61  HIS61      -0.2212
     46  N        -12.5530    7.9000   11.1490 N.3    89  GLN89      -0.1245
     47  CA       -12.2740    6.7460   10.3060 C.3    89  GLN89       0.1566
     48  C        -12.5290    5.4900   11.0860 C.2    89  GLN89       0.2260
     49  O        -12.5720    5.5180   12.3310 O.2    89  GLN89      -0.2867
     50  CB       -10.8320    6.7600    9.8080 C.3    89  GLN89       0.0367
     51  CG        -9.7530    6.8810   10.8960 C.3    89  GLN89       0.0905
     52  CD        -8.9910    5.6060   11.1960 C.2    89  GLN89       0.2608
     53  OE1       -9.5350    4.4970   11.1170 O.2    89  GLN89      -0.2717
     54  NE2       -7.7280    5.7530   11.5800 N.am   89  GLN89      -0.0878
     55  N        -12.7260    5.2300   15.1460 N.3   118  VAL118     -0.1245
     56  CA       -11.8720    6.2420   15.7640 C.3   118  VAL118      0.1561
     57  C        -12.5720    7.5930   15.7900 C.2   118  VAL118      0.2260
     58  O        -13.0370    8.0710   14.7380 O.2   118  VAL118     -0.2867
     59  CB       -10.5570    6.3570   14.9560 C.3   118  VAL118      0.0252
     60  CG1       -9.6190    7.3790   15.5730 C.3   118  VAL118      0.0019
     61  CG2       -9.8830    4.9850   14.8140 C.3   118  VAL118      0.0019
     62  N         -8.0470   16.6280   14.7430 N.3   127  PHE127     -0.1227
     63  CA        -7.4980   15.3550   15.1520 C.3   127  PHE127      0.1736
     64  C         -6.0670   15.4820   15.6020 C.2   127  PHE127      0.2596
     65  O         -5.6790   14.8840   16.6060 O.2   127  PHE127     -0.2718
     66  CB        -7.6430   14.3490   14.0080 C.3   127  PHE127      0.0547
     67  CG        -7.1980   12.9670   14.3640 C.ar  127  PHE127     -0.0202
     68  CD1       -8.0750   12.0710   14.9060 C.ar  127  PHE127     -0.0042
     69  CD2       -5.8880   12.5860   14.2130 C.ar  127  PHE127     -0.0042
     70  CE1       -7.6860   10.8020   15.2440 C.ar  127  PHE127     -0.0003
     71  CE2       -5.4890   11.3160   14.5590 C.ar  127  PHE127     -0.0003
     72  CZ        -6.3990   10.4230   15.0700 C.ar  127  PHE127     -0.0000
     73  N         -5.2650   16.2580   14.8630 N.am  128  GLY128     -0.1957
     74  CA        -3.8660   16.4220   15.2140 C.3   128  GLY128      0.1869
     75  C         -3.6160   17.0440   16.5680 C.2   128  GLY128      0.2309
     76  O         -2.6500   16.7370   17.2440 O.2   128  GLY128     -0.2863
     77  N         -4.7800   14.2760   19.4310 N.3   131  VAL131     -0.1245
     78  CA        -3.8540   13.1950   19.7920 C.3   131  VAL131      0.1561
     79  C         -2.7840   13.6180   20.7700 C.2   131  VAL131      0.2260
     80  O         -2.1080   12.7710   21.3300 O.2   131  VAL131     -0.2867
     81  CB        -3.1760   12.4910   18.6020 C.3   131  VAL131      0.0252
     82  CG1       -4.2000   11.8010   17.7320 C.3   131  VAL131      0.0019
     83  CG2       -2.3320   13.4430   17.7780 C.3   131  VAL131      0.0019
     84  N         -2.9380    4.8570   21.1630 N.3   194  LEU194     -0.1245
     85  CA        -2.9340    4.3310   19.8020 C.3   194  LEU194      0.1561
     86  C         -2.1930    3.0020   19.8170 C.2   194  LEU194      0.2260
     87  O         -1.1690    2.8540   20.5160 O.2   194  LEU194     -0.2867
     88  CB        -2.2030    5.2830   18.8590 C.3   194  LEU194      0.0270
     89  CG        -2.7050    6.7190   18.7780 C.3   194  LEU194      0.0019
     90  CD1       -1.8760    7.5100   17.7810 C.3   194  LEU194      0.0001
     91  CD2       -4.1710    6.7860   18.4360 C.3   194  LEU194      0.0001
     92  N         -0.8200    1.6750   17.0250 N.3   196  THR196     -0.1204
     93  CA         0.2470    1.7730   16.0350 C.3   196  THR196      0.1979
     94  C          1.0670    3.0080   16.3340 C.2   196  THR196      0.2460
     95  O          0.5760    3.9690   16.9270 O.2   196  THR196     -0.2732
     96  CB        -0.3160    1.8750   14.6020 C.3   196  THR196      0.1783
     97  OG1       -1.3420    2.8840   14.5350 O.3   196  THR196     -0.2211
     98  CG2       -0.9530    0.5930   14.1890 C.3   196  THR196      0.0376
     99  N          2.3510    3.0220   15.9200 N.am  197  PRO197     -0.2718
    100  CA         3.1350    4.2400   15.9940 C.3   197  PRO197      0.1520
    101  C          2.3520    5.4330   15.4500 C.2   197  PRO197      0.2440
    102  O          1.7360    5.3070   14.3830 O.2   197  PRO197     -0.2731
    103  CB         4.3530    3.8930   15.1470 C.3   197  PRO197      0.0310
    104  CG         4.5380    2.4370   15.3940 C.3   197  PRO197      0.0237
    105  CD         3.1320    1.9110   15.3460 C.3   197  PRO197      0.0939
    106  N          2.3330    6.5750   16.1420 N.am  198  PRO198     -0.2727
    107  CA         3.2510    6.9420   17.2170 C.3   198  PRO198      0.1402
    108  C          2.8550    6.5190   18.6580 C.2   198  PRO198      0.2269
    109  O          3.5100    6.9580   19.6090 O.2   198  PRO198     -0.2865
    110  CB         3.3050    8.4670   17.0710 C.3   198  PRO198      0.0296
    111  CG         1.9540    8.8110   16.5550 C.3   198  PRO198      0.0237
    112  CD         1.6320    7.7430   15.5830 C.3   198  PRO198      0.0939
    113  N          0.5970    7.1770   20.7930 N.3   200  LEU200     -0.1245
    114  CA         0.3190    8.2720   21.7040 C.3   200  LEU200      0.1561
    115  C         -0.7430    7.8910   22.7180 C.2   200  LEU200      0.2260
    116  O         -1.7150    7.1980   22.4000 O.2   200  LEU200     -0.2867
    117  CB        -0.1190    9.5140   20.9230 C.3   200  LEU200      0.0270
    118  CG         0.9510   10.0890   19.9840 C.3   200  LEU200      0.0019
    119  CD1        0.3360   11.1470   19.0800 C.3   200  LEU200      0.0001
    120  CD2        2.1260   10.6850   20.7500 C.3   200  LEU200      0.0001
@<TRIPOS>BOND
     1    36    37    1
     2     7     9   ar
     3     7     6   ar
     4    37    38    1
     5    37    40    1
     6    38    39    2
     7     5     6    1
     8     5     2    1
     9     9    10   ar
    10     1     2    1
    11    44    42   ar
    12    44    45   ar
    13     6     8   ar
    14    42    41   ar
    15    45    43   ar
    16    41    43   ar
    17    41    40    1
    18     2     3    1
    19     4     3    2
    20    10     8   ar
    21    14    13    2
    22     3    11   am
    23    50    47    1
    24    50    51    1
    25    47    48    1
    26    47    46    1
    27    11    12    1
    28    13    12    1
    29    51    52    1
    30    48    49    2
    31    53    52    2
    32    52    54   am
    33    12    15    1
    34    22    20   ar
    35    22    24   ar
    36    19    20   ar
    37    19    17   ar
    38    20    18   ar
    39    24    23   ar
    40    17    16   ar
    41    18    16   ar
    42    18    21   ar
    43    23    21   ar
    44    16    15    1
    45    66    67    1
    46    66    63    1
    47    98    96    1
    48    69    67   ar
    49    69    71   ar
    50    67    68   ar
    51   102   101    2
    52    97    96    1
    53    71    72   ar
    54    96    93    1
    55    58    57    2
    56    62    63    1
    57    61    59    1
    58    73    74    1
    59    73    64   am
    60    35    34   ar
    61    35    33   ar
    62    68    70   ar
    63    59    60    1
    64    59    56    1
    65    72    70   ar
    66    55    56    1
    67   103   104    1
    68   103   100    1
    69    63    64    1
    70    74    75    1
    71    34    32   ar
    72   105   104    1
    73   105    99    1
    74   101   100    1
    75   101   106   am
    76   112   106    1
    77   112   111    1
    78    64    65    2
    79    56    57    1
    80    33    31   ar
    81    99   100    1
    82    99    94   am
    83    93    94    1
    84    93    92    1
    85   106   107    1
    86    94    95    2
    87   111   110    1
    88    75    76    2
    89    32    30   ar
    90   110   107    1
    91    31    30   ar
    92   107   108    1
    93    30    29    1
    94    82    81    1
    95    83    81    1
    96    90    89    1
    97    91    89    1
    98    81    78    1
    99   108   109    2
   100    89    88    1
   101    88    85    1
   102    25    26    1
   103    29    26    1
   104   119   118    1
   105    77    78    1
   106    26    27    1
   107    78    79    1
   108    85    86    1
   109    85    84    1
   110    86    87    2
   111   118   120    1
   112   118   117    1
   113    79    80    2
   114   113   114    1
   115   117   114    1
   116    27    28    2
   117   114   115    1
   118   116   115    2
