@<TRIPOS>MOLECULE
tmp/5ny3A00.pdb
 142 139 0 0 0
SMALL
GASTEIGER

@<TRIPOS>ATOM
      1  N        -12.6530    7.8950   11.1550 N.3    90  GLN90      -0.1245
      2  CA       -12.3850    6.7440   10.3320 C.3    90  GLN90       0.1566
      3  C        -12.6160    5.4870   11.1150 C.2    90  GLN90       0.2260
      4  O        -12.7200    5.5130   12.3330 O.2    90  GLN90      -0.2867
      5  CB       -10.9400    6.7600    9.8220 C.3    90  GLN90       0.0367
      6  CG        -9.8790    6.8800   10.9280 C.3    90  GLN90       0.0905
      7  CD        -9.1050    5.6050   11.2380 C.2    90  GLN90       0.2608
      8  OE1       -9.6220    4.5000   11.0640 O.2    90  GLN90      -0.2717
      9  NE2       -7.8730    5.7650   11.6710 N.am   90  GLN90      -0.0878
     10  N        -11.1680    1.1830   10.8580 N.3    92  HIS92      -0.1241
     11  CA       -10.2940    0.2120   10.2700 C.3    92  HIS92       0.1621
     12  C        -10.3780   -1.0410   11.1120 C.2    92  HIS92       0.2264
     13  O        -11.0440   -1.0660   12.1480 O.2    92  HIS92      -0.2867
     14  CB        -8.8320    0.6760   10.2320 C.3    92  HIS92       0.0745
     15  CG        -8.2970    0.9830   11.5850 C.ar   92  HIS92       0.0817
     16  ND1       -8.4670    2.2160   12.1660 N.ar   92  HIS92      -0.2268
     17  CD2       -7.6910    0.2060   12.5180 C.ar   92  HIS92       0.1154
     18  CE1       -7.9880    2.2010   13.3940 C.ar   92  HIS92       0.1986
     19  NE2       -7.5150    0.9930   13.6300 N.ar   92  HIS92      -0.2212
     20  N         -8.0830   -4.7540   12.4430 N.3    94  HIS94      -0.1241
     21  CA        -6.8840   -5.5850   12.6040 C.3    94  HIS94       0.1621
     22  C         -7.3040   -7.0340   12.5280 C.2    94  HIS94       0.2264
     23  O         -8.3700   -7.3770   13.0250 O.2    94  HIS94      -0.2867
     24  CB        -6.1860   -5.3350   13.9310 C.3    94  HIS94       0.0745
     25  CG        -5.9130   -3.9010   14.1950 C.ar   94  HIS94       0.0817
     26  ND1       -4.6610   -3.3380   14.0180 N.ar   94  HIS94      -0.2268
     27  CD2       -6.7310   -2.9100   14.6150 C.ar   94  HIS94       0.1154
     28  CE1       -4.7260   -2.0480   14.3460 C.ar   94  HIS94       0.1986
     29  NE2       -5.9670   -1.7790   14.7050 N.ar   94  HIS94      -0.2212
     30  N        -12.0380   -0.9480   14.8280 N.3   117  HIS117     -0.1241
     31  CA       -11.7720    0.2850   15.5460 C.3   117  HIS117      0.1621
     32  C        -12.4710    1.4370   14.8570 C.2   117  HIS117      0.2264
     33  O        -12.0960    1.7790   13.7550 O.2   117  HIS117     -0.2867
     34  CB       -10.2660    0.5470   15.6430 C.3   117  HIS117      0.0745
     35  CG        -9.5790   -0.4190   16.5640 C.ar  117  HIS117      0.0817
     36  ND1       -8.2210   -0.6480   16.6100 N.ar  117  HIS117     -0.2268
     37  CD2      -10.1230   -1.2540   17.4810 C.ar  117  HIS117      0.1154
     38  CE1       -7.9540   -1.5840   17.4860 C.ar  117  HIS117      0.1986
     39  NE2       -9.0780   -1.9390   18.0670 N.ar  117  HIS117     -0.2212
     40  N        -12.8420    5.2290   15.1770 N.3   119  VAL119     -0.1245
     41  CA       -11.9790    6.2270   15.7950 C.3   119  VAL119      0.1561
     42  C        -12.6950    7.5630   15.8020 C.2   119  VAL119      0.2260
     43  O        -13.1430    8.0380   14.7410 O.2   119  VAL119     -0.2867
     44  CB       -10.6670    6.3390   14.9720 C.3   119  VAL119      0.0252
     45  CG1       -9.7600    7.3930   15.6010 C.3   119  VAL119      0.0019
     46  CG2       -9.9840    4.9790   14.8240 C.3   119  VAL119      0.0019
     47  N         -8.1920   16.6660   14.6230 N.3   128  PHE128     -0.1227
     48  CA        -7.6570   15.3870   15.0150 C.3   128  PHE128      0.1736
     49  C         -6.2190   15.5050   15.4460 C.2   128  PHE128      0.2596
     50  O         -5.8140   14.8810   16.4500 O.2   128  PHE128     -0.2718
     51  CB        -7.8370   14.3670   13.8760 C.3   128  PHE128      0.0547
     52  CG        -7.2610   13.0090   14.1860 C.ar  128  PHE128     -0.0202
     53  CD1       -8.0340   12.0880   14.8370 C.ar  128  PHE128     -0.0042
     54  CD2       -5.9250   12.6790   13.8850 C.ar  128  PHE128     -0.0042
     55  CE1       -7.5540   10.8480   15.1630 C.ar  128  PHE128     -0.0003
     56  CE2       -5.4360   11.4250   14.2150 C.ar  128  PHE128     -0.0003
     57  CZ        -6.2620   10.5130   14.8680 C.ar  128  PHE128     -0.0000
     58  N         -5.4010   16.2680   14.7000 N.am  129  GLY129     -0.1957
     59  CA        -4.0050   16.4040   15.0580 C.3   129  GLY129      0.1869
     60  C         -3.7440   17.0240   16.4280 C.2   129  GLY129      0.2309
     61  O         -2.7870   16.6820   17.0970 O.2   129  GLY129     -0.2863
     62  N         -4.9340   14.2390   19.3160 N.3   132  VAL132     -0.1231
     63  CA        -4.0010   13.1510   19.6570 C.3   132  VAL132      0.1692
     64  C         -2.9020   13.5960   20.5990 C.2   132  VAL132      0.2591
     65  O         -2.2320   12.7360   21.1780 O.2   132  VAL132     -0.2718
     66  CB        -3.3810   12.4060   18.4400 C.3   132  VAL132      0.0266
     67  CG1       -4.4700   11.7480   17.6440 C.3   132  VAL132      0.0020
     68  CG2       -2.5400   13.3140   17.5650 C.3   132  VAL132      0.0020
     69  N         -2.7580   14.8990   20.8390 N.am  133  GLN133     -0.1979
     70  CA        -1.8020   15.4020   21.8260 C.3   133  GLN133      0.1601
     71  C         -2.3570   15.5180   23.2320 C.2   133  GLN133      0.2287
     72  O         -1.7010   16.0390   24.1400 O.2   133  GLN133     -0.2864
     73  CB        -1.2830   16.7770   21.3500 C.3   133  GLN133      0.0394
     74  CG        -0.6430   16.7240   19.9710 C.3   133  GLN133      0.0908
     75  CD        -0.0680   18.0730   19.5490 C.2   133  GLN133      0.2608
     76  OE1        0.7270   18.6800   20.2820 O.2   133  GLN133     -0.2717
     77  NE2       -0.4690   18.5530   18.3720 N.am  133  GLN133     -0.0878
     78  N        -11.9410    5.4600   21.0210 N.3   140  VAL140     -0.1245
     79  CA       -11.9780    4.4090   20.0110 C.3   140  VAL140      0.1561
     80  C        -12.9280    3.3590   20.5270 C.2   140  VAL140      0.2260
     81  O        -12.7620    2.8290   21.6420 O.2   140  VAL140     -0.2867
     82  CB       -10.5670    3.8250   19.6700 C.3   140  VAL140      0.0252
     83  CG1      -10.7330    2.8070   18.5450 C.3   140  VAL140      0.0019
     84  CG2       -9.6250    4.9250   19.2360 C.3   140  VAL140      0.0019
     85  N         -3.0150    4.8460   21.1710 N.3   195  LEU195     -0.1231
     86  CA        -3.0290    4.3280   19.8130 C.3   195  LEU195      0.1693
     87  C         -2.3040    2.9950   19.8640 C.2   195  LEU195      0.2593
     88  O         -1.2850    2.8510   20.5730 O.2   195  LEU195     -0.2718
     89  CB        -2.2960    5.2500   18.8620 C.3   195  LEU195      0.0284
     90  CG        -2.7500    6.7000   18.8020 C.3   195  LEU195      0.0019
     91  CD1       -1.9570    7.4690   17.7440 C.3   195  LEU195      0.0001
     92  CD2       -4.2300    6.8380   18.4920 C.3   195  LEU195      0.0001
     93  N         -2.7660    2.0370   19.0630 N.am  196  THR196     -0.1939
     94  CA        -2.0940    0.7280   19.0010 C.3   196  THR196      0.2028
     95  C         -1.0880    0.6210   17.8720 C.2   196  THR196      0.2643
     96  O         -0.4920   -0.4390   17.7340 O.2   196  THR196     -0.2714
     97  CB        -3.1010   -0.4160   18.8570 C.3   196  THR196      0.1808
     98  OG1       -3.6930   -0.3720   17.5720 O.3   196  THR196     -0.2208
     99  CG2       -4.1220   -0.3510   19.9800 C.3   196  THR196      0.0379
    100  N         -0.9180    1.6900   17.0870 N.am  197  THR197     -0.1937
    101  CA         0.1370    1.7660   16.0960 C.3   197  THR197      0.2013
    102  C          0.9680    3.0200   16.3850 C.2   197  THR197      0.2484
    103  O          0.4710    3.9800   16.9990 O.2   197  THR197     -0.2729
    104  CB        -0.3980    1.8600   14.6760 C.3   197  THR197      0.1807
    105  OG1       -1.3170    2.9680   14.5370 O.3   197  THR197     -0.2208
    106  CG2       -1.0790    0.5980   14.2480 C.3   197  THR197      0.0379
    107  N          2.2410    3.0190   15.9400 N.am  198  PRO198     -0.2715
    108  CA         3.0170    4.2500   16.0200 C.3   198  PRO198      0.1521
    109  C          2.1920    5.4140   15.4950 C.2   198  PRO198      0.2440
    110  O          1.5370    5.2820   14.4530 O.2   198  PRO198     -0.2731
    111  CB         4.2270    3.9180   15.1300 C.3   198  PRO198      0.0310
    112  CG         4.4320    2.4870   15.3500 C.3   198  PRO198      0.0237
    113  CD         3.0030    1.9420   15.3110 C.3   198  PRO198      0.0939
    114  N          2.1930    6.5680   16.1640 N.am  199  PRO199     -0.2727
    115  CA         3.1370    6.9610   17.2090 C.3   199  PRO199      0.1402
    116  C          2.7670    6.5600   18.6540 C.2   199  PRO199      0.2269
    117  O          3.4050    7.0170   19.6080 O.2   199  PRO199     -0.2865
    118  CB         3.1600    8.4870   17.0480 C.3   199  PRO199      0.0296
    119  CG         1.8170    8.8280   16.5870 C.3   199  PRO199      0.0237
    120  CD         1.5010    7.7430   15.5900 C.3   199  PRO199      0.0939
    121  N          0.5180    7.1850   20.7920 N.3   201  LEU201     -0.1245
    122  CA         0.2170    8.2830   21.6890 C.3   201  LEU201      0.1561
    123  C         -0.8160    7.8920   22.7090 C.2   201  LEU201      0.2260
    124  O         -1.8080    7.1970   22.3950 O.2   201  LEU201     -0.2867
    125  CB        -0.2350    9.5090   20.8960 C.3   201  LEU201      0.0270
    126  CG         0.8460   10.1050   19.9710 C.3   201  LEU201      0.0019
    127  CD1        0.1960   11.1310   19.0700 C.3   201  LEU201      0.0001
    128  CD2        2.0040   10.7160   20.7660 C.3   201  LEU201      0.0001
    129  N        -10.5270    3.9970   25.6020 N.3   206  TRP206     -0.1241
    130  CA       -10.9260    2.8000   24.8970 C.3   206  TRP206      0.1605
    131  C        -12.2830    2.3590   25.4090 C.2   206  TRP206      0.2264
    132  O        -12.5320    2.3180   26.6180 O.2   206  TRP206     -0.2867
    133  CB        -9.9060    1.6520   25.1160 C.3   206  TRP206      0.0550
    134  CG        -8.8180    1.7660   24.1080 C.ar  206  TRP206      0.0003
    135  CD1       -7.6140    2.3630   24.2860 C.ar  206  TRP206      0.0946
    136  CD2       -8.9010    1.3580   22.7460 C.ar  206  TRP206      0.0152
    137  NE1       -6.9260    2.3490   23.0850 N.ar  206  TRP206     -0.2442
    138  CE2       -7.6950    1.7240   22.1360 C.ar  206  TRP206      0.0810
    139  CE3       -9.8840    0.7140   21.9850 C.ar  206  TRP206      0.0012
    140  CZ2       -7.4250    1.4680   20.7850 C.ar  206  TRP206      0.0191
    141  CZ3       -9.6060    0.4460   20.6520 C.ar  206  TRP206      0.0001
    142  CH2       -8.4020    0.8250   20.0700 C.ar  206  TRP206      0.0015
@<TRIPOS>BOND
     1     5     2    1
     2     5     6    1
     3    14    11    1
     4    14    15    1
     5    11    10    1
     6    11    12    1
     7     2     3    1
     8     2     1    1
     9     6     7    1
    10     8     7    2
    11    12    13    2
    12     3     4    2
    13     7     9   am
    14    15    16   ar
    15    15    17   ar
    16    16    18   ar
    17    20    21    1
    18    17    19   ar
    19    22    21    1
    20    22    23    2
    21    21    24    1
    22    18    19   ar
    23    33    32    2
    24    51    52    1
    25    51    48    1
    26    54    52   ar
    27    54    56   ar
    28    24    25    1
    29    26    25   ar
    30    26    28   ar
    31    52    53   ar
    32    25    27   ar
    33    56    57   ar
    34   106   104    1
    35    28    29   ar
    36   110   109    2
    37   105   104    1
    38    27    29   ar
    39    47    48    1
    40   104   101    1
    41    58    59    1
    42    58    49   am
    43    43    42    2
    44    46    44    1
    45    30    31    1
    46    53    55   ar
    47    32    31    1
    48    57    55   ar
    49    44    45    1
    50    44    41    1
    51    48    49    1
    52    59    60    1
    53   111   112    1
    54   111   108    1
    55    40    41    1
    56   113   112    1
    57   113   107    1
    58    49    50    2
    59   109   108    1
    60   109   114   am
    61    31    34    1
    62   120   114    1
    63   120   119    1
    64    34    35    1
    65    41    42    1
    66   107   108    1
    67   107   102   am
    68   101   102    1
    69   101   100    1
    70   114   115    1
    71   102   103    2
    72    60    61    2
    73    35    36   ar
    74    35    37   ar
    75   119   118    1
    76    36    38   ar
    77   118   115    1
    78   100    95   am
    79   115   116    1
    80    37    39   ar
    81    38    39   ar
    82    68    66    1
    83    98    97    1
    84    67    66    1
    85    96    95    2
    86    91    90    1
    87    95    94    1
    88    77    75   am
    89    66    63    1
    90    92    90    1
    91    83    82    1
    92   116   117    2
    93    90    89    1
    94    97    94    1
    95    97    99    1
    96    89    86    1
    97    94    93    1
    98    93    87   am
    99   127   126    1
   100    84    82    1
   101    62    63    1
   102    75    74    1
   103    75    76    2
   104    63    64    1
   105    82    79    1
   106    86    87    1
   107    86    85    1
   108    87    88    2
   109    74    73    1
   110   126   128    1
   111   126   125    1
   112    79    80    1
   113    79    78    1
   114   142   141   ar
   115   142   140   ar
   116    80    81    2
   117    64    69   am
   118    64    65    2
   119   141   139   ar
   120   140   138   ar
   121   121   122    1
   122    69    70    1
   123   125   122    1
   124    73    70    1
   125   122   123    1
   126    70    71    1
   127   139   136   ar
   128   138   136   ar
   129   138   137   ar
   130   124   123    2
   131   136   134   ar
   132   137   135   ar
   133    71    72    2
   134   134   135   ar
   135   134   133    1
   136   130   133    1
   137   130   131    1
   138   130   129    1
   139   131   132    2
