@<TRIPOS>MOLECULE
tmp/5ny6A00.pdb
 174 170 0 0 0
SMALL
GASTEIGER

@<TRIPOS>ATOM
      1  N          8.4640    1.2470   10.4390 N.3     3  TRP3       -0.1241
      2  CA         7.7970    0.2640   11.2780 C.3     3  TRP3        0.1605
      3  C          6.7840   -0.5230   10.4750 C.2     3  TRP3        0.2264
      4  O          6.2690   -0.0740    9.4640 O.2     3  TRP3       -0.2867
      5  CB         7.1180    0.9380   12.4720 C.3     3  TRP3        0.0550
      6  CG         5.9070    1.7270   12.1140 C.ar    3  TRP3        0.0003
      7  CD1        5.8410    3.0650   11.8010 C.ar    3  TRP3        0.0946
      8  CD2        4.5530    1.2530   12.0970 C.ar    3  TRP3        0.0152
      9  NE1        4.5430    3.4260   11.5480 N.ar    3  TRP3       -0.2442
     10  CE2        3.7360    2.3350   11.7310 C.ar    3  TRP3        0.0810
     11  CE3        3.9600    0.0030   12.3400 C.ar    3  TRP3        0.0012
     12  CZ2        2.3440    2.2120   11.6050 C.ar    3  TRP3        0.0191
     13  CZ3        2.5750   -0.1170   12.2250 C.ar    3  TRP3        0.0001
     14  CH2        1.7870    0.9880   11.8670 C.ar    3  TRP3        0.0015
     15  N         -3.5260    2.0410    3.4840 N.3    60  ASN60      -0.1240
     16  CA        -2.3880    2.8580    3.9270 C.3    60  ASN60       0.1653
     17  C         -1.1100    2.0620    4.1400 C.2    60  ASN60       0.2266
     18  O         -0.1110    2.6070    4.6410 O.2    60  ASN60      -0.2867
     19  CB        -2.7180    3.6720    5.1770 C.3    60  ASN60       0.1155
     20  CG        -3.0450    2.7990    6.3630 C.2    60  ASN60       0.2627
     21  OD1       -2.6390    1.6510    6.4350 O.2    60  ASN60      -0.2716
     22  ND2       -3.8130    3.3420    7.2890 N.am   60  ASN60      -0.0877
     23  N         -0.5480   -0.6630    6.1930 N.3    62  HIS62      -0.1226
     24  CA        -0.6740   -1.2950    7.5360 C.3    62  HIS62       0.1752
     25  C         -2.0520   -1.9460    7.6970 C.2    62  HIS62       0.2595
     26  O         -2.1570   -3.0700    8.2120 O.2    62  HIS62      -0.2718
     27  CB        -0.4370   -0.2730    8.6520 C.3    62  HIS62       0.0759
     28  CG         0.8680    0.4410    8.5350 C.ar   62  HIS62       0.0818
     29  ND1        2.0730   -0.2030    8.7000 N.ar   62  HIS62      -0.2268
     30  CD2        1.1520    1.7390    8.3140 C.ar   62  HIS62       0.1154
     31  CE1        3.0500    0.6720    8.5750 C.ar   62  HIS62       0.1986
     32  NE2        2.5230    1.8510    8.3110 N.ar   62  HIS62      -0.2212
     33  N         -3.0800   -1.2690    7.2350 N.am   63  ALA63      -0.1980
     34  CA        -4.4530   -1.7550    7.2020 C.3    63  ALA63       0.1597
     35  C         -5.1650   -0.9540    6.1070 C.2    63  ALA63       0.2287
     36  O         -4.4810   -0.3060    5.2770 O.2    63  ALA63      -0.2864
     37  CB        -5.0900   -1.5550    8.5740 C.3    63  ALA63       0.0319
     38  N         -8.2850    2.1520    5.8320 N.3    65  ASN65      -0.1240
     39  CA        -9.1760    3.0710    6.5910 C.3    65  ASN65       0.1653
     40  C        -10.4390    3.4930    5.7970 C.2    65  ASN65       0.2266
     41  O        -10.3330    3.9420    4.6460 O.2    65  ASN65      -0.2867
     42  CB        -8.4440    4.3730    6.9760 C.3    65  ASN65       0.1155
     43  CG        -7.3810    4.1900    8.0480 C.2    65  ASN65       0.2627
     44  OD1       -7.3480    3.2000    8.7610 O.2    65  ASN65      -0.2716
     45  ND2       -6.4880    5.1730    8.1470 N.am   65  ASN65      -0.0877
     46  N        -12.4650    7.9120   11.2240 N.3    90  GLN90      -0.1245
     47  CA       -12.1760    6.7670   10.3680 C.3    90  GLN90       0.1566
     48  C        -12.4310    5.5020   11.1330 C.2    90  GLN90       0.2260
     49  O        -12.4840    5.5130   12.3770 O.2    90  GLN90      -0.2867
     50  CB       -10.7250    6.7820    9.9320 C.3    90  GLN90       0.0367
     51  CG        -9.6860    6.8800   11.0640 C.3    90  GLN90       0.0905
     52  CD        -8.8140    5.6430   11.2230 C.2    90  GLN90       0.2608
     53  OE1       -9.2870    4.5030   11.1090 O.2    90  GLN90      -0.2717
     54  NE2       -7.5390    5.8560   11.4760 N.am   90  GLN90      -0.0878
     55  N        -10.9780    1.1980   10.8770 N.3    92  HIS92      -0.1241
     56  CA       -10.1550    0.1980   10.2460 C.3    92  HIS92       0.1621
     57  C        -10.2330   -1.0680   11.0810 C.2    92  HIS92       0.2264
     58  O        -10.8520   -1.0870   12.1480 O.2    92  HIS92      -0.2867
     59  CB        -8.7170    0.6900   10.1730 C.3    92  HIS92       0.0745
     60  CG        -8.1610    0.9770   11.5300 C.ar   92  HIS92       0.0817
     61  ND1       -8.2290    2.2050   12.1410 N.ar   92  HIS92      -0.2268
     62  CD2       -7.5850    0.1440   12.4310 C.ar   92  HIS92       0.1154
     63  CE1       -7.7290    2.1010   13.3650 C.ar   92  HIS92       0.1986
     64  NE2       -7.3650    0.8550   13.5720 N.ar   92  HIS92      -0.2212
     65  N         -7.9190   -4.7900   12.4040 N.3    94  HIS94      -0.1241
     66  CA        -6.7160   -5.5850   12.5540 C.3    94  HIS94       0.1621
     67  C         -7.1570   -7.0400   12.4530 C.2    94  HIS94       0.2264
     68  O         -8.2290   -7.3740   12.9740 O.2    94  HIS94      -0.2867
     69  CB        -6.0330   -5.3360   13.9090 C.3    94  HIS94       0.0745
     70  CG        -5.7440   -3.8990   14.1650 C.ar   94  HIS94       0.0817
     71  ND1       -4.5040   -3.3400   13.9870 N.ar   94  HIS94      -0.2268
     72  CD2       -6.5430   -2.8880   14.5800 C.ar   94  HIS94       0.1154
     73  CE1       -4.5600   -2.0490   14.3000 C.ar   94  HIS94       0.1986
     74  NE2       -5.7980   -1.7410   14.6510 N.ar   94  HIS94      -0.2212
     75  N        -11.8460   -0.9350   14.8250 N.3   117  HIS117     -0.1241
     76  CA       -11.5930    0.2890   15.5780 C.3   117  HIS117      0.1621
     77  C        -12.2580    1.4470   14.8880 C.2   117  HIS117      0.2264
     78  O        -11.8960    1.8060   13.7760 O.2   117  HIS117     -0.2867
     79  CB       -10.0860    0.5580   15.6800 C.3   117  HIS117      0.0745
     80  CG        -9.3980   -0.4380   16.5510 C.ar  117  HIS117      0.0817
     81  ND1       -8.0430   -0.6810   16.5290 N.ar  117  HIS117     -0.2268
     82  CD2       -9.9200   -1.2360   17.5070 C.ar  117  HIS117      0.1154
     83  CE1       -7.7630   -1.6040   17.4160 C.ar  117  HIS117      0.1986
     84  NE2       -8.8780   -1.9470   18.0360 N.ar  117  HIS117     -0.2212
     85  N        -12.5690    5.2320   15.2200 N.3   119  VAL119     -0.1245
     86  CA       -11.7330    6.2410   15.8510 C.3   119  VAL119      0.1561
     87  C        -12.4490    7.5960   15.8550 C.2   119  VAL119      0.2260
     88  O        -12.8830    8.0700   14.7870 O.2   119  VAL119     -0.2867
     89  CB       -10.3940    6.3810   15.0820 C.3   119  VAL119      0.0252
     90  CG1       -9.5020    7.4330   15.6970 C.3   119  VAL119      0.0019
     91  CG2       -9.6900    5.0260   14.9960 C.3   119  VAL119      0.0019
     92  N         -8.2040   16.3810   14.7570 N.3   128  PHE128     -0.1241
     93  CA        -7.5510   15.1380   15.1570 C.3   128  PHE128      0.1605
     94  C         -6.0990   15.3570   15.5760 C.2   128  PHE128      0.2264
     95  O         -5.6680   14.8020   16.5890 O.2   128  PHE128     -0.2867
     96  CB        -7.6690   14.1410   14.0050 C.3   128  PHE128      0.0534
     97  CG        -6.9740   12.8480   14.2620 C.ar  128  PHE128     -0.0203
     98  CD1       -7.6070   11.8150   14.9270 C.ar  128  PHE128     -0.0042
     99  CD2       -5.6640   12.6550   13.8640 C.ar  128  PHE128     -0.0042
    100  CE1       -6.9620   10.6010   15.1520 C.ar  128  PHE128     -0.0003
    101  CE2       -5.0140   11.4640   14.0990 C.ar  128  PHE128     -0.0003
    102  CZ        -5.6710   10.4270   14.7280 C.ar  128  PHE128     -0.0000
    103  N         -8.8540   11.1850   22.1600 N.3   138  LEU138     -0.1245
    104  CA        -9.5290   10.2330   21.2960 C.3   138  LEU138      0.1561
    105  C        -10.3930    9.3030   22.1050 C.2   138  LEU138      0.2260
    106  O        -10.1140    9.0100   23.2660 O.2   138  LEU138     -0.2867
    107  CB        -8.5630    9.4040   20.4730 C.3   138  LEU138      0.0270
    108  CG        -7.6100   10.1040   19.5260 C.3   138  LEU138      0.0019
    109  CD1       -6.8560    9.0700   18.6980 C.3   138  LEU138      0.0001
    110  CD2       -8.2730   11.1330   18.6280 C.3   138  LEU138      0.0001
    111  N        -11.9050    5.4120   21.0910 N.3   140  VAL140     -0.1245
    112  CA       -12.0020    4.3450   20.1060 C.3   140  VAL140      0.1561
    113  C        -13.0110    3.3430   20.5860 C.2   140  VAL140      0.2260
    114  O        -12.9170    2.8300   21.7060 O.2   140  VAL140     -0.2867
    115  CB       -10.6490    3.6830   19.7960 C.3   140  VAL140      0.0252
    116  CG1      -10.8310    2.6380   18.7040 C.3   140  VAL140      0.0019
    117  CG2       -9.6370    4.7100   19.3520 C.3   140  VAL140      0.0019
    118  N         -2.9090    4.8140   21.1850 N.3   195  LEU195     -0.1231
    119  CA        -2.9270    4.2360   19.8480 C.3   195  LEU195      0.1693
    120  C         -2.2070    2.8910   19.9260 C.2   195  LEU195      0.2593
    121  O         -1.1930    2.7490   20.6490 O.2   195  LEU195     -0.2718
    122  CB        -2.2020    5.1110   18.8180 C.3   195  LEU195      0.0284
    123  CG        -2.3830    6.6260   18.8000 C.3   195  LEU195      0.0019
    124  CD1       -1.6730    7.1740   17.5760 C.3   195  LEU195      0.0001
    125  CD2       -3.8290    7.0640   18.8070 C.3   195  LEU195      0.0001
    126  N         -2.6830    1.9110   19.1640 N.am  196  THR196     -0.1939
    127  CA        -2.0100    0.6010   19.0910 C.3   196  THR196      0.2028
    128  C         -0.9900    0.5590   17.9550 C.2   196  THR196      0.2643
    129  O         -0.3370   -0.4710   17.7890 O.2   196  THR196     -0.2714
    130  CB        -3.0200   -0.5380   18.9040 C.3   196  THR196      0.1808
    131  OG1       -3.5790   -0.4100   17.5930 O.3   196  THR196     -0.2208
    132  CG2       -4.0700   -0.5480   19.9630 C.3   196  THR196      0.0379
    133  N         -0.9100    1.6310   17.1620 N.am  197  THR197     -0.1937
    134  CA         0.0490    1.7640   16.0780 C.3   197  THR197      0.2013
    135  C          0.9330    2.9590   16.3610 C.2   197  THR197      0.2484
    136  O          0.4760    3.9430   16.9410 O.2   197  THR197     -0.2729
    137  CB        -0.6810    2.0160   14.7500 C.3   197  THR197      0.1807
    138  OG1       -1.4620    3.2210   14.7950 O.3   197  THR197     -0.2208
    139  CG2       -1.5780    0.8900   14.4080 C.3   197  THR197      0.0379
    140  N          2.2200    2.9330   15.9170 N.am  198  PRO198     -0.2715
    141  CA         3.0140    4.1540   15.9830 C.3   198  PRO198      0.1521
    142  C          2.2170    5.3480   15.4320 C.2   198  PRO198      0.2440
    143  O          1.5560    5.1880   14.3960 O.2   198  PRO198     -0.2731
    144  CB         4.2260    3.7900   15.1390 C.3   198  PRO198      0.0310
    145  CG         4.3980    2.3310   15.4170 C.3   198  PRO198      0.0237
    146  CD         2.9900    1.7970   15.3750 C.3   198  PRO198      0.0939
    147  N          2.2490    6.5110   16.0810 N.am  199  PRO199     -0.2727
    148  CA         3.2020    6.8950   17.1220 C.3   199  PRO199      0.1402
    149  C          2.8390    6.4700   18.5720 C.2   199  PRO199      0.2269
    150  O          3.4830    6.9150   19.5040 O.2   199  PRO199     -0.2865
    151  CB         3.2210    8.4120   16.9680 C.3   199  PRO199      0.0296
    152  CG         1.8380    8.7590   16.4870 C.3   199  PRO199      0.0237
    153  CD         1.5280    7.6680   15.5120 C.3   199  PRO199      0.0939
    154  N         -5.9710    7.9130   24.2740 N.3   204  VAL204     -0.1245
    155  CA        -7.2050    7.1930   23.9100 C.3   204  VAL204      0.1561
    156  C         -7.9690    6.7410   25.1470 C.2   204  VAL204      0.2260
    157  O         -7.4140    6.0970   26.0410 O.2   204  VAL204     -0.2867
    158  CB        -6.9050    5.9460   23.0430 C.3   204  VAL204      0.0252
    159  CG1       -8.2270    5.2320   22.6850 C.3   204  VAL204      0.0019
    160  CG2       -6.1730    6.3230   21.7640 C.3   204  VAL204      0.0019
    161  N        -10.3930    3.9420   25.5990 N.3   206  TRP206     -0.1241
    162  CA       -10.8420    2.7360   24.9170 C.3   206  TRP206      0.1605
    163  C        -12.2110    2.3310   25.4270 C.2   206  TRP206      0.2264
    164  O        -12.4430    2.2650   26.6350 O.2   206  TRP206     -0.2867
    165  CB        -9.8260    1.5790   25.1200 C.3   206  TRP206      0.0550
    166  CG        -8.7110    1.7100   24.1440 C.ar  206  TRP206      0.0003
    167  CD1       -7.4780    2.3120   24.3290 C.ar  206  TRP206      0.0946
    168  CD2       -8.7590    1.3030   22.7810 C.ar  206  TRP206      0.0152
    169  NE1       -6.8000    2.2940   23.1710 N.ar  206  TRP206     -0.2442
    170  CE2       -7.5310    1.6770   22.1910 C.ar  206  TRP206      0.0810
    171  CE3       -9.7140    0.6320   22.0000 C.ar  206  TRP206      0.0012
    172  CZ2       -7.2480    1.4380   20.8560 C.ar  206  TRP206      0.0191
    173  CZ3       -9.4300    0.3570   20.7040 C.ar  206  TRP206      0.0001
    174  CH2       -8.1990    0.7610   20.1220 C.ar  206  TRP206      0.0015
@<TRIPOS>BOND
     1    15    16    1
     2    16    17    1
     3    16    19    1
     4    17    18    2
     5    41    40    2
     6    19    20    1
     7    36    35    2
     8    40    39    1
     9    38    39    1
    10    35    34    1
    11    23    24    1
    12    20    21    2
    13    20    22   am
    14    39    42    1
    15    42    43    1
    16    34    33    1
    17    34    37    1
    18    33    25   am
    19    24    25    1
    20    24    27    1
    21    25    26    2
    22    43    45   am
    23    43    44    2
    24    32    30   ar
    25    32    31   ar
    26    30    28   ar
    27    28    27    1
    28    28    29   ar
    29    31    29   ar
    30     4     3    2
    31    50    47    1
    32    50    51    1
    33    59    56    1
    34    59    60    1
    35    56    55    1
    36    56    57    1
    37    47    48    1
    38    47    46    1
    39     1     2    1
    40     3     2    1
    41    51    52    1
    42    57    58    2
    43    53    52    2
    44    48    49    2
    45    52    54   am
    46     2     5    1
    47    60    61   ar
    48    60    62   ar
    49     9    10   ar
    50     9     7   ar
    51    12    10   ar
    52    12    14   ar
    53    10     8   ar
    54     7     6   ar
    55    14    13   ar
    56     8     6   ar
    57     8    11   ar
    58     6     5    1
    59    61    63   ar
    60    13    11   ar
    61    65    66    1
    62    62    64   ar
    63    67    66    1
    64    67    68    2
    65    66    69    1
    66    63    64   ar
    67    78    77    2
    68    99   101   ar
    69    99    97   ar
    70    69    70    1
    71    71    70   ar
    72    71    73   ar
    73    96    97    1
    74    96    93    1
    75   101   102   ar
    76    70    72   ar
    77    97    98   ar
    78    73    74   ar
    79   143   142    2
    80   139   137    1
    81    72    74   ar
    82   102   100   ar
    83   137   138    1
    84   137   134    1
    85    92    93    1
    86    88    87    2
    87    75    76    1
    88    77    76    1
    89    98   100   ar
    90    91    89    1
    91    89    90    1
    92    89    86    1
    93   144   145    1
    94   144   141    1
    95    93    94    1
    96    85    86    1
    97   146   145    1
    98   146   140    1
    99   142   141    1
   100   142   147   am
   101   153   147    1
   102   153   152    1
   103    94    95    2
   104    76    79    1
   105    79    80    1
   106    86    87    1
   107   140   141    1
   108   140   135   am
   109   134   135    1
   110   134   133    1
   111   147   148    1
   112   135   136    2
   113   152   151    1
   114    81    80   ar
   115    81    83   ar
   116    80    82   ar
   117   151   148    1
   118   148   149    1
   119   133   128   am
   120    83    84   ar
   121    82    84   ar
   122   124   123    1
   123   131   130    1
   124   129   128    2
   125   128   127    1
   126   149   150    2
   127   110   108    1
   128   109   108    1
   129   116   115    1
   130   123   125    1
   131   123   122    1
   132   122   119    1
   133   130   127    1
   134   130   132    1
   135   127   126    1
   136   126   120   am
   137   117   115    1
   138   108   107    1
   139   115   112    1
   140   119   120    1
   141   119   118    1
   142   120   121    2
   143   112   113    1
   144   112   111    1
   145   174   173   ar
   146   174   172   ar
   147   107   104    1
   148   113   114    2
   149   173   171   ar
   150   172   170   ar
   151   104   105    1
   152   104   103    1
   153   160   158    1
   154   171   168   ar
   155   105   106    2
   156   170   168   ar
   157   170   169   ar
   158   159   158    1
   159   168   166   ar
   160   158   155    1
   161   169   167   ar
   162   155   154    1
   163   155   156    1
   164   166   167   ar
   165   166   165    1
   166   162   165    1
   167   162   163    1
   168   162   161    1
   169   156   157    2
   170   163   164    2
