@<TRIPOS>MOLECULE
tmp/5ny7A00.pdb
 118 111 0 0 0
SMALL
GASTEIGER

@<TRIPOS>ATOM
      1  N         25.1320   21.7470   -0.3230 N.3    49  GLU49      -0.1245
      2  CA        26.4350   21.9500   -1.0220 C.3    49  GLU49       0.1567
      3  C         26.4330   23.2450   -1.8180 C.2    49  GLU49       0.2260
      4  O         25.5010   23.5450   -2.5680 O.2    49  GLU49      -0.2867
      5  CB        26.6650   20.7860   -1.9620 C.3    49  GLU49       0.0388
      6  CG        27.9920   20.9000   -2.7470 C.3    49  GLU49       0.1160
      7  CD        28.2160   19.8070   -3.7420 C.2    49  GLU49       0.3649
      8  OE1       29.4180   19.5300   -4.0250 O.co2  49  GLU49      -0.2457
      9  OE2       27.2380   19.2510   -4.2570 O.co2  49  GLU49      -0.2457
     10  N         24.4600   26.2000   -6.6180 N.3    55  TYR55      -0.1241
     11  CA        25.2070   25.1020   -7.2580 C.3    55  TYR55       0.1605
     12  C         25.3660   25.4500   -8.7270 C.2    55  TYR55       0.2264
     13  O         24.5580   25.0490   -9.5670 O.2    55  TYR55      -0.2867
     14  CB        24.4750   23.7850   -7.0350 C.3    55  TYR55       0.0534
     15  CG        25.2460   22.6300   -7.6190 C.ar   55  TYR55      -0.0201
     16  CD1       26.2970   22.0310   -6.9600 C.ar   55  TYR55      -0.0009
     17  CD2       24.9280   22.1330   -8.8850 C.ar   55  TYR55      -0.0009
     18  CE1       27.0410   20.9760   -7.5150 C.ar   55  TYR55       0.0417
     19  CE2       25.7100   21.1150   -9.4910 C.ar   55  TYR55       0.0417
     20  CZ        26.7450   20.5930   -8.7730 C.ar   55  TYR55       0.1957
     21  OH        27.3980   19.5370   -9.4240 O.3    55  TYR55      -0.2866
     22  N         35.9400   18.1430   -0.7070 N.3   118  LYS118     -0.1245
     23  CA        35.2860   17.1110   -1.4850 C.3   118  LYS118      0.1561
     24  C         36.2990   16.3420   -2.2960 C.2   118  LYS118      0.2260
     25  O         36.9890   16.9230   -3.1630 O.2   118  LYS118     -0.2867
     26  CB        34.1930   17.7080   -2.3530 C.3   118  LYS118      0.0271
     27  CG        33.3450   16.7540   -3.1060 C.3   118  LYS118      0.0035
     28  CD        32.3090   17.4450   -3.9580 C.3   118  LYS118      0.0206
     29  CE        31.2500   16.5920   -4.5330 C.3   118  LYS118      0.1093
     30  NZ        30.3110   17.3450   -5.4050 N.3   118  LYS118     -0.1314
     31  N         31.8340   15.4270   -9.0450 N.3   122  TYR122     -0.1241
     32  CA        30.8100   14.8670   -9.9140 C.3   122  TYR122      0.1605
     33  C         30.7500   15.5420  -11.2610 C.2   122  TYR122      0.2264
     34  O         30.3580   16.7070  -11.3400 O.2   122  TYR122     -0.2867
     35  CB        29.3850   14.9860   -9.2960 C.3   122  TYR122      0.0534
     36  CG        28.3490   14.3800  -10.1260 C.ar  122  TYR122     -0.0201
     37  CD1       28.1270   13.0360  -10.0980 C.ar  122  TYR122     -0.0009
     38  CD2       27.6080   15.1540  -11.0120 C.ar  122  TYR122     -0.0009
     39  CE1       27.1710   12.4150  -10.8870 C.ar  122  TYR122      0.0417
     40  CE2       26.6900   14.5460  -11.8650 C.ar  122  TYR122      0.0417
     41  CZ        26.4890   13.2460  -11.7550 C.ar  122  TYR122      0.1957
     42  OH        25.5320   12.6440  -12.6220 O.3   122  TYR122     -0.2866
     43  N         32.0070   20.1040  -12.5280 N.3   126  GLU126     -0.1245
     44  CA        32.7580   20.2160  -11.2930 C.3   126  GLU126      0.1567
     45  C         34.2550   20.0650  -11.4990 C.2   126  GLU126      0.2260
     46  O         35.0460   20.7140  -10.8890 O.2   126  GLU126     -0.2867
     47  CB        32.2600   19.2040  -10.2410 C.3   126  GLU126      0.0388
     48  CG        30.8940   19.5360   -9.6130 C.3   126  GLU126      0.1160
     49  CD        30.5680   18.6320   -8.4540 C.2   126  GLU126      0.3649
     50  OE1       29.3310   18.6090   -8.0580 O.co2 126  GLU126     -0.2457
     51  OE2       31.4420   17.9960   -7.8850 O.co2 126  GLU126     -0.2457
     52  N         28.2560   15.5170   -0.8390 N.3   152  ALA152     -0.1231
     53  CA        27.5040   15.1430   -2.0140 C.3   152  ALA152      0.1694
     54  C         27.9990   13.8160   -2.5500 C.2   152  ALA152      0.2592
     55  O         27.8590   12.7690   -1.8720 O.2   152  ALA152     -0.2718
     56  CB        27.5150   16.2950   -2.9900 C.3   152  ALA152      0.0304
     57  N         28.5120   13.7800   -3.7780 N.am  153  TYR153     -0.1976
     58  CA        28.9240   12.5350   -4.4670 C.3   153  TYR153      0.1639
     59  C         29.7800   11.6660   -3.6090 C.2   153  TYR153      0.2290
     60  O         29.7310   10.4330   -3.7450 O.2   153  TYR153     -0.2864
     61  CB        29.6640   12.9360   -5.7570 C.3   153  TYR153      0.0560
     62  CG        29.8730   11.8540   -6.8160 C.ar  153  TYR153     -0.0198
     63  CD1       28.9180   10.9210   -7.1440 C.ar  153  TYR153     -0.0009
     64  CD2       31.0120   11.8370   -7.5630 C.ar  153  TYR153     -0.0009
     65  CE1       29.1230   10.0190   -8.1810 C.ar  153  TYR153      0.0417
     66  CE2       31.2610   10.9490   -8.5920 C.ar  153  TYR153      0.0417
     67  CZ        30.2690   10.0390   -8.8740 C.ar  153  TYR153      0.1957
     68  OH        30.4610    9.1050   -9.8960 O.3   153  TYR153     -0.2866
     69  N         28.2640    8.5160   -2.0730 N.3   156  GLU156     -0.1245
     70  CA        27.8940    7.4110   -2.9580 C.3   156  GLU156      0.1567
     71  C         28.9660    6.3880   -3.0780 C.2   156  GLU156      0.2260
     72  O         28.6750    5.2970   -3.6310 O.2   156  GLU156     -0.2867
     73  CB        27.4630    7.9510   -4.3240 C.3   156  GLU156      0.0388
     74  CG        26.3080    8.9440   -4.2440 C.3   156  GLU156      0.1160
     75  CD        25.9440    9.5720   -5.5270 C.2   156  GLU156      0.3649
     76  OE1       25.9250    8.9430   -6.6000 O.co2 156  GLU156     -0.2457
     77  OE2       25.6920   10.8310   -5.4890 O.co2 156  GLU156     -0.2457
     78  N         24.6220   18.3450    0.1900 N.3   176  THR176     -0.1203
     79  CA        24.5230   17.8520   -1.1730 C.3   176  THR176      0.1994
     80  C         23.8160   18.7900   -2.1200 C.2   176  THR176      0.2618
     81  O         23.3160   19.8630   -1.6840 O.2   176  THR176     -0.2717
     82  CB        23.9060   16.4420   -1.1590 C.3   176  THR176      0.1784
     83  OG1       24.2580   15.8400   -2.4100 O.3   176  THR176     -0.2211
     84  CG2       22.4360   16.4500   -0.9290 C.3   176  THR176      0.0376
     85  N         23.7820   18.3870   -3.3800 N.am  177  ALA177     -0.1965
     86  CA        23.1180   19.1210   -4.4560 C.3   177  ALA177      0.1728
     87  C         22.7750   18.1410   -5.5300 C.2   177  ALA177      0.2616
     88  O         23.6020   17.8960   -6.4090 O.2   177  ALA177     -0.2715
     89  CB        24.0030   20.2670   -5.0020 C.3   177  ALA177      0.0334
     90  N         21.6460   17.5380   -5.4050 N.am  178  LEU178     -0.1963
     91  CA        21.2010   16.4060   -6.2420 C.3   178  LEU178      0.1728
     92  C         19.9110   16.7180   -6.9550 C.2   178  LEU178      0.2616
     93  O         18.8700   16.9680   -6.3440 O.2   178  LEU178     -0.2715
     94  CB        21.0380   15.1710   -5.3630 C.3   178  LEU178      0.0311
     95  CG        20.7190   13.8740   -6.1220 C.3   178  LEU178      0.0022
     96  CD1       21.8040   13.5790   -7.1970 C.3   178  LEU178      0.0001
     97  CD2       20.4880   12.8100   -5.1080 C.3   178  LEU178      0.0001
     98  N         20.0210   16.7250   -8.3040 N.am  179  ALA179     -0.1977
     99  CA        18.9120   16.9380   -9.1890 C.3   179  ALA179      0.1597
    100  C         18.7380   15.7500  -10.1190 C.2   179  ALA179      0.2287
    101  O         19.5560   14.8140  -10.1650 O.2   179  ALA179     -0.2864
    102  CB        19.1530   18.1750  -10.0280 C.3   179  ALA179      0.0319
    103  N         17.0910   11.5020   -8.8910 N.3   182  GLU182     -0.1245
    104  CA        18.0040   10.4460   -8.6000 C.3   182  GLU182      0.1567
    105  C         17.6230    9.8100   -7.2760 C.2   182  GLU182      0.2260
    106  O         18.3600    9.8950   -6.2600 O.2   182  GLU182     -0.2867
    107  CB        19.4380   10.9700   -8.5920 C.3   182  GLU182      0.0388
    108  CG        19.9560   11.4260   -9.9350 C.3   182  GLU182      0.1160
    109  CD        20.2220   10.2700  -10.9710 C.2   182  GLU182      0.3649
    110  OE1       20.6110   10.6440  -12.1220 O.co2 182  GLU182     -0.2457
    111  OE2       19.9230    9.0810  -10.6920 O.co2 182  GLU182     -0.2457
    112  N         19.9850    7.5240   -4.6760 N.3   185  VAL185     -0.1245
    113  CA        20.9710    7.9340   -3.7080 C.3   185  VAL185      0.1561
    114  C         20.3870    7.9170   -2.3440 C.2   185  VAL185      0.2260
    115  O         20.8640    7.1540   -1.4960 O.2   185  VAL185     -0.2867
    116  CB        21.6370    9.2550   -4.1550 C.3   185  VAL185      0.0252
    117  CG1       22.5330    9.7110   -3.0070 C.3   185  VAL185      0.0019
    118  CG2       22.4350    9.1400   -5.4210 C.3   185  VAL185      0.0019
@<TRIPOS>BOND
     1    42    41    1
     2    43    44    1
     3   110   109   ar
     4    40    41   ar
     5    40    38   ar
     6    41    39   ar
     7    45    44    1
     8    45    46    2
     9    34    33    2
    10    44    47    1
    11    33    32    1
    12    38    36   ar
    13   109   111   ar
    14   109   108    1
    15    39    37   ar
    16    47    48    1
    17   101   100    2
    18    36    37   ar
    19    36    35    1
    20   100    99    1
    21   102    99    1
    22   108   107    1
    23    32    35    1
    24    32    31    1
    25    68    67    1
    26    48    49    1
    27    13    12    2
    28    19    17   ar
    29    19    20   ar
    30    21    20    1
    31    99    98    1
    32   103   104    1
    33    17    15   ar
    34    67    66   ar
    35    67    65   ar
    36    20    18   ar
    37    12    11    1
    38   104   107    1
    39   104   105    1
    40    66    64   ar
    41    49    50   ar
    42    49    51   ar
    43    98    92   am
    44    65    63   ar
    45    15    14    1
    46    15    16   ar
    47    64    62   ar
    48    18    16   ar
    49   105   106    2
    50    11    14    1
    51    11    10    1
    52    96    95    1
    53    63    62   ar
    54    92    93    2
    55    92    91    1
    56    62    61    1
    57    76    75   ar
    58    88    87    2
    59    91    90    1
    60    91    94    1
    61    95    94    1
    62    95    97    1
    63    61    58    1
    64    87    90   am
    65    87    86    1
    66    75    77   ar
    67    75    74    1
    68   118   116    1
    69    30    29    1
    70    89    86    1
    71   112   113    1
    72    29    28    1
    73    58    57    1
    74    58    59    1
    75    86    85    1
    76    73    74    1
    77    73    70    1
    78     9     7   ar
    79   116   113    1
    80   116   117    1
    81     8     7   ar
    82    28    27    1
    83    57    54   am
    84    60    59    2
    85     7     6    1
    86   113   114    1
    87    72    71    2
    88    85    80   am
    89    25    24    2
    90    27    26    1
    91    71    70    1
    92    56    53    1
    93    70    69    1
    94     6     5    1
    95     4     3    2
    96    54    53    1
    97    54    55    2
    98    83    82    1
    99    26    23    1
   100   114   115    2
   101    24    23    1
   102    80    81    2
   103    80    79    1
   104    53    52    1
   105     5     2    1
   106     3     2    1
   107    23    22    1
   108    79    82    1
   109    79    78    1
   110    82    84    1
   111     2     1    1
