@<TRIPOS>MOLECULE
tmp/5nybA00.pdb
 130 123 0 0 0
SMALL
GASTEIGER

@<TRIPOS>ATOM
      1  N         25.4450   21.7100   -0.5240 N.3    49  GLU49      -0.1245
      2  CA        26.6900   21.9560   -1.2870 C.3    49  GLU49       0.1567
      3  C         26.6530   23.2420   -2.0810 C.2    49  GLU49       0.2260
      4  O         25.6950   23.4950   -2.8450 O.2    49  GLU49      -0.2867
      5  CB        26.9620   20.8040   -2.2690 C.3    49  GLU49       0.0388
      6  CG        28.2410   20.9660   -3.0360 C.3    49  GLU49       0.1160
      7  CD        28.5000   19.8260   -3.9870 C.2    49  GLU49       0.3649
      8  OE1       29.6790   19.5150   -4.2420 O.co2  49  GLU49      -0.2457
      9  OE2       27.4770   19.2150   -4.4340 O.co2  49  GLU49      -0.2457
     10  N         24.6610   26.0680   -6.8670 N.3    55  TYR55      -0.1241
     11  CA        25.3620   24.9460   -7.5300 C.3    55  TYR55       0.1605
     12  C         25.5340   25.2290   -9.0230 C.2    55  TYR55       0.2264
     13  O         24.7560   24.7620   -9.8630 O.2    55  TYR55      -0.2867
     14  CB        24.6960   23.5960   -7.2700 C.3    55  TYR55       0.0534
     15  CG        25.5300   22.4530   -7.8610 C.ar   55  TYR55      -0.0201
     16  CD1       26.6600   21.9360   -7.1850 C.ar   55  TYR55      -0.0009
     17  CD2       25.1940   21.9020   -9.0890 C.ar   55  TYR55      -0.0009
     18  CE1       27.4200   20.9010   -7.7490 C.ar   55  TYR55       0.0417
     19  CE2       25.9820   20.9040   -9.6840 C.ar   55  TYR55       0.0417
     20  CZ        27.0610   20.4020   -8.9990 C.ar   55  TYR55       0.1957
     21  OH        27.7510   19.4030   -9.5970 O.3    55  TYR55      -0.2866
     22  N         36.2590   18.2390   -0.9050 N.3   119  LYS119     -0.1245
     23  CA        35.6270   17.1530   -1.6330 C.3   119  LYS119      0.1561
     24  C         36.6570   16.3650   -2.5270 C.2   119  LYS119      0.2260
     25  O         37.3550   16.9460   -3.4030 O.2   119  LYS119     -0.2867
     26  CB        34.4850   17.7670   -2.4880 C.3   119  LYS119      0.0271
     27  CG        33.6370   16.7740   -3.2760 C.3   119  LYS119      0.0035
     28  CD        32.5350   17.4880   -4.0750 C.3   119  LYS119      0.0206
     29  CE        31.5170   16.5090   -4.6520 C.3   119  LYS119      0.1093
     30  NZ        30.6290   17.2230   -5.5520 N.3   119  LYS119     -0.1314
     31  N         32.2000   15.2830   -9.3010 N.3   123  TYR123     -0.1241
     32  CA        31.1720   14.6430  -10.1210 C.3   123  TYR123      0.1605
     33  C         31.0600   15.3550  -11.4770 C.2   123  TYR123      0.2264
     34  O         30.6070   16.4960  -11.5400 O.2   123  TYR123     -0.2867
     35  CB        29.8060   14.7370   -9.4420 C.3   123  TYR123      0.0534
     36  CG        28.7420   14.1390  -10.3280 C.ar  123  TYR123     -0.0201
     37  CD1       28.6400   12.7840  -10.4460 C.ar  123  TYR123     -0.0009
     38  CD2       27.9000   14.9650  -11.1330 C.ar  123  TYR123     -0.0009
     39  CE1       27.7030   12.2110  -11.2630 C.ar  123  TYR123      0.0417
     40  CE2       26.9750   14.4010  -11.9940 C.ar  123  TYR123      0.0417
     41  CZ        26.9060   13.0490  -12.0580 C.ar  123  TYR123      0.1957
     42  OH        25.9970   12.4810  -12.8770 O.3   123  TYR123     -0.2866
     43  N         32.1850   20.0050  -12.7550 N.3   127  GLU127     -0.1245
     44  CA        32.9410   20.0870  -11.5240 C.3   127  GLU127      0.1567
     45  C         34.4090   19.8970  -11.6720 C.2   127  GLU127      0.2260
     46  O         35.2160   20.6480  -11.1110 O.2   127  GLU127     -0.2867
     47  CB        32.4350   19.0660  -10.5100 C.3   127  GLU127      0.0388
     48  CG        31.1460   19.4650   -9.8210 C.3   127  GLU127      0.1160
     49  CD        30.8440   18.6000   -8.5760 C.2   127  GLU127      0.3649
     50  OE1       29.6740   18.5730   -8.1760 O.co2 127  GLU127     -0.2457
     51  OE2       31.7520   17.9090   -8.0550 O.co2 127  GLU127     -0.2457
     52  N         28.5460   15.5300   -0.9590 N.3   153  ALA153     -0.1231
     53  CA        27.8000   15.1070   -2.1330 C.3   153  ALA153      0.1694
     54  C         28.2790   13.7520   -2.6960 C.2   153  ALA153      0.2592
     55  O         28.1740   12.7520   -1.9610 O.2   153  ALA153     -0.2718
     56  CB        27.7820   16.2180   -3.1840 C.3   153  ALA153      0.0304
     57  N         28.8070   13.7210   -3.9400 N.am  154  TYR154     -0.1976
     58  CA        29.2060   12.4940   -4.5920 C.3   154  TYR154      0.1639
     59  C         30.1010   11.5760   -3.7120 C.2   154  TYR154      0.2290
     60  O         30.0470   10.3200   -3.8050 O.2   154  TYR154     -0.2864
     61  CB        29.9360   12.8590   -5.8490 C.3   154  TYR154      0.0560
     62  CG        30.2180   11.7780   -6.8690 C.ar  154  TYR154     -0.0198
     63  CD1       29.2570   10.8210   -7.1990 C.ar  154  TYR154     -0.0009
     64  CD2       31.4100   11.7990   -7.6140 C.ar  154  TYR154     -0.0009
     65  CE1       29.4960    9.8690   -8.2050 C.ar  154  TYR154      0.0417
     66  CE2       31.6300   10.8400   -8.6140 C.ar  154  TYR154      0.0417
     67  CZ        30.6860    9.9040   -8.9140 C.ar  154  TYR154      0.1957
     68  OH        30.9370    9.0020   -9.9500 O.3   154  TYR154     -0.2866
     69  N         28.6910    8.3780   -2.1080 N.3   157  GLU157     -0.1245
     70  CA        28.3800    7.3120   -3.0150 C.3   157  GLU157      0.1567
     71  C         29.4960    6.2850   -3.1260 C.2   157  GLU157      0.2260
     72  O         29.2560    5.1640   -3.6440 O.2   157  GLU157     -0.2867
     73  CB        27.9100    7.8540   -4.3460 C.3   157  GLU157      0.0388
     74  CG        26.6400    8.6690   -4.1770 C.3   157  GLU157      0.1160
     75  CD        26.2270    9.3720   -5.4190 C.2   157  GLU157      0.3649
     76  OE1       26.2700    8.7640   -6.5010 O.co2 157  GLU157     -0.2457
     77  OE2       25.9480   10.5750   -5.3080 O.co2 157  GLU157     -0.2457
     78  N         24.9730   18.3530    0.0510 N.3   177  THR177     -0.1203
     79  CA        24.8910   17.7920   -1.3080 C.3   177  THR177      0.1994
     80  C         24.0840   18.6840   -2.3400 C.2   177  THR177      0.2618
     81  O         23.5950   19.7200   -1.9440 O.2   177  THR177     -0.2717
     82  CB        24.2570   16.3440   -1.2990 C.3   177  THR177      0.1784
     83  OG1       24.4400   15.6680   -2.5420 O.3   177  THR177     -0.2211
     84  CG2       22.7570   16.4110   -0.9400 C.3   177  THR177      0.0376
     85  N         24.0920   18.3270   -3.6370 N.am  178  ALA178     -0.1965
     86  CA        23.3330   18.9950   -4.6940 C.3   178  ALA178      0.1728
     87  C         22.9620   17.9280   -5.7210 C.2   178  ALA178      0.2616
     88  O         23.7200   17.6660   -6.5950 O.2   178  ALA178     -0.2715
     89  CB        24.1660   20.1000   -5.3130 C.3   178  ALA178      0.0334
     90  N         21.9140   17.2400   -5.3970 N.am  179  LEU179     -0.1963
     91  CA        21.4600   16.0860   -6.1980 C.3   179  LEU179      0.1728
     92  C         20.2040   16.3830   -7.0050 C.2   179  LEU179      0.2616
     93  O         19.1180   16.6770   -6.4600 O.2   179  LEU179     -0.2715
     94  CB        21.2130   14.9130   -5.2730 C.3   179  LEU179      0.0311
     95  CG        20.8830   13.5660   -5.9670 C.3   179  LEU179      0.0022
     96  CD1       22.0770   13.0840   -6.7570 C.3   179  LEU179      0.0001
     97  CD2       20.5010   12.5290   -4.9310 C.3   179  LEU179      0.0001
     98  N         20.3680   16.3240   -8.3220 N.am  180  ALA180     -0.1977
     99  CA        19.3200   16.5590   -9.2910 C.3   180  ALA180      0.1597
    100  C         19.1140   15.3360  -10.1310 C.2   180  ALA180      0.2287
    101  O         19.8730   14.3650  -10.0480 O.2   180  ALA180     -0.2864
    102  CB        19.6990   17.7110  -10.1570 C.3   180  ALA180      0.0319
    103  N         17.5310   11.1660   -8.9500 N.3   183  GLU183     -0.1245
    104  CA        18.4180   10.0500   -8.5660 C.3   183  GLU183      0.1567
    105  C         18.0070    9.4620   -7.2320 C.2   183  GLU183      0.2260
    106  O         18.7540    9.5470   -6.2420 O.2   183  GLU183     -0.2867
    107  CB        19.8760   10.4820   -8.4580 C.3   183  GLU183      0.0388
    108  CG        20.4750   11.1140   -9.7070 C.3   183  GLU183      0.1160
    109  CD        20.6020   10.1640  -10.8690 C.2   183  GLU183      0.3649
    110  OE1       20.8080   10.6850  -11.9610 O.co2 183  GLU183     -0.2457
    111  OE2       20.5070    8.9320  -10.7080 O.co2 183  GLU183     -0.2457
    112  N         20.2360    7.1550   -4.6900 N.3   186  VAL186     -0.1245
    113  CA        21.2740    7.6820   -3.8200 C.3   186  VAL186      0.1561
    114  C         20.6940    7.6870   -2.3490 C.2   186  VAL186      0.2260
    115  O         21.1550    6.9640   -1.4860 O.2   186  VAL186     -0.2867
    116  CB        21.8670    9.0760   -4.2390 C.3   186  VAL186      0.0252
    117  CG1       22.6710    9.6830   -3.1060 C.3   186  VAL186      0.0019
    118  CG2       22.6860    9.0190   -5.5350 C.3   186  VAL186      0.0019
    119  N         22.1330   14.1540    5.2560 N.3   204  TYR204     -0.1241
    120  CA        22.2690   14.4690    3.8280 C.3   204  TYR204      0.1605
    121  C         21.3460   15.7030    3.4970 C.2   204  TYR204      0.2264
    122  O         20.1690   15.4990    3.5110 O.2   204  TYR204     -0.2867
    123  CB        21.8460   13.2100    2.9840 C.3   204  TYR204      0.0534
    124  CG        22.2130   13.1980    1.4900 C.ar  204  TYR204     -0.0201
    125  CD1       23.5290   13.1640    1.0820 C.ar  204  TYR204     -0.0009
    126  CD2       21.2440   13.1330    0.4920 C.ar  204  TYR204     -0.0009
    127  CE1       23.8850   13.1150   -0.2340 C.ar  204  TYR204      0.0417
    128  CE2       21.5670   13.0630   -0.8300 C.ar  204  TYR204      0.0417
    129  CZ        22.9080   13.0520   -1.2200 C.ar  204  TYR204      0.1957
    130  OH        23.2660   13.0180   -2.5520 O.3   204  TYR204     -0.2866
@<TRIPOS>BOND
     1    42    41    1
     2    43    44    1
     3    41    40   ar
     4    41    39   ar
     5    40    38   ar
     6   110   109   ar
     7    45    44    1
     8    45    46    2
     9    34    33    2
    10    44    47    1
    11    33    32    1
    12    39    37   ar
    13    38    36   ar
    14   109   111   ar
    15   109   108    1
    16    47    48    1
    17    37    36   ar
    18    36    35    1
    19   102    99    1
    20   100   101    2
    21   100    99    1
    22    32    35    1
    23    32    31    1
    24    68    67    1
    25    13    12    2
    26    48    49    1
    27   108   107    1
    28    19    17   ar
    29    19    20   ar
    30    21    20    1
    31    99    98    1
    32    17    15   ar
    33    12    11    1
    34    20    18   ar
    35   103   104    1
    36    67    66   ar
    37    67    65   ar
    38    66    64   ar
    39    49    50   ar
    40    49    51   ar
    41   104   107    1
    42   104   105    1
    43    98    92   am
    44    65    63   ar
    45    15    14    1
    46    15    16   ar
    47    18    16   ar
    48    64    62   ar
    49    11    14    1
    50    11    10    1
    51   105   106    2
    52    63    62   ar
    53    92    93    2
    54    92    91    1
    55    62    61    1
    56    96    95    1
    57    88    87    2
    58    76    75   ar
    59    91    90    1
    60    91    94    1
    61    95    94    1
    62    95    97    1
    63    61    58    1
    64    87    90   am
    65    87    86    1
    66    30    29    1
    67   118   116    1
    68    75    77   ar
    69    75    74    1
    70    89    86    1
    71    86    85    1
    72   112   113    1
    73    29    28    1
    74    58    57    1
    75    58    59    1
    76     9     7   ar
    77    73    74    1
    78    73    70    1
    79     8     7   ar
    80   116   113    1
    81   116   117    1
    82    28    27    1
    83     7     6    1
    84    57    54   am
    85   113   114    1
    86    60    59    2
    87    72    71    2
    88    85    80   am
    89    25    24    2
    90    27    26    1
    91    56    53    1
    92    71    70    1
    93     6     5    1
    94    70    69    1
    95     4     3    2
    96    54    53    1
    97    54    55    2
    98   130   129    1
    99    83    82    1
   100    24    23    1
   101    26    23    1
   102   114   115    2
   103    80    81    2
   104    80    79    1
   105     5     2    1
   106    53    52    1
   107     3     2    1
   108    23    22    1
   109    79    82    1
   110    79    78    1
   111    82    84    1
   112     2     1    1
   113   129   128   ar
   114   129   127   ar
   115   128   126   ar
   116   127   125   ar
   117   126   124   ar
   118   125   124   ar
   119   124   123    1
   120   123   120    1
   121   121   122    2
   122   121   120    1
   123   120   119    1
