@<TRIPOS>MOLECULE
tmp/5nyhA00.pdb
 178 166 0 0 0
SMALL
GASTEIGER

@<TRIPOS>ATOM
      1  N         -0.4440   32.3910   32.4490 N.3    33  LEU33      -0.1245
      2  CA        -0.9350   31.8440   31.2020 C.3    33  LEU33       0.1561
      3  C         -2.2510   32.4880   30.7570 C.2    33  LEU33       0.2260
      4  O         -2.3870   32.7910   29.6200 O.2    33  LEU33      -0.2867
      5  CB        -1.0520   30.3300   31.2780 C.3    33  LEU33       0.0270
      6  CG         0.2860   29.6370   31.5160 C.3    33  LEU33       0.0019
      7  CD1        0.0900   28.1600   31.7490 C.3    33  LEU33       0.0001
      8  CD2        1.2150   29.8690   30.3490 C.3    33  LEU33       0.0001
      9  N         -1.4730   35.8620   29.3360 N.3    36  ASN36      -0.1225
     10  CA        -0.9150   35.7270   27.9920 C.3    36  ASN36       0.1785
     11  C         -2.0350   35.5330   26.9710 C.2    36  ASN36       0.2597
     12  O         -2.0530   36.2190   25.9470 O.2    36  ASN36      -0.2718
     13  CB         0.1190   34.6060   27.9220 C.3    36  ASN36       0.1169
     14  CG         1.4200   34.9840   28.6240 C.2    36  ASN36       0.2627
     15  OD1        1.5270   36.0440   29.2440 O.2    36  ASN36      -0.2716
     16  ND2        2.4560   34.1530   28.5100 N.am   36  ASN36      -0.0877
     17  N         -2.9980   34.6440   27.2930 N.am   37  SER37      -0.1952
     18  CA        -4.1490   34.3670   26.4390 C.3    37  SER37       0.1924
     19  C         -4.9510   35.6930   26.2210 C.2    37  SER37       0.2314
     20  O         -5.3130   36.0250   25.0860 O.2    37  SER37      -0.2863
     21  CB        -5.0270   33.2870   27.0780 C.3    37  SER37       0.2116
     22  OG        -4.4400   31.9860   27.0440 O.3    37  SER37      -0.2180
     23  N         -3.8340   38.7640   26.3490 N.3    39  ASP39      -0.1225
     24  CA        -3.0470   39.6010   25.4200 C.3    39  ASP39       0.1805
     25  C         -3.2740   39.1910   23.9500 C.2    39  ASP39       0.2597
     26  O         -3.5470   40.0520   23.1080 O.2    39  ASP39      -0.2718
     27  CB        -1.5650   39.5430   25.7600 C.3    39  ASP39       0.1424
     28  CG        -1.2370   40.2500   27.0700 C.2    39  ASP39       0.3668
     29  OD1       -2.1560   40.9040   27.6530 O.co2  39  ASP39      -0.2456
     30  OD2       -0.1020   40.0930   27.5510 O.co2  39  ASP39      -0.2456
     31  N         -3.2420   37.8630   23.6650 N.am   40  ALA40      -0.1979
     32  CA        -3.4690   37.3450   22.3050 C.3    40  ALA40       0.1597
     33  C         -4.8730   37.6990   21.8180 C.2    40  ALA40       0.2287
     34  O         -5.0560   38.0480   20.6440 O.2    40  ALA40      -0.2864
     35  CB        -3.2830   35.8390   22.2680 C.3    40  ALA40       0.0319
     36  N         -5.1440   41.3880   20.9330 N.3    43  LYS43      -0.1245
     37  CA        -4.5130   41.6410   19.6340 C.3    43  LYS43       0.1561
     38  C         -5.4360   41.3310   18.4520 C.2    43  LYS43       0.2260
     39  O         -5.6120   42.1860   17.5770 O.2    43  LYS43      -0.2867
     40  CB        -3.1680   40.9260   19.5100 C.3    43  LYS43       0.0271
     41  CG        -2.3150   41.5280   18.4070 C.3    43  LYS43       0.0035
     42  CD        -0.8830   41.0520   18.4900 C.3    43  LYS43       0.0206
     43  CE        -0.0950   41.5470   17.3140 C.3    43  LYS43       0.1093
     44  NZ         1.3500   41.3280   17.5270 N.3    43  LYS43      -0.1314
     45  N         -4.8640   24.9750   28.4940 N.3    76  ILE76      -0.1245
     46  CA        -5.4010   26.3490   28.4440 C.3    76  ILE76       0.1561
     47  C         -5.5370   26.6760   26.9610 C.2    76  ILE76       0.2260
     48  O         -4.5210   26.7520   26.2530 O.2    76  ILE76      -0.2867
     49  CB        -4.4990   27.3940   29.1800 C.3    76  ILE76       0.0252
     50  CG1       -4.3070   27.0480   30.6890 C.3    76  ILE76       0.0019
     51  CG2       -5.0990   28.8160   29.0280 C.3    76  ILE76       0.0019
     52  CD1       -3.0700   26.2380   31.0230 C.3    76  ILE76       0.0001
     53  N         -7.0800   29.2560   23.9380 N.3    78  ASP78      -0.1239
     54  CA        -7.6440   30.5640   23.6220 C.3    78  ASP78       0.1674
     55  C         -7.8260   30.7050   22.1030 C.2    78  ASP78       0.2266
     56  O         -7.1280   30.0460   21.3120 O.2    78  ASP78      -0.2867
     57  CB        -6.8380   31.7220   24.2290 C.3    78  ASP78       0.1410
     58  CG        -5.4910   31.9030   23.5790 C.2    78  ASP78       0.3668
     59  OD1       -5.4570   32.2530   22.3830 O.co2  78  ASP78      -0.2456
     60  OD2       -4.4690   31.7370   24.2780 O.co2  78  ASP78      -0.2456
     61  N         -4.8440   35.7520   18.6260 N.3    81  ILE81      -0.1231
     62  CA        -4.1730   35.9580   17.3490 C.3    81  ILE81       0.1692
     63  C         -3.2960   34.7570   16.9210 C.2    81  ILE81       0.2593
     64  O         -3.0300   34.6180   15.7280 O.2    81  ILE81      -0.2718
     65  CB        -3.3870   37.2910   17.3400 C.3    81  ILE81       0.0266
     66  CG1       -3.0180   37.7180   15.8930 C.3    81  ILE81       0.0019
     67  CG2       -2.1580   37.2110   18.2730 C.3    81  ILE81       0.0020
     68  CD1       -2.6130   39.1330   15.7210 C.3    81  ILE81       0.0001
     69  N         -2.7890   33.9830   17.8930 N.am   82  GLY82      -0.1942
     70  CA        -1.9300   32.8340   17.6200 C.3    82  GLY82       0.2014
     71  C         -0.5130   33.2760   17.2930 C.2    82  GLY82       0.2638
     72  O         -0.2120   34.4850   17.2700 O.2    82  GLY82      -0.2714
     73  N          0.3780   32.3000   17.0550 N.am   83  MET83      -0.1976
     74  CA         1.7690   32.6070   16.7960 C.3    83  MET83       0.1605
     75  C          2.2740   32.0100   15.4790 C.2    83  MET83       0.2287
     76  O          1.9110   30.8850   15.0980 O.2    83  MET83      -0.2864
     77  CB         2.6400   32.0980   17.9580 C.3    83  MET83       0.0413
     78  CG         2.3540   32.7750   19.3020 C.3    83  MET83       0.0598
     79  SD         3.2020   31.9530   20.6760 S.3    83  MET83      -0.1393
     80  CE         2.1580   30.5230   20.8650 C.3    83  MET83       0.0692
     81  N          7.6060   33.6730   15.4270 N.3    87  ASP87      -0.1225
     82  CA         7.3260   33.9360   16.8480 C.3    87  ASP87       0.1805
     83  C          7.9340   32.8440   17.7350 C.2    87  ASP87       0.2597
     84  O          8.6930   33.1360   18.6560 O.2    87  ASP87      -0.2718
     85  CB         5.8150   33.9580   17.1070 C.3    87  ASP87       0.1424
     86  CG         5.1150   35.2320   16.7050 C.2    87  ASP87       0.3668
     87  OD1        5.8030   36.2720   16.5860 O.co2  87  ASP87      -0.2456
     88  OD2        3.8860   35.1780   16.4710 O.co2  87  ASP87      -0.2456
     89  N          7.6100   31.5890   17.4170 N.am   88  LEU88      -0.1979
     90  CA         8.0460   30.3950   18.1350 C.3    88  LEU88       0.1596
     91  C          9.5440   30.2080   18.1610 C.2    88  LEU88       0.2287
     92  O         10.1010   29.8750   19.2070 O.2    88  LEU88      -0.2864
     93  CB         7.3940   29.1490   17.5340 C.3    88  LEU88       0.0297
     94  CG         5.8700   29.0540   17.6570 C.3    88  LEU88       0.0022
     95  CD1        5.3770   27.8010   16.9440 C.3    88  LEU88       0.0001
     96  CD2        5.4270   29.0170   19.1470 C.3    88  LEU88       0.0001
     97  N          9.6840   35.8490   19.9250 N.3    92  LEU92      -0.1245
     98  CA         9.2960   35.8510   21.3270 C.3    92  LEU92       0.1561
     99  C         10.5020   35.7160   22.2550 C.2    92  LEU92       0.2260
    100  O         10.5610   36.4430   23.2400 O.2    92  LEU92      -0.2867
    101  CB         8.2010   34.8280   21.6160 C.3    92  LEU92       0.0270
    102  CG         6.8540   35.0850   20.8830 C.3    92  LEU92       0.0019
    103  CD1        5.7870   34.1010   21.3570 C.3    92  LEU92       0.0001
    104  CD2        6.3460   36.5320   21.0860 C.3    92  LEU92       0.0001
    105  N         12.4820   39.1980   22.2240 N.3    95  ILE95      -0.1245
    106  CA        11.7740   40.1710   23.0440 C.3    95  ILE95       0.1561
    107  C         11.9580   39.8770   24.5420 C.2    95  ILE95       0.2260
    108  O         12.2050   40.8080   25.3100 O.2    95  ILE95      -0.2867
    109  CB        10.2850   40.2680   22.6010 C.3    95  ILE95       0.0252
    110  CG1       10.1290   40.8800   21.1750 C.3    95  ILE95       0.0019
    111  CG2        9.4080   40.9840   23.6200 C.3    95  ILE95       0.0019
    112  CD1       10.8860   42.1840   20.8840 C.3    95  ILE95       0.0001
    113  N          7.4240   40.3750   31.6650 N.3   120  GLY120     -0.1225
    114  CA         6.9360   39.8100   30.4090 C.3   120  GLY120      0.1811
    115  C          7.3730   38.3770   30.1120 C.2   120  GLY120      0.2280
    116  O          7.3380   37.9450   28.9560 O.2   120  GLY120     -0.2866
    117  N          6.2270   35.6310   32.1370 N.3   122  GLY122     -0.1210
    118  CA         5.3090   34.8160   32.9300 C.3   122  GLY122      0.1956
    119  C          5.1320   33.3860   32.4400 C.2   122  GLY122      0.2612
    120  O          4.9480   32.4700   33.2540 O.2   122  GLY122     -0.2717
    121  N          5.2110   33.1800   31.0940 N.am  123  PHE123     -0.1962
    122  CA         5.0580   31.8530   30.4850 C.3   123  PHE123      0.1771
    123  C          5.9060   30.7980   31.2090 C.2   123  PHE123      0.2619
    124  O          5.4160   29.7140   31.5060 O.2   123  PHE123     -0.2715
    125  CB         5.4430   31.8680   28.9830 C.3   123  PHE123      0.0574
    126  CG         5.5760   30.4720   28.3950 C.ar  123  PHE123     -0.0200
    127  CD1        4.4430   29.6950   28.1350 C.ar  123  PHE123     -0.0042
    128  CD2        6.8330   29.9090   28.1630 C.ar  123  PHE123     -0.0042
    129  CE1        4.5710   28.3890   27.6440 C.ar  123  PHE123     -0.0003
    130  CE2        6.9560   28.6060   27.6580 C.ar  123  PHE123     -0.0003
    131  CZ         5.8290   27.8470   27.4210 C.ar  123  PHE123     -0.0000
    132  N          7.1840   31.1340   31.4760 N.am  124  TYR124     -0.1974
    133  CA         8.1690   30.2040   32.0450 C.3   124  TYR124      0.1639
    134  C          7.8200   29.7050   33.4670 C.2   124  TYR124      0.2290
    135  O          8.3200   28.6440   33.8750 O.2   124  TYR124     -0.2864
    136  CB         9.5630   30.7970   31.9330 C.3   124  TYR124      0.0560
    137  CG         9.9090   30.9900   30.4680 C.ar  124  TYR124     -0.0198
    138  CD1       10.2560   29.9040   29.6650 C.ar  124  TYR124     -0.0009
    139  CD2        9.7510   32.2330   29.8510 C.ar  124  TYR124     -0.0009
    140  CE1       10.4770   30.0570   28.2930 C.ar  124  TYR124      0.0417
    141  CE2       10.0070   32.4050   28.4900 C.ar  124  TYR124      0.0417
    142  CZ        10.3610   31.3110   27.7110 C.ar  124  TYR124      0.1957
    143  OH        10.6160   31.4740   26.3680 O.3   124  TYR124     -0.2866
    144  N          2.7580   23.3540   23.0900 N.3   135  VAL135     -0.1245
    145  CA         1.9670   24.5160   22.6770 C.3   135  VAL135      0.1561
    146  C          1.5870   24.3240   21.2080 C.2   135  VAL135      0.2260
    147  O          2.4690   24.2120   20.3540 O.2   135  VAL135     -0.2867
    148  CB         2.7380   25.8490   22.8980 C.3   135  VAL135      0.0252
    149  CG1        1.9490   27.0530   22.3570 C.3   135  VAL135      0.0019
    150  CG2        3.1390   26.0420   24.3600 C.3   135  VAL135      0.0019
    151  N          4.9770   23.4720   19.3550 N.3   147  TRP147     -0.1241
    152  CA         6.1910   23.8660   20.0750 C.3   147  TRP147      0.1605
    153  C          6.1950   22.9680   21.3060 C.2   147  TRP147      0.2264
    154  O          5.1330   22.7290   21.9030 O.2   147  TRP147     -0.2867
    155  CB         6.0800   25.3370   20.5030 C.3   147  TRP147      0.0550
    156  CG         7.2080   25.8580   21.3480 C.ar  147  TRP147      0.0003
    157  CD1        8.2390   26.6470   20.9320 C.ar  147  TRP147      0.0946
    158  CD2        7.3530   25.7250   22.7730 C.ar  147  TRP147      0.0152
    159  NE1        9.0270   27.0010   22.0010 N.ar  147  TRP147     -0.2442
    160  CE2        8.5110   26.4450   23.1450 C.ar  147  TRP147      0.0810
    161  CE3        6.6200   25.0590   23.7740 C.ar  147  TRP147      0.0012
    162  CZ2        8.9590   26.5130   24.4710 C.ar  147  TRP147      0.0191
    163  CZ3        7.0660   25.1200   25.0910 C.ar  147  TRP147      0.0001
    164  CH2        8.2130   25.8520   25.4340 C.ar  147  TRP147      0.0015
    165  N         -4.1760   29.6380   20.3550 N.3   169  THR169     -0.1218
    166  CA        -3.0950   28.9130   21.0500 C.3   169  THR169      0.1862
    167  C         -3.6590   27.9900   22.1220 C.2   169  THR169      0.2287
    168  O         -4.5660   28.3830   22.8670 O.2   169  THR169     -0.2866
    169  CB        -2.1130   29.9470   21.6180 C.3   169  THR169      0.1770
    170  OG1       -1.4840   30.6200   20.5260 O.3   169  THR169     -0.2211
    171  CG2       -1.0390   29.3190   22.5510 C.3   169  THR169      0.0375
    172  N         -2.1640   25.6030   25.2280 N.3   171  VAL171     -0.1245
    173  CA        -1.0030   25.2850   26.0420 C.3   171  VAL171      0.1561
    174  C         -1.3660   24.0430   26.8630 C.2   171  VAL171      0.2260
    175  O         -2.2830   24.0620   27.6320 O.2   171  VAL171     -0.2867
    176  CB        -0.5960   26.4400   26.9740 C.3   171  VAL171      0.0252
    177  CG1        0.5640   26.0440   27.8650 C.3   171  VAL171      0.0019
    178  CG2       -0.2990   27.6960   26.1860 C.3   171  VAL171      0.0019
@<TRIPOS>BOND
     1    76    75    2
     2    81    82    1
     3    75    74    1
     4    68    66    1
     5    64    63    2
     6    66    65    1
     7    88    86   ar
     8    87    86   ar
     9    86    85    1
    10    74    73    1
    11    74    77    1
    12    82    85    1
    13    82    83    1
    14    63    62    1
    15    63    69   am
    16    95    94    1
    17    73    71   am
    18    72    71    2
    19    71    70    1
    20    43    44    1
    21    43    42    1
    22    65    62    1
    23    65    67    1
    24    62    61    1
    25    89    83   am
    26    89    90    1
    27    93    94    1
    28    93    90    1
    29    39    38    2
    30    70    69    1
    31    94    96    1
    32    83    84    2
    33    77    78    1
    34    90    91    1
    35    91    92    2
    36    41    42    1
    37    41    40    1
    38    38    37    1
    39    78    79    1
    40   151   152    1
    41    40    37    1
    42    37    36    1
    43    97    98    1
    44   152   155    1
    45   152   153    1
    46   147   146    2
    47   165   166    1
    48   155   156    1
    49   170   169    1
    50    34    33    2
    51    79    80    1
    52   102   104    1
    53   102   103    1
    54   102   101    1
    55   112   110    1
    56   157   156   ar
    57   157   159   ar
    58   166   169    1
    59   166   167    1
    60   110   109    1
    61   146   145    1
    62   153   154    2
    63    56    55    2
    64    98   101    1
    65    98    99    1
    66   156   158   ar
    67   169   171    1
    68    33    32    1
    69   159   160   ar
    70    55    54    1
    71   167   168    2
    72   105   106    1
    73    99   100    2
    74    35    32    1
    75    32    31    1
    76   149   148    1
    77    59    58   ar
    78   109   106    1
    79   109   111    1
    80   145   148    1
    81   145   144    1
    82   158   160   ar
    83   158   161   ar
    84   148   150    1
    85   106   107    1
    86    26    25    2
    87   160   162   ar
    88    58    57    1
    89    58    60   ar
    90    54    53    1
    91    54    57    1
    92    31    25   am
    93   161   163   ar
    94    25    24    1
    95   162   164   ar
    96   107   108    2
    97    20    19    2
    98   163   164   ar
    99   172   173    1
   100    24    27    1
   101    24    23    1
   102    27    28    1
   103    12    11    2
   104   173   174    1
   105   173   176    1
   106   178   176    1
   107    19    18    1
   108    48    47    2
   109   143   142    1
   110    18    21    1
   111    18    17    1
   112   174   175    2
   113    47    46    1
   114    11    17   am
   115    11    10    1
   116   176   177    1
   117    22    21    1
   118    28    30   ar
   119    28    29   ar
   120   131   129   ar
   121   131   130   ar
   122   129   127   ar
   123   130   128   ar
   124   142   140   ar
   125   142   141   ar
   126    13    10    1
   127    13    14    1
   128    10     9    1
   129   127   126   ar
   130   128   126   ar
   131   140   138   ar
   132   126   125    1
   133    46    45    1
   134    46    49    1
   135   141   139   ar
   136    16    14   am
   137    14    15    2
   138   116   115    2
   139   125   122    1
   140    51    49    1
   141    49    50    1
   142     4     3    2
   143   138   137   ar
   144   139   137   ar
   145   115   114    1
   146     8     6    1
   147   114   113    1
   148   137   136    1
   149   122   121    1
   150   122   123    1
   151    50    52    1
   152     3     2    1
   153   121   119   am
   154     2     5    1
   155     2     1    1
   156   123   132   am
   157   123   124    2
   158     5     6    1
   159   132   133    1
   160     6     7    1
   161   136   133    1
   162   133   134    1
   163   117   118    1
   164   119   118    1
   165   119   120    2
   166   134   135    2
