@<TRIPOS>MOLECULE
tmp/5nyyA01.pdb
 93 91 0 0 0
SMALL
GASTEIGER

@<TRIPOS>ATOM
      1  N          8.7170    5.0190   -9.1410 N.3    74  PHE74      -0.1241
      2  CA         7.4020    5.6010   -9.4080 C.3    74  PHE74       0.1605
      3  C          6.2880    4.5620   -9.3060 C.2    74  PHE74       0.2264
      4  O          6.3480    3.5020   -9.9440 O.2    74  PHE74      -0.2867
      5  CB         7.3620    6.2550  -10.7890 C.3    74  PHE74       0.0534
      6  CG         8.0130    7.6080  -10.8430 C.ar   74  PHE74      -0.0203
      7  CD1        7.4970    8.6730  -10.1220 C.ar   74  PHE74      -0.0042
      8  CD2        9.1320    7.8200  -11.6310 C.ar   74  PHE74      -0.0042
      9  CE1        8.0920    9.9260  -10.1780 C.ar   74  PHE74      -0.0003
     10  CE2        9.7270    9.0680  -11.6940 C.ar   74  PHE74      -0.0003
     11  CZ         9.2080   10.1210  -10.9660 C.ar   74  PHE74      -0.0000
     12  N          5.1240   13.9900  -10.5780 N.3    82  VAL82      -0.1245
     13  CA         5.5230   14.5880  -11.8500 C.3    82  VAL82       0.1561
     14  C          4.4190   15.5590  -12.2460 C.2    82  VAL82       0.2260
     15  O          3.2690   15.1320  -12.3990 O.2    82  VAL82      -0.2867
     16  CB         5.7240   13.5110  -12.9270 C.3    82  VAL82       0.0252
     17  CG1        6.2550   14.1330  -14.2110 C.3    82  VAL82       0.0019
     18  CG2        6.6620   12.4220  -12.4220 C.3    82  VAL82       0.0019
     19  N          2.1320   14.5690  -15.0170 N.3    85  ALA85      -0.1245
     20  CA         1.4660   13.2780  -14.8280 C.3    85  ALA85       0.1562
     21  C          1.3220   13.0400  -13.3320 C.2    85  ALA85       0.2260
     22  O          2.0470   12.2340  -12.7350 O.2    85  ALA85      -0.2867
     23  CB         2.2480   12.1490  -15.5040 C.3    85  ALA85       0.0290
     24  N         -0.5940   11.4700  -11.3470 N.3    87  TRP87      -0.1227
     25  CA        -0.9260   10.1590  -10.7980 C.3    87  TRP87       0.1737
     26  C          0.3050    9.3270  -10.4730 C.2    87  TRP87       0.2595
     27  O          0.1550    8.2000   -9.9880 O.2    87  TRP87      -0.2718
     28  CB        -1.8060    9.3830  -11.7820 C.3    87  TRP87       0.0564
     29  CG        -1.3540    9.5210  -13.1940 C.ar   87  TRP87       0.0003
     30  CD1       -0.4850    8.7190  -13.8650 C.ar   87  TRP87       0.0946
     31  CD2       -1.7250   10.5630  -14.0950 C.ar   87  TRP87       0.0152
     32  NE1       -0.3070    9.1880  -15.1510 N.ar   87  TRP87      -0.2442
     33  CE2       -1.0570   10.3230  -15.3070 C.ar   87  TRP87       0.0810
     34  CE3       -2.5690   11.6720  -13.9950 C.ar   87  TRP87       0.0012
     35  CZ2       -1.2080   11.1500  -16.4060 C.ar   87  TRP87       0.0191
     36  CZ3       -2.7160   12.4950  -15.0920 C.ar   87  TRP87       0.0001
     37  CH2       -2.0380   12.2310  -16.2800 C.ar   87  TRP87       0.0015
     38  N          1.5020    9.8320  -10.7580 N.am   88  TRP88      -0.1976
     39  CA         2.7460    9.1250  -10.4910 C.3    88  TRP88       0.1640
     40  C          3.3720    9.6820   -9.2200 C.2    88  TRP88       0.2290
     41  O          3.6610   10.8800   -9.1400 O.2    88  TRP88      -0.2864
     42  CB         3.7070    9.2690  -11.6660 C.3    88  TRP88       0.0576
     43  CG         3.3750    8.3540  -12.7920 C.ar   88  TRP88       0.0006
     44  CD1        2.9430    8.7010  -14.0420 C.ar   88  TRP88       0.0946
     45  CD2        3.4330    6.9260  -12.7710 C.ar   88  TRP88       0.0152
     46  NE1        2.7380    7.5760  -14.8000 N.ar   88  TRP88      -0.2442
     47  CE2        3.0380    6.4720  -14.0440 C.ar   88  TRP88       0.0810
     48  CE3        3.7940    5.9840  -11.7980 C.ar   88  TRP88       0.0012
     49  CZ2        2.9790    5.1260  -14.3660 C.ar   88  TRP88       0.0191
     50  CZ3        3.7490    4.6440  -12.1240 C.ar   88  TRP88       0.0001
     51  CH2        3.3470    4.2270  -13.4020 C.ar   88  TRP88       0.0015
     52  N          7.4660    5.9150  -26.4970 N.3   262  THR262     -0.1203
     53  CA         7.8500    6.9690  -25.5710 C.3   262  THR262      0.1994
     54  C          9.2740    6.6800  -25.1140 C.2   262  THR262      0.2618
     55  O          9.9900    5.8860  -25.7320 O.2   262  THR262     -0.2717
     56  CB         6.7950    7.1600  -24.4670 C.3   262  THR262      0.1784
     57  OG1        7.0340    8.4040  -23.7860 O.3   262  THR262     -0.2211
     58  CG2        6.8130    6.0210  -23.4790 C.3   262  THR262      0.0376
     59  N          9.7080    7.3580  -24.0580 N.am  263  CYS263     -0.1955
     60  CA        11.0870    7.2180  -23.6360 C.3   263  CYS263      0.1843
     61  C         11.1950    7.5890  -22.1710 C.2   263  CYS263      0.2625
     62  O         10.3200    8.2540  -21.6090 O.2   263  CYS263     -0.2714
     63  CB        12.0060    8.1190  -24.4660 C.3   263  CYS263      0.0997
     64  SG        11.6550    9.8870  -24.2490 S.3   263  CYS263     -0.0797
     65  N         12.3190    7.2000  -21.5830 N.am  264  ASN264     -0.1972
     66  CA        12.6480    7.5500  -20.2130 C.3   264  ASN264      0.1688
     67  C         14.1660    7.5510  -20.0940 C.2   264  ASN264      0.2292
     68  O         14.8640    6.8840  -20.8630 O.2   264  ASN264     -0.2864
     69  CB        12.0240    6.5320  -19.2470 C.3   264  ASN264      0.1181
     70  CG        11.5510    7.1600  -17.9560 C.2   264  ASN264      0.2629
     71  OD1       11.9140    8.2880  -17.6290 O.2   264  ASN264     -0.2716
     72  ND2       10.7480    6.4180  -17.1990 N.am  264  ASN264     -0.0877
     73  N         15.9400    5.4820  -14.8780 N.3   268  SER268     -0.1217
     74  CA        14.6130    5.6470  -14.3090 C.3   268  SER268      0.1889
     75  C         13.8400    4.3360  -14.3390 C.2   268  SER268      0.2288
     76  O         14.1420    3.4160  -15.1080 O.2   268  SER268     -0.2866
     77  CB        13.8420    6.7220  -15.0660 C.3   268  SER268      0.2089
     78  OG        14.3980    7.9970  -14.7880 O.3   268  SER268     -0.2183
     79  N          9.6890    2.4830  -13.1100 N.3   270  ALA270     -0.1245
     80  CA         8.2920    2.7320  -12.7810 C.3   270  ALA270      0.1562
     81  C          7.5290    1.4210  -12.7060 C.2   270  ALA270      0.2260
     82  O          7.9510    0.4000  -13.2520 O.2   270  ALA270     -0.2867
     83  CB         7.6260    3.6760  -13.7870 C.3   270  ALA270      0.0290
     84  N          5.0030    0.4240  -14.2360 N.3   272  HIS272     -0.1241
     85  CA         4.3720   -0.0460  -15.4630 C.3   272  HIS272      0.1621
     86  C          5.3820   -0.2900  -16.5760 C.2   272  HIS272      0.2264
     87  O          4.9890   -0.3570  -17.7430 O.2   272  HIS272     -0.2867
     88  CB         3.2820    0.9310  -15.9230 C.3   272  HIS272      0.0745
     89  CG         3.8200    2.2250  -16.4430 C.ar  272  HIS272      0.0817
     90  ND1        5.1140    2.6390  -16.2080 N.ar  272  HIS272     -0.2268
     91  CD2        3.2420    3.1950  -17.1910 C.ar  272  HIS272      0.1154
     92  CE1        5.3070    3.8140  -16.7840 C.ar  272  HIS272      0.1986
     93  NE2        4.1850    4.1730  -17.3880 N.ar  272  HIS272     -0.2212
@<TRIPOS>BOND
     1    52    53    1
     2    55    54    2
     3    53    54    1
     4    53    56    1
     5    54    59   am
     6    56    57    1
     7    56    58    1
     8    63    64    1
     9    63    60    1
    10    59    60    1
    11    60    61    1
    12    61    62    2
    13    61    65   am
    14    65    66    1
    15    68    67    2
    16    66    67    1
    17    66    69    1
    18    69    70    1
    19    70    71    2
    20    70    72   am
    21    87    86    2
    22    93    91   ar
    23    93    92   ar
    24    91    89   ar
    25    92    90   ar
    26    86    85    1
    27    89    90   ar
    28    89    88    1
    29    35    37   ar
    30    35    33   ar
    31    37    36   ar
    32    88    85    1
    33    23    20    1
    34    85    84    1
    35    33    32   ar
    36    33    31   ar
    37    32    30   ar
    38    76    75    2
    39    36    34   ar
    40    77    78    1
    41    77    74    1
    42    19    20    1
    43    73    74    1
    44    20    21    1
    45    46    47   ar
    46    46    44   ar
    47    49    47   ar
    48    49    51   ar
    49    75    74    1
    50    17    16    1
    51    31    34   ar
    52    31    29   ar
    53    47    45   ar
    54    44    43   ar
    55    30    29   ar
    56    83    80    1
    57    51    50   ar
    58    21    22    2
    59    82    81    2
    60    29    28    1
    61    79    80    1
    62    16    18    1
    63    16    13    1
    64    43    45   ar
    65    43    42    1
    66    80    81    1
    67    45    48   ar
    68    15    14    2
    69    14    13    1
    70    50    48   ar
    71    13    12    1
    72    28    25    1
    73    10     8   ar
    74    10    11   ar
    75    42    39    1
    76     8     6   ar
    77    24    25    1
    78    11     9   ar
    79     6     5    1
    80     6     7   ar
    81    25    26    1
    82     5     2    1
    83    38    39    1
    84    38    26   am
    85    39    40    1
    86    26    27    2
    87     9     7   ar
    88     4     3    2
    89     2     3    1
    90     2     1    1
    91    40    41    2
