@<TRIPOS>MOLECULE
tmp/5nz1C00.pdb
 201 196 0 0 0
SMALL
GASTEIGER

@<TRIPOS>ATOM
      1  N        -18.4780  -16.0160   -9.5160 N.3    66  LEU66      -0.1245
      2  CA       -19.2530  -15.5390  -10.6520 C.3    66  LEU66       0.1561
      3  C        -20.1150  -16.6570  -11.2250 C.2    66  LEU66       0.2260
      4  O        -21.3130  -16.4600  -11.4830 O.2    66  LEU66      -0.2867
      5  CB       -18.3160  -14.9480  -11.7120 C.3    66  LEU66       0.0270
      6  CG       -18.9740  -14.5330  -13.0220 C.3    66  LEU66       0.0019
      7  CD1      -19.8210  -13.2900  -12.8100 C.3    66  LEU66       0.0001
      8  CD2      -17.8750  -14.2710  -14.0590 C.3    66  LEU66       0.0001
      9  N        -23.2770  -17.6020   -8.9040 N.3    69  LEU69      -0.1245
     10  CA       -24.4540  -16.7280   -8.9540 C.3    69  LEU69       0.1561
     11  C        -25.3420  -17.0330  -10.1510 C.2    69  LEU69       0.2260
     12  O        -26.5530  -16.7860  -10.1000 O.2    69  LEU69      -0.2867
     13  CB       -24.0380  -15.2590   -8.9910 C.3    69  LEU69       0.0270
     14  CG       -23.4850  -14.4680  -10.2010 C.3    69  LEU69       0.0019
     15  CD1      -24.1810  -14.5360  -11.5730 C.3    69  LEU69       0.0001
     16  CD2      -23.5130  -13.0580   -9.7600 C.3    69  LEU69       0.0001
     17  N        -27.8480  -18.0340  -12.7560 N.3    71  GLU71      -0.1245
     18  CA       -28.0780  -16.6140  -13.0520 C.3    71  GLU71       0.1567
     19  C        -29.3760  -16.1490  -12.3890 C.2    71  GLU71       0.2260
     20  O        -30.4170  -16.8080  -12.4940 O.2    71  GLU71      -0.2867
     21  CB       -28.1510  -16.3560  -14.5640 C.3    71  GLU71       0.0388
     22  CG       -26.8210  -16.0790  -15.2550 C.3    71  GLU71       0.1160
     23  CD       -26.7550  -16.6810  -16.6500 C.2    71  GLU71       0.3649
     24  OE1      -25.7580  -17.3690  -16.9560 O.co2  71  GLU71      -0.2457
     25  OE2      -27.7040  -16.4730  -17.4360 O.co2  71  GLU71      -0.2457
     26  N        -29.1470   -9.3090  -12.2420 N.3    76  MET76      -0.1230
     27  CA       -28.1550  -10.2890  -12.6770 C.3    76  MET76       0.1702
     28  C        -26.8020   -9.6360  -12.9600 C.2    76  MET76       0.2592
     29  O        -25.7520  -10.2210  -12.6650 O.2    76  MET76      -0.2718
     30  CB       -28.7000  -11.0280  -13.9010 C.3    76  MET76       0.0401
     31  CG       -27.7160  -11.4130  -14.9950 C.3    76  MET76       0.0596
     32  SD       -28.6110  -12.1050  -16.4270 S.3    76  MET76      -0.1393
     33  CE       -29.7390  -10.7700  -16.8270 C.3    76  MET76       0.0692
     34  N        -26.7970   -8.4180  -13.5160 N.am   77  TRP77      -0.1976
     35  CA       -25.5200   -7.7530  -13.7700 C.3    77  TRP77       0.1640
     36  C        -24.9330   -7.1100  -12.5220 C.2    77  TRP77       0.2290
     37  O        -23.7080   -7.0550  -12.3930 O.2    77  TRP77      -0.2864
     38  CB       -25.6630   -6.6890  -14.8530 C.3    77  TRP77       0.0576
     39  CG       -26.2620   -7.1920  -16.1050 C.ar   77  TRP77       0.0006
     40  CD1      -27.5200   -6.9630  -16.5510 C.ar   77  TRP77       0.0946
     41  CD2      -25.6250   -8.0140  -17.0920 C.ar   77  TRP77       0.0152
     42  NE1      -27.7160   -7.5930  -17.7520 N.ar   77  TRP77      -0.2442
     43  CE2      -26.5650   -8.2440  -18.1080 C.ar   77  TRP77       0.0810
     44  CE3      -24.3500   -8.5730  -17.2140 C.ar   77  TRP77       0.0012
     45  CZ2      -26.2760   -9.0140  -19.2370 C.ar   77  TRP77       0.0191
     46  CZ3      -24.0690   -9.3460  -18.3390 C.ar   77  TRP77       0.0001
     47  CH2      -25.0310   -9.5520  -19.3380 C.ar   77  TRP77       0.0015
     48  N        -23.2270   -9.8840  -10.5870 N.3    80  GLY80      -0.1210
     49  CA       -21.9940  -10.2280  -11.2800 C.3    80  GLY80       0.1956
     50  C        -20.9010   -9.1980  -11.0720 C.2    80  GLY80       0.2611
     51  O        -19.7580   -9.5430  -10.7670 O.2    80  GLY80      -0.2717
     52  N        -21.2320   -7.9140  -11.2370 N.am   81  ILE81      -0.1979
     53  CA       -20.2140   -6.8880  -11.0360 C.3    81  ILE81       0.1595
     54  C        -19.7680   -6.8750   -9.5750 C.2    81  ILE81       0.2287
     55  O        -18.5820   -6.7300   -9.2770 O.2    81  ILE81      -0.2864
     56  CB       -20.7320   -5.5110  -11.5020 C.3    81  ILE81       0.0276
     57  CG1      -21.0640   -5.5370  -13.0040 C.3    81  ILE81       0.0022
     58  CG2      -19.6870   -4.4400  -11.2420 C.3    81  ILE81       0.0022
     59  CD1      -21.6310   -4.2250  -13.5460 C.3    81  ILE81       0.0001
     60  N        -16.8760   -9.0820   -8.5470 N.3    84  PHE84      -0.1241
     61  CA       -15.5500   -8.5340   -8.8050 C.3    84  PHE84       0.1605
     62  C        -15.2300   -7.3970   -7.8490 C.2    84  PHE84       0.2264
     63  O        -14.1150   -7.3130   -7.3250 O.2    84  PHE84      -0.2867
     64  CB       -15.4560   -8.1010  -10.2620 C.3    84  PHE84       0.0534
     65  CG       -15.4420   -9.2700  -11.1990 C.ar   84  PHE84      -0.0203
     66  CD1      -14.2490   -9.9720  -11.4370 C.ar   84  PHE84      -0.0042
     67  CD2      -16.6240   -9.7330  -11.7640 C.ar   84  PHE84      -0.0042
     68  CE1      -14.2280  -11.0750  -12.2650 C.ar   84  PHE84      -0.0003
     69  CE2      -16.6230  -10.8330  -12.6050 C.ar   84  PHE84      -0.0003
     70  CZ       -15.4200  -11.5090  -12.8660 C.ar   84  PHE84      -0.0000
     71  N        -12.0230   -8.7390   -5.5130 N.3    88  PHE88      -0.1241
     72  CA       -10.7930   -7.9610   -5.6020 C.3    88  PHE88       0.1605
     73  C        -10.7470   -6.8660   -4.5360 C.2    88  PHE88       0.2264
     74  O         -9.6550   -6.4740   -4.1100 O.2    88  PHE88      -0.2867
     75  CB       -10.6260   -7.3990   -7.0190 C.3    88  PHE88       0.0534
     76  CG       -10.3460   -8.4600   -8.0340 C.ar   88  PHE88      -0.0203
     77  CD1       -9.0500   -8.8730   -8.2870 C.ar   88  PHE88      -0.0042
     78  CD2      -11.3870   -9.1030   -8.6900 C.ar   88  PHE88      -0.0042
     79  CE1       -8.7850   -9.8850   -9.2030 C.ar   88  PHE88      -0.0003
     80  CE2      -11.1280  -10.1230   -9.6210 C.ar   88  PHE88      -0.0003
     81  CZ        -9.8270  -10.5160   -9.8720 C.ar   88  PHE88      -0.0000
     82  N         -3.8880  -12.7060  -16.2230 N.3   112  TRP112     -0.1241
     83  CA        -4.9260  -11.6760  -16.2960 C.3   112  TRP112      0.1605
     84  C         -5.6230  -11.6730  -17.6570 C.2   112  TRP112      0.2264
     85  O         -6.8460  -11.5750  -17.7400 O.2   112  TRP112     -0.2867
     86  CB        -4.3240  -10.2980  -16.0220 C.3   112  TRP112      0.0550
     87  CG        -5.4020   -9.2990  -15.8010 C.ar  112  TRP112      0.0003
     88  CD1       -5.7560   -8.2440  -16.6200 C.ar  112  TRP112      0.0946
     89  CD2       -6.3380   -9.2950  -14.7120 C.ar  112  TRP112      0.0152
     90  NE1       -6.8510   -7.5760  -16.0780 N.ar  112  TRP112     -0.2442
     91  CE2       -7.2230   -8.2060  -14.9150 C.ar  112  TRP112      0.0810
     92  CE3       -6.5180  -10.1100  -13.5890 C.ar  112  TRP112      0.0012
     93  CZ2       -8.2450   -7.9030  -14.0170 C.ar  112  TRP112      0.0191
     94  CZ3       -7.5460   -9.8170  -12.7080 C.ar  112  TRP112      0.0001
     95  CH2       -8.3970   -8.7240  -12.9290 C.ar  112  TRP112      0.0015
     96  N         -9.6100  -12.1810  -18.2740 N.3   116  MET116     -0.1245
     97  CA       -10.3380  -11.1380  -19.0000 C.3   116  MET116      0.1570
     98  C        -11.0340  -11.7100  -20.2380 C.2   116  MET116      0.2261
     99  O        -12.2240  -11.4740  -20.4630 O.2   116  MET116     -0.2867
    100  CB        -9.3880  -10.0040  -19.3990 C.3   116  MET116      0.0387
    101  CG        -9.0690   -9.0220  -18.3090 C.3   116  MET116      0.0595
    102  SD       -10.4910   -8.0310  -17.7510 S.3   116  MET116     -0.1393
    103  CE       -10.5210   -8.6990  -16.1540 C.3   116  MET116      0.0692
    104  N        -13.9760  -13.8100  -19.0390 N.3   119  TRP119     -0.1241
    105  CA       -15.1190  -13.0670  -18.5300 C.3   119  TRP119      0.1605
    106  C        -15.8010  -12.2530  -19.6210 C.2   119  TRP119      0.2264
    107  O        -16.9980  -11.9670  -19.5040 O.2   119  TRP119     -0.2867
    108  CB       -14.6750  -12.1620  -17.3780 C.3   119  TRP119      0.0550
    109  CG       -14.1640  -12.9360  -16.1950 C.ar  119  TRP119      0.0003
    110  CD1      -14.6360  -14.1330  -15.7240 C.ar  119  TRP119      0.0946
    111  CD2      -13.0560  -12.5830  -15.3500 C.ar  119  TRP119      0.0152
    112  NE1      -13.9210  -14.5250  -14.6210 N.ar  119  TRP119     -0.2442
    113  CE2      -12.9360  -13.6000  -14.3750 C.ar  119  TRP119      0.0810
    114  CE3      -12.1670  -11.4970  -15.3120 C.ar  119  TRP119      0.0012
    115  CZ2      -11.9750  -13.5550  -13.3640 C.ar  119  TRP119      0.0191
    116  CZ3      -11.2050  -11.4510  -14.3010 C.ar  119  TRP119      0.0001
    117  CH2      -11.1160  -12.4730  -13.3480 C.ar  119  TRP119      0.0015
    118  N        -17.9850  -14.7100  -21.5520 N.3   122  TYR122     -0.1227
    119  CA       -19.1650  -15.0290  -20.7610 C.3   122  TYR122      0.1736
    120  C        -20.1950  -13.8950  -20.8480 C.2   122  TYR122      0.2596
    121  O        -21.3840  -14.1370  -21.0830 O.2   122  TYR122     -0.2718
    122  CB       -18.7360  -15.3260  -19.3170 C.3   122  TYR122      0.0548
    123  CG       -19.8850  -15.6510  -18.3910 C.ar  122  TYR122     -0.0200
    124  CD1      -19.9900  -15.0380  -17.1540 C.ar  122  TYR122     -0.0009
    125  CD2      -20.8860  -16.5390  -18.7670 C.ar  122  TYR122     -0.0009
    126  CE1      -21.0430  -15.3130  -16.3160 C.ar  122  TYR122      0.0417
    127  CE2      -21.9490  -16.8160  -17.9290 C.ar  122  TYR122      0.0417
    128  CZ       -22.0140  -16.2030  -16.7040 C.ar  122  TYR122      0.1957
    129  OH       -23.0520  -16.4670  -15.8470 O.3   122  TYR122     -0.2866
    130  N        -19.7340  -12.6460  -20.7000 N.am  123  THR123     -0.1953
    131  CA       -20.5770  -11.4640  -20.8740 C.3   123  THR123      0.1897
    132  C        -21.2460  -11.4470  -22.2440 C.2   123  THR123      0.2313
    133  O        -22.4490  -11.1900  -22.3610 O.2   123  THR123     -0.2863
    134  CB       -19.7190  -10.2040  -20.6960 C.3   123  THR123      0.1794
    135  OG1      -19.1790  -10.1690  -19.3750 O.3   123  THR123     -0.2208
    136  CG2      -20.5400   -8.9300  -20.9690 C.3   123  THR123      0.0378
    137  N        -24.0520  -14.0610  -22.6200 N.3   126  VAL126     -0.1245
    138  CA       -25.2930  -13.7240  -21.9250 C.3   126  VAL126      0.1561
    139  C        -26.0130  -12.5850  -22.6400 C.2   126  VAL126      0.2260
    140  O        -27.2410  -12.6060  -22.7690 O.2   126  VAL126     -0.2867
    141  CB       -24.9780  -13.3920  -20.4520 C.3   126  VAL126      0.0252
    142  CG1      -26.2220  -12.8610  -19.6940 C.3   126  VAL126      0.0019
    143  CG2      -24.4130  -14.6090  -19.7850 C.3   126  VAL126      0.0019
    144  N        -16.1430   -4.6420  -19.9260 N.3   150  ASN150     -0.1240
    145  CA       -15.2310   -5.2930  -18.9900 C.3   150  ASN150      0.1653
    146  C        -13.9730   -4.4600  -18.7610 C.2   150  ASN150      0.2266
    147  O        -13.5050   -4.3370  -17.6170 O.2   150  ASN150     -0.2867
    148  CB       -14.9020   -6.6950  -19.4960 C.3   150  ASN150      0.1155
    149  CG       -16.0440   -7.6560  -19.2310 C.2   150  ASN150      0.2627
    150  OD1      -16.9710   -7.8260  -20.0430 O.2   150  ASN150     -0.2716
    151  ND2      -15.9630   -8.3250  -18.0960 N.am  150  ASN150     -0.0877
    152  N        -14.6950   -1.7550  -16.3540 N.3   153  ASN153     -0.1225
    153  CA       -14.7010   -2.2640  -14.9870 C.3   153  ASN153      0.1785
    154  C        -13.2920   -2.4910  -14.4610 C.2   153  ASN153      0.2597
    155  O        -13.0040   -2.1600  -13.3030 O.2   153  ASN153     -0.2718
    156  CB       -15.5180   -3.5530  -14.9080 C.3   153  ASN153      0.1169
    157  CG       -17.0060   -3.2900  -14.8810 C.2   153  ASN153      0.2627
    158  OD1      -17.4760   -2.2040  -15.2680 O.2   153  ASN153     -0.2716
    159  ND2      -17.7610   -4.2620  -14.3950 N.am  153  ASN153     -0.0877
    160  N        -12.4170   -3.0870  -15.2810 N.am  154  GLU154     -0.1979
    161  CA       -11.0270   -3.2570  -14.8770 C.3   154  GLU154      0.1602
    162  C        -10.4280   -1.9260  -14.4400 C.2   154  GLU154      0.2287
    163  O         -9.9210   -1.8010  -13.3180 O.2   154  GLU154     -0.2864
    164  CB       -10.1890   -3.8520  -16.0160 C.3   154  GLU154      0.0415
    165  CG        -8.6750   -3.6600  -15.7640 C.3   154  GLU154      0.1163
    166  CD        -7.7780   -4.2460  -16.8450 C.2   154  GLU154      0.3649
    167  OE1       -8.0910   -5.3360  -17.3740 O.co2 154  GLU154     -0.2457
    168  OE2       -6.7440   -3.6170  -17.1620 O.co2 154  GLU154     -0.2457
    169  N        -12.7050   -0.1840  -11.2830 N.3   157  LEU157     -0.1245
    170  CA       -12.4910   -0.8530  -10.0080 C.3   157  LEU157      0.1561
    171  C        -11.0630   -0.6360   -9.5040 C.2   157  LEU157      0.2260
    172  O        -10.8420   -0.4100   -8.3030 O.2   157  LEU157     -0.2867
    173  CB       -12.8010   -2.3410  -10.1410 C.3   157  LEU157      0.0270
    174  CG       -14.2700   -2.6700  -10.3860 C.3   157  LEU157      0.0019
    175  CD1      -14.4370   -4.1680  -10.6120 C.3   157  LEU157      0.0001
    176  CD2      -15.1330   -2.1890   -9.2310 C.3   157  LEU157      0.0001
    177  N         -9.8890    0.9370   -5.9850 N.3   161  PHE161     -0.1241
    178  CA        -9.0920    0.1790   -5.0190 C.3   161  PHE161      0.1605
    179  C         -7.7840    0.8980   -4.6990 C.2   161  PHE161      0.2264
    180  O         -7.4250    1.0690   -3.5270 O.2   161  PHE161     -0.2867
    181  CB        -8.7900   -1.2330   -5.5450 C.3   161  PHE161      0.0534
    182  CG       -10.0110   -2.1000   -5.7760 C.ar  161  PHE161     -0.0203
    183  CD1      -11.1950   -1.8720   -5.0970 C.ar  161  PHE161     -0.0042
    184  CD2       -9.9540   -3.1680   -6.6720 C.ar  161  PHE161     -0.0042
    185  CE1      -12.3140   -2.6890   -5.3170 C.ar  161  PHE161     -0.0003
    186  CE2      -11.0690   -3.9830   -6.9000 C.ar  161  PHE161     -0.0003
    187  CZ       -12.2430   -3.7490   -6.2160 C.ar  161  PHE161     -0.0000
    188  N        -23.6700   -0.5570  -17.7420 N.3   181  TRP181     -0.1241
    189  CA       -23.8760   -1.8450  -18.3970 C.3   181  TRP181      0.1605
    190  C        -25.3340   -2.0430  -18.8070 C.2   181  TRP181      0.2264
    191  O        -25.6130   -2.4220  -19.9480 O.2   181  TRP181     -0.2867
    192  CB       -23.4580   -2.9830  -17.4720 C.3   181  TRP181      0.0550
    193  CG       -22.0080   -3.2500  -17.3200 C.ar  181  TRP181      0.0003
    194  CD1      -21.0280   -2.3510  -16.9800 C.ar  181  TRP181      0.0946
    195  CD2      -21.3670   -4.5300  -17.4240 C.ar  181  TRP181      0.0152
    196  NE1      -19.8130   -3.0000  -16.8860 N.ar  181  TRP181     -0.2442
    197  CE2      -19.9950   -4.3340  -17.1480 C.ar  181  TRP181      0.0810
    198  CE3      -21.8200   -5.8200  -17.7290 C.ar  181  TRP181      0.0012
    199  CZ2      -19.0660   -5.3800  -17.1780 C.ar  181  TRP181      0.0191
    200  CZ3      -20.8900   -6.8770  -17.7410 C.ar  181  TRP181      0.0001
    201  CH2      -19.5280   -6.6420  -17.4730 C.ar  181  TRP181      0.0015
@<TRIPOS>BOND
     1   140   139    2
     2   139   138    1
     3   137   138    1
     4   133   132    2
     5   132   131    1
     6   138   141    1
     7   118   119    1
     8   121   120    2
     9   136   134    1
    10   131   130    1
    11   131   134    1
    12   120   119    1
    13   120   130   am
    14   119   122    1
    15   134   135    1
    16    99    98    2
    17   141   143    1
    18   141   142    1
    19    98    97    1
    20   150   149    2
    21   191   190    2
    22   144   145    1
    23   106   107    2
    24   106   105    1
    25   148   149    1
    26   148   145    1
    27   100    97    1
    28   100   101    1
    29    47    45   ar
    30    47    46   ar
    31   122   123    1
    32    45    43   ar
    33   149   151   am
    34   104   105    1
    35    97    96    1
    36   145   146    1
    37   190   189    1
    38   125   123   ar
    39   125   127   ar
    40   146   147    2
    41   105   108    1
    42   189   188    1
    43   189   192    1
    44   123   124   ar
    45    46    44   ar
    46   101   102    1
    47    43    42   ar
    48    43    41   ar
    49   127   128   ar
    50    42    40   ar
    51   102   103    1
    52   200   198   ar
    53   200   201   ar
    54    85    84    2
    55   198   195   ar
    56    84    83    1
    57   201   199   ar
    58   192   193    1
    59    25    23   ar
    60   195   193   ar
    61   195   197   ar
    62   108   109    1
    63   167   166   ar
    64   193   194   ar
    65    44    41   ar
    66   199   197   ar
    67   168   166   ar
    68   124   126   ar
    69   197   196   ar
    70    41    39   ar
    71   194   196   ar
    72    24    23   ar
    73   166   165    1
    74    33    32    1
    75   128   126   ar
    76   128   129    1
    77    23    22    1
    78    88    90   ar
    79    88    87   ar
    80    40    39   ar
    81    32    31    1
    82   152   153    1
    83    83    82    1
    84    83    86    1
    85   109   110   ar
    86   109   111   ar
    87    39    38    1
    88    90    91   ar
    89    86    87    1
    90   164   165    1
    91   164   161    1
    92    87    89   ar
    93   110   112   ar
    94   111   114   ar
    95   111   113   ar
    96   114   116   ar
    97   160   161    1
    98   160   154   am
    99   158   157    2
   100    22    21    1
   101    31    30    1
   102   153   156    1
   103   153   154    1
   104    91    89   ar
   105    91    93   ar
   106   156   157    1
   107   157   159   am
   108   161   162    1
   109    38    35    1
   110    89    92   ar
   111   112   113   ar
   112    21    18    1
   113   154   155    2
   114   162   163    2
   115   113   115   ar
   116   116   117   ar
   117     8     6    1
   118    93    95   ar
   119    30    27    1
   120    35    34    1
   121    35    36    1
   122    92    94   ar
   123    59    57    1
   124    34    28   am
   125   115   117   ar
   126    18    17    1
   127    18    19    1
   128     6     7    1
   129     6     5    1
   130    57    56    1
   131    28    27    1
   132    28    29    2
   133    95    94   ar
   134    70    69   ar
   135    70    68   ar
   136    27    26    1
   137    69    67   ar
   138    36    37    2
   139    20    19    2
   140    68    66   ar
   141    67    65   ar
   142     5     2    1
   143    15    14    1
   144    56    58    1
   145    56    53    1
   146     4     3    2
   147    66    65   ar
   148   169   170    1
   149    49    50    1
   150    49    48    1
   151    52    50   am
   152    52    53    1
   153     3     2    1
   154    65    64    1
   155    50    51    2
   156    53    54    1
   157     2     1    1
   158   175   174    1
   159   174   173    1
   160   174   176    1
   161    64    61    1
   162    14    16    1
   163    14    13    1
   164    11    12    2
   165    11    10    1
   166   173   170    1
   167   170   171    1
   168    81    80   ar
   169    81    79   ar
   170    80    78   ar
   171    54    55    2
   172   171   172    2
   173    79    77   ar
   174    13    10    1
   175    10     9    1
   176    61    60    1
   177    61    62    1
   178    78    76   ar
   179    77    76   ar
   180    76    75    1
   181    62    63    2
   182    75    72    1
   183   186   184   ar
   184   186   187   ar
   185   184   182   ar
   186   187   185   ar
   187   177   178    1
   188   182   181    1
   189   182   183   ar
   190    72    71    1
   191    72    73    1
   192   181   178    1
   193   185   183   ar
   194   178   179    1
   195   179   180    2
   196    73    74    2
