@<TRIPOS>MOLECULE
tmp/5nz8B04.pdb
 125 120 0 0 0
SMALL
GASTEIGER

@<TRIPOS>ATOM
      1  N        -23.3200   -6.2050   17.1370 N.3   486  ARG486     -0.1245
      2  CA       -23.5060   -7.0640   18.3120 C.3   486  ARG486      0.1563
      3  C        -22.2260   -7.8690   18.5430 C.2   486  ARG486      0.2260
      4  O        -22.2800   -9.0240   18.9620 O.2   486  ARG486     -0.2867
      5  CB       -24.7030   -8.0190   18.0830 C.3   486  ARG486      0.0307
      6  CG       -25.9870   -7.3880   17.5180 C.3   486  ARG486      0.0489
      7  CD       -26.7350   -6.5560   18.5690 C.3   486  ARG486      0.2205
      8  NE       -27.9220   -5.9140   17.9880 N.pl3 486  ARG486     -0.0865
      9  CZ       -27.9440   -4.7560   17.3190 C.cat 486  ARG486      0.5346
     10  NH1      -26.8290   -4.0580   17.1080 N.pl3 486  ARG486      0.1354
     11  NH2      -29.0980   -4.2900   16.8440 N.pl3 486  ARG486      0.1354
     12  N        -18.4490  -12.6350   16.1180 N.3   496  ARG496     -0.1245
     13  CA       -19.6430  -12.1980   15.4440 C.3   496  ARG496      0.1563
     14  C        -19.2190  -10.9940   14.6270 C.2   496  ARG496      0.2260
     15  O        -18.7780  -10.0040   15.1970 O.2   496  ARG496     -0.2867
     16  CB       -20.7200  -11.8030   16.4530 C.3   496  ARG496      0.0307
     17  CG       -21.2860  -12.9620   17.2650 C.3   496  ARG496      0.0489
     18  CD       -22.6910  -12.6550   17.7780 C.3   496  ARG496      0.2205
     19  NE       -23.6400  -12.5680   16.6660 N.pl3 496  ARG496     -0.0865
     20  CZ       -24.8660  -12.0410   16.7250 C.cat 496  ARG496      0.5346
     21  NH1      -25.3550  -11.5350   17.8570 N.pl3 496  ARG496      0.1354
     22  NH2      -25.6160  -12.0180   15.6260 N.pl3 496  ARG496      0.1354
     23  N        -28.4380   -7.0940    8.8030 N.3   501  ARG501     -0.1231
     24  CA       -29.6680   -6.5740    9.3990 C.3   501  ARG501      0.1694
     25  C        -29.4420   -5.5520   10.5170 C.2   501  ARG501      0.2591
     26  O        -30.3800   -4.8570   10.8850 O.2   501  ARG501     -0.2718
     27  CB       -30.5840   -7.7210    9.8700 C.3   501  ARG501      0.0321
     28  CG       -30.1040   -8.5410   11.0770 C.3   501  ARG501      0.0489
     29  CD       -31.2400   -9.3910   11.6440 C.3   501  ARG501      0.2205
     30  NE       -31.6610  -10.4880   10.7470 N.pl3 501  ARG501     -0.0865
     31  CZ       -31.3880  -11.7900   10.9130 C.cat 501  ARG501      0.5346
     32  NH1      -30.6830  -12.2480   11.9580 N.pl3 501  ARG501      0.1354
     33  NH2      -31.8370  -12.6650   10.0210 N.pl3 501  ARG501      0.1354
     34  N        -28.2170   -5.4500   11.0430 N.am  502  GLU502     -0.1979
     35  CA       -27.8530   -4.3480   11.9560 C.3   502  GLU502      0.1602
     36  C        -27.5620   -3.0130   11.2380 C.2   502  GLU502      0.2287
     37  O        -27.0170   -2.0780   11.8430 O.2   502  GLU502     -0.2864
     38  CB       -26.6850   -4.7460   12.8840 C.3   502  GLU502      0.0415
     39  CG       -27.1040   -5.5380   14.1300 C.3   502  GLU502      0.1163
     40  CD       -27.2740   -7.0300   13.8740 C.2   502  GLU502      0.3649
     41  OE1      -26.2640   -7.6750   13.4880 O.co2 502  GLU502     -0.2457
     42  OE2      -28.4090   -7.5620   14.0500 O.co2 502  GLU502     -0.2457
     43  N        -35.7430  -13.0630    9.8940 N.3   622  TRP622     -0.1227
     44  CA       -35.3730  -12.3180   11.0950 C.3   622  TRP622      0.1737
     45  C        -35.2180  -13.1600   12.3690 C.2   622  TRP622      0.2595
     46  O        -34.3220  -12.8770   13.1660 O.2   622  TRP622     -0.2718
     47  CB       -36.3760  -11.1810   11.3530 C.3   622  TRP622      0.0564
     48  CG       -36.0170  -10.3110   12.5330 C.ar  622  TRP622      0.0003
     49  CD1      -35.2710   -9.1680   12.5120 C.ar  622  TRP622      0.0946
     50  CD2      -36.3870  -10.5250   13.8970 C.ar  622  TRP622      0.0152
     51  NE1      -35.1570   -8.6520   13.7830 N.ar  622  TRP622     -0.2442
     52  CE2      -35.8290   -9.4680   14.6520 C.ar  622  TRP622      0.0810
     53  CE3      -37.1390  -11.5060   14.5570 C.ar  622  TRP622      0.0012
     54  CZ2      -35.9990   -9.3660   16.0340 C.ar  622  TRP622      0.0191
     55  CZ3      -37.3090  -11.4030   15.9320 C.ar  622  TRP622      0.0001
     56  CH2      -36.7410  -10.3380   16.6570 C.ar  622  TRP622      0.0015
     57  N        -36.0770  -14.1610   12.5670 N.am  623  ASN623     -0.1960
     58  CA       -35.9980  -15.0190   13.7550 C.3   623  ASN623      0.1819
     59  C        -34.8690  -16.0520   13.6120 C.2   623  ASN623      0.2621
     60  O        -34.9390  -16.9500   12.7690 O.2   623  ASN623     -0.2715
     61  CB       -37.3390  -15.7260   14.0300 C.3   623  ASN623      0.1195
     62  CG       -37.4970  -16.1450   15.4950 C.2   623  ASN623      0.2630
     63  OD1      -36.5890  -16.7220   16.0950 O.2   623  ASN623     -0.2716
     64  ND2      -38.6620  -15.8610   16.0700 N.am  623  ASN623     -0.0877
     65  N        -33.8540  -15.9320   14.4700 N.am  624  ASP624     -0.1957
     66  CA       -32.6770  -16.8140   14.4290 C.3   624  ASP624      0.1840
     67  C        -32.9440  -18.2130   14.9860 C.2   624  ASP624      0.2622
     68  O        -32.0530  -19.0630   14.9250 O.2   624  ASP624     -0.2715
     69  CB       -31.4640  -16.1810   15.1670 C.3   624  ASP624      0.1450
     70  CG       -30.6060  -15.2860   14.2600 C.2   624  ASP624      0.3671
     71  OD1      -30.3970  -15.6320   13.0760 O.co2 624  ASP624     -0.2456
     72  OD2      -30.1110  -14.2430   14.7390 O.co2 624  ASP624     -0.2456
     73  N        -34.1380  -18.4480   15.5340 N.am  625  CYS625     -0.1968
     74  CA       -34.5240  -19.7610   16.0440 C.3   625  CYS625      0.1712
     75  C        -35.8880  -20.1920   15.4940 C.2   625  CYS625      0.2296
     76  O        -36.8120  -20.5010   16.2520 O.2   625  CYS625     -0.2864
     77  CB       -34.5160  -19.7260   17.5740 C.3   625  CYS625      0.0983
     78  SG       -32.9140  -19.2470   18.2440 S.3   625  CYS625     -0.0798
     79  N        -42.4700  -12.4770   22.5750 N.3   781  LEU781     -0.1245
     80  CA       -42.1750  -12.6310   21.1500 C.3   781  LEU781      0.1561
     81  C        -43.1550  -13.5310   20.4120 C.2   781  LEU781      0.2260
     82  O        -43.4990  -13.2770   19.2520 O.2   781  LEU781     -0.2867
     83  CB       -40.7580  -13.1910   21.0070 C.3   781  LEU781      0.0270
     84  CG       -40.1980  -13.5380   19.6340 C.3   781  LEU781      0.0019
     85  CD1      -40.3250  -12.3560   18.6820 C.3   781  LEU781      0.0001
     86  CD2      -38.7580  -14.0140   19.8080 C.3   781  LEU781      0.0001
     87  N        -35.9030  -17.5230   23.7160 N.3   800  GLU800     -0.1245
     88  CA       -36.8770  -17.8400   22.6790 C.3   800  GLU800      0.1567
     89  C        -38.1260  -18.4890   23.2480 C.2   800  GLU800      0.2260
     90  O        -39.2290  -18.2420   22.7490 O.2   800  GLU800     -0.2867
     91  CB       -36.2320  -18.7260   21.6080 C.3   800  GLU800      0.0388
     92  CG       -34.8680  -18.2410   21.0970 C.3   800  GLU800      0.1160
     93  CD       -34.8820  -16.8210   20.5130 C.2   800  GLU800      0.3649
     94  OE1      -33.8120  -16.1650   20.5220 O.co2 800  GLU800     -0.2457
     95  OE2      -35.9470  -16.3630   20.0300 O.co2 800  GLU800     -0.2457
     96  N        -38.6470  -10.3960   24.5020 N.3   805  PHE805     -0.1241
     97  CA       -37.5030  -10.0210   23.6800 C.3   805  PHE805      0.1605
     98  C        -37.6790   -8.5540   23.2840 C.2   805  PHE805      0.2264
     99  O        -38.5990   -8.2130   22.5400 O.2   805  PHE805     -0.2867
    100  CB       -37.4240  -10.9210   22.4450 C.3   805  PHE805      0.0534
    101  CG       -36.0390  -11.3460   22.1210 C.ar  805  PHE805     -0.0203
    102  CD1      -35.2070  -10.5120   21.3850 C.ar  805  PHE805     -0.0042
    103  CD2      -35.5440  -12.5850   22.5790 C.ar  805  PHE805     -0.0042
    104  CE1      -33.9080  -10.9030   21.0850 C.ar  805  PHE805     -0.0003
    105  CE2      -34.2430  -12.9670   22.2890 C.ar  805  PHE805     -0.0003
    106  CZ       -33.4180  -12.1220   21.5500 C.ar  805  PHE805     -0.0000
    107  N        -36.0220   -6.0710   21.5740 N.3   807  HIS807     -0.1241
    108  CA       -35.9240   -5.5690   20.1930 C.3   807  HIS807      0.1621
    109  C        -37.2450   -5.7820   19.4630 C.2   807  HIS807      0.2264
    110  O        -37.7750   -4.8510   18.8560 O.2   807  HIS807     -0.2867
    111  CB       -34.7970   -6.2680   19.4410 C.3   807  HIS807      0.0745
    112  CG       -34.6240   -5.8100   18.0290 C.ar  807  HIS807      0.0817
    113  ND1      -34.1370   -6.6340   17.0310 N.ar  807  HIS807     -0.2268
    114  CD2      -34.8810   -4.6200   17.4400 C.ar  807  HIS807      0.1154
    115  CE1      -34.0870   -5.9640   15.8920 C.ar  807  HIS807      0.1986
    116  NE2      -34.5380   -4.7400   16.1130 N.ar  807  HIS807     -0.2212
    117  N        -30.8290   -7.2160   26.4250 N.3   864  GLN864     -0.1245
    118  CA       -31.4900   -7.9700   25.3450 C.3   864  GLN864      0.1566
    119  C        -32.9440   -8.3630   25.6050 C.2   864  GLN864      0.2260
    120  O        -33.7800   -8.1930   24.7130 O.2   864  GLN864     -0.2867
    121  CB       -30.7010   -9.2300   24.9600 C.3   864  GLN864      0.0367
    122  CG       -31.0000   -9.7110   23.5380 C.3   864  GLN864      0.0905
    123  CD       -30.4850  -11.1120   23.2410 C.2   864  GLN864      0.2608
    124  OE1      -30.4240  -11.9900   24.1210 O.2   864  GLN864     -0.2717
    125  NE2      -30.1290  -11.3400   21.9830 N.am  864  GLN864     -0.0878
@<TRIPOS>BOND
     1    23    24    1
     2    24    27    1
     3    24    25    1
     4    27    28    1
     5    43    44    1
     6    33    31    1
     7    25    26    2
     8    25    34   am
     9    30    31    2
    10    30    29    1
    11    31    32    1
    12    34    35    1
    13    28    29    1
    14    44    47    1
    15    44    45    1
    16    36    37    2
    17    36    35    1
    18    47    48    1
    19    35    38    1
    20    45    57   am
    21    45    46    2
    22    49    48   ar
    23    49    51   ar
    24    48    50   ar
    25    57    58    1
    26    60    59    2
    27    38    39    1
    28    71    70   ar
    29    41    40   ar
    30    59    58    1
    31    59    65   am
    32    58    61    1
    33    51    52   ar
    34    40    42   ar
    35    40    39    1
    36    50    53   ar
    37    50    52   ar
    38    61    62    1
    39    70    72   ar
    40    70    69    1
    41    66    65    1
    42    66    67    1
    43    66    69    1
    44    53    55   ar
    45    14    15    2
    46    14    13    1
    47    52    54   ar
    48    68    67    2
    49    67    73   am
    50    13    12    1
    51    13    16    1
    52    75    74    1
    53    75    76    2
    54    62    64   am
    55    62    63    2
    56    73    74    1
    57    22    20    1
    58   115   116   ar
    59   115   113   ar
    60    55    56   ar
    61    54    56   ar
    62    74    77    1
    63   116   114   ar
    64    16    17    1
    65    19    20    2
    66    19    18    1
    67    20    21    1
    68    11     9    1
    69   113   112   ar
    70    10     9    1
    71     1     2    1
    72    17    18    1
    73     9     8    2
    74   114   112   ar
    75     6     5    1
    76     6     7    1
    77    77    78    1
    78     8     7    1
    79   112   111    1
    80     5     2    1
    81     2     3    1
    82     3     4    2
    83    85    84    1
    84   110   109    2
    85    82    81    2
    86   111   108    1
    87   109   108    1
    88    84    86    1
    89    84    83    1
    90    95    93   ar
    91   108   107    1
    92    81    80    1
    93    93    94   ar
    94    93    92    1
    95    83    80    1
    96   104   102   ar
    97   104   106   ar
    98    92    91    1
    99    80    79    1
   100   102   101   ar
   101   106   105   ar
   102    91    88    1
   103   125   123   am
   104   101   100    1
   105   101   103   ar
   106   105   103   ar
   107   100    97    1
   108    99    98    2
   109    88    89    1
   110    88    87    1
   111    90    89    2
   112   123   122    1
   113   123   124    2
   114    98    97    1
   115   122   121    1
   116    97    96    1
   117   120   119    2
   118   121   118    1
   119   118   119    1
   120   118   117    1
