@<TRIPOS>MOLECULE
tmp/5nz8A02.pdb
 119 114 0 0 0
SMALL
GASTEIGER

@<TRIPOS>ATOM
      1  N         -3.2460  -38.9440   22.6630 N.3   486  ARG486     -0.1245
      2  CA        -2.6660  -37.6200   22.9260 C.3   486  ARG486      0.1563
      3  C         -3.8090  -36.6450   23.2220 C.2   486  ARG486      0.2260
      4  O         -3.7380  -35.4690   22.8650 O.2   486  ARG486     -0.2867
      5  CB        -1.8490  -37.1130   21.7210 C.3   486  ARG486      0.0307
      6  CG        -0.8890  -38.1110   21.0940 C.3   486  ARG486      0.0489
      7  CD         0.3550  -38.3680   21.9060 C.3   486  ARG486      0.2205
      8  NE         1.2060  -39.3940   21.2900 N.pl3 486  ARG486     -0.0865
      9  CZ         1.0810  -40.7150   21.4580 C.cat 486  ARG486      0.5346
     10  NH1        0.1340  -41.2260   22.2360 N.pl3 486  ARG486      0.1354
     11  NH2        1.9200  -41.5430   20.8330 N.pl3 486  ARG486      0.1354
     12  N         -8.7640  -33.3940   20.4670 N.3   496  ARG496     -0.1245
     13  CA        -7.9970  -34.3790   19.7480 C.3   496  ARG496      0.1563
     14  C         -8.6210  -35.6940   20.1800 C.2   496  ARG496      0.2260
     15  O         -8.6550  -36.0150   21.3750 O.2   496  ARG496     -0.2867
     16  CB        -6.5350  -34.3480   20.1730 C.3   496  ARG496      0.0307
     17  CG        -5.7840  -33.0830   19.7810 C.3   496  ARG496      0.0489
     18  CD        -4.2850  -33.3220   19.7350 C.3   496  ARG496      0.2205
     19  NE        -3.9110  -34.2830   18.6950 N.pl3 496  ARG496     -0.0865
     20  CZ        -2.6920  -34.7950   18.5200 C.cat 496  ARG496      0.5346
     21  NH1       -1.6730  -34.4530   19.3150 N.pl3 496  ARG496      0.1354
     22  NH2       -2.4840  -35.6660   17.5350 N.pl3 496  ARG496      0.1354
     23  N         -2.9420  -43.4020   14.1700 N.3   501  ARG501     -0.1231
     24  CA        -1.5080  -43.7100   14.2550 C.3   501  ARG501      0.1694
     25  C         -1.0160  -43.9350   15.6850 C.2   501  ARG501      0.2591
     26  O          0.0840  -44.4530   15.8700 O.2   501  ARG501     -0.2718
     27  CB        -0.6410  -42.6530   13.5430 C.3   501  ARG501      0.0321
     28  CG        -0.5860  -41.2630   14.1720 C.3   501  ARG501      0.0489
     29  CD         0.5710  -40.4290   13.6080 C.3   501  ARG501      0.2205
     30  NE         0.3510  -40.0270   12.2120 N.pl3 501  ARG501     -0.0865
     31  CZ        -0.0020  -38.8090   11.7740 C.cat 501  ARG501      0.5346
     32  NH1       -0.1910  -37.7800   12.6000 N.pl3 501  ARG501      0.1354
     33  NH2       -0.1700  -38.6130   10.4680 N.pl3 501  ARG501      0.1354
     34  N         -1.8150  -43.5600   16.6870 N.am  502  GLU502     -0.1979
     35  CA        -1.5270  -43.9280   18.0840 C.3   502  GLU502      0.1602
     36  C         -1.9180  -45.3780   18.4440 C.2   502  GLU502      0.2287
     37  O         -1.9630  -45.7450   19.6270 O.2   502  GLU502     -0.2864
     38  CB        -2.1530  -42.9220   19.0680 C.3   502  GLU502      0.0415
     39  CG        -1.3210  -41.6570   19.2760 C.3   502  GLU502      0.1163
     40  CD        -1.5560  -40.5860   18.2240 C.2   502  GLU502      0.3649
     41  OE1       -2.7000  -40.1080   18.1010 O.co2 502  GLU502     -0.2457
     42  OE2       -0.5760  -40.1950   17.5590 O.co2 502  GLU502     -0.2457
     43  N          3.0930  -38.9330    8.2490 N.3   573  TRP573     -0.1227
     44  CA         3.4480  -38.8840    9.6780 C.3   573  TRP573      0.1737
     45  C          3.7950  -37.4880   10.2150 C.2   573  TRP573      0.2595
     46  O          3.4480  -37.1700   11.3490 O.2   573  TRP573     -0.2718
     47  CB         4.6070  -39.8560    9.9700 C.3   573  TRP573      0.0564
     48  CG         5.0020  -39.9020   11.4260 C.ar  573  TRP573      0.0003
     49  CD1        4.5140  -40.7440   12.3840 C.ar  573  TRP573      0.0946
     50  CD2        5.9510  -39.0550   12.0840 C.ar  573  TRP573      0.0152
     51  NE1        5.0970  -40.4740   13.5870 N.ar  573  TRP573     -0.2442
     52  CE2        5.9800  -39.4370   13.4360 C.ar  573  TRP573      0.0810
     53  CE3        6.7680  -38.0000   11.6600 C.ar  573  TRP573      0.0012
     54  CZ2        6.8080  -38.8070   14.3750 C.ar  573  TRP573      0.0191
     55  CZ3        7.5870  -37.3740   12.5900 C.ar  573  TRP573      0.0001
     56  CH2        7.6010  -37.7840   13.9330 C.ar  573  TRP573      0.0015
     57  N          4.4860  -36.6660    9.4210 N.am  574  ASN574     -0.1960
     58  CA         4.8370  -35.3050    9.8570 C.3   574  ASN574      0.1819
     59  C          3.6350  -34.3740    9.6870 C.2   574  ASN574      0.2621
     60  O          3.1990  -34.1180    8.5630 O.2   574  ASN574     -0.2715
     61  CB         6.0560  -34.7750    9.0920 C.3   574  ASN574      0.1195
     62  CG         6.7800  -33.6530    9.8310 C.2   574  ASN574      0.2630
     63  OD1        6.1570  -32.7150   10.3400 O.2   574  ASN574     -0.2716
     64  ND2        8.1080  -33.7530    9.8980 N.am  574  ASN574     -0.0877
     65  N          3.1180  -33.8550   10.8030 N.am  575  ASP575     -0.1971
     66  CA         1.9320  -32.9820   10.7910 C.3   575  ASP575      0.1709
     67  C          2.2260  -31.5680   10.2820 C.2   575  ASP575      0.2293
     68  O          1.2940  -30.7720   10.1480 O.2   575  ASP575     -0.2864
     69  CB         1.2690  -32.9030   12.1880 C.3   575  ASP575      0.1436
     70  CG         0.2280  -34.0070   12.4270 C.2   575  ASP575      0.3671
     71  OD1       -0.5150  -34.3850   11.4800 O.co2 575  ASP575     -0.2456
     72  OD2        0.1370  -34.4790   13.5860 O.co2 575  ASP575     -0.2456
     73  N         15.1770  -33.7010   14.1920 N.3   692  LEU692     -0.1245
     74  CA        14.2010  -34.2750   13.2740 C.3   692  LEU692      0.1561
     75  C         14.5480  -34.0430   11.8120 C.2   692  LEU692      0.2260
     76  O         14.3190  -34.9150   10.9640 O.2   692  LEU692     -0.2867
     77  CB        12.8340  -33.6550   13.5770 C.3   692  LEU692      0.0270
     78  CG        11.6230  -34.0170   12.7240 C.3   692  LEU692      0.0019
     79  CD1       11.4500  -35.5210   12.5760 C.3   692  LEU692      0.0001
     80  CD2       10.3880  -33.3930   13.3640 C.3   692  LEU692      0.0001
     81  N          9.0120  -28.2380   15.0980 N.3   710  GLU710     -0.1245
     82  CA         9.3100  -28.7350   13.7540 C.3   710  GLU710      0.1567
     83  C         10.5570  -28.0650   13.1820 C.2   710  GLU710      0.2260
     84  O         11.3230  -28.7110   12.4630 O.2   710  GLU710     -0.2867
     85  CB         8.1080  -28.5240   12.8290 C.3   710  GLU710      0.0388
     86  CG         6.7670  -28.9390   13.4360 C.3   710  GLU710      0.1160
     87  CD         6.6690  -30.4060   13.8370 C.2   710  GLU710      0.3649
     88  OE1        5.8300  -30.7200   14.7050 O.co2 710  GLU710     -0.2457
     89  OE2        7.4200  -31.2530   13.3010 O.co2 710  GLU710     -0.2457
     90  N         12.9240  -33.8540   18.3340 N.3   715  PHE715     -0.1241
     91  CA        11.5970  -34.4250   18.5090 C.3   715  PHE715      0.1605
     92  C         11.7990  -35.8610   18.9700 C.2   715  PHE715      0.2264
     93  O         12.3030  -36.6860   18.2130 O.2   715  PHE715     -0.2867
     94  CB        10.8030  -34.3570   17.2050 C.3   715  PHE715      0.0534
     95  CG         9.3550  -34.0440   17.4030 C.ar  715  PHE715     -0.0203
     96  CD1        8.4410  -35.0470   17.7440 C.ar  715  PHE715     -0.0042
     97  CD2        8.9020  -32.7550   17.2690 C.ar  715  PHE715     -0.0042
     98  CE1        7.1010  -34.7440   17.9420 C.ar  715  PHE715     -0.0003
     99  CE2        7.5640  -32.4370   17.4540 C.ar  715  PHE715     -0.0003
    100  CZ         6.6620  -33.4370   17.7810 C.ar  715  PHE715     -0.0000
    101  N          9.9230  -38.5760   19.9230 N.3   717  HIS717     -0.1241
    102  CA         9.2680  -39.7230   19.2770 C.3   717  HIS717      0.1621
    103  C         10.0370  -40.1470   18.0300 C.2   717  HIS717      0.2264
    104  O         10.3480  -41.3120   17.8600 O.2   717  HIS717     -0.2867
    105  CB         7.8290  -39.3760   18.9190 C.3   717  HIS717      0.0745
    106  CG         7.0790  -40.4910   18.2670 C.ar  717  HIS717      0.0817
    107  ND1        6.0340  -40.2710   17.4020 N.ar  717  HIS717     -0.2268
    108  CD2        7.2040  -41.8330   18.3700 C.ar  717  HIS717      0.1154
    109  CE1        5.5610  -41.4290   16.9810 C.ar  717  HIS717      0.1986
    110  NE2        6.2550  -42.3940   17.5500 N.ar  717  HIS717     -0.2212
    111  N          7.4760  -34.1860   25.0560 N.3   774  GLN774     -0.1245
    112  CA         7.4470  -34.2680   23.5850 C.3   774  GLN774      0.1566
    113  C          8.7710  -34.0360   22.8730 C.2   774  GLN774      0.2260
    114  O          9.1070  -34.7880   21.9640 O.2   774  GLN774     -0.2867
    115  CB         6.3880  -33.3400   22.9890 C.3   774  GLN774      0.0367
    116  CG         5.9050  -33.7860   21.6150 C.3   774  GLN774      0.0905
    117  CD         5.0990  -32.7440   20.8590 C.2   774  GLN774      0.2608
    118  OE1        5.3210  -31.5330   20.9800 O.2   774  GLN774     -0.2717
    119  NE2        4.1570  -33.2180   20.0570 N.am  774  GLN774     -0.0878
@<TRIPOS>BOND
     1    43    44    1
     2    60    59    2
     3    61    62    1
     4    61    58    1
     5    57    58    1
     6    57    45   am
     7    44    47    1
     8    44    45    1
     9    59    58    1
    10    59    65   am
    11    62    64   am
    12    62    63    2
    13    47    48    1
    14    68    67    2
    15    45    46    2
    16    67    66    1
    17    33    31    1
    18    66    65    1
    19    66    69    1
    20    76    75    2
    21    48    50   ar
    22    48    49   ar
    23    71    70   ar
    24    53    50   ar
    25    53    55   ar
    26    31    30    2
    27    31    32    1
    28    75    74    1
    29    50    52   ar
    30    69    70    1
    31    30    29    1
    32    49    51   ar
    33    70    72   ar
    34    84    83    2
    35    79    78    1
    36    55    56   ar
    37    78    80    1
    38    78    77    1
    39    85    86    1
    40    85    82    1
    41    83    82    1
    42    74    77    1
    43    74    73    1
    44    89    87   ar
    45    86    87    1
    46    52    51   ar
    47    52    54   ar
    48    27    28    1
    49    27    24    1
    50    29    28    1
    51    82    81    1
    52    87    88   ar
    53    56    54   ar
    54    23    24    1
    55    24    25    1
    56    25    26    2
    57    25    34   am
    58    34    35    1
    59   109   107   ar
    60   109   110   ar
    61    94    95    1
    62    94    91    1
    63    97    95   ar
    64    97    99   ar
    65   107   106   ar
    66    95    96   ar
    67    99   100   ar
    68    22    20    1
    69   110   108   ar
    70    42    40   ar
    71    96    98   ar
    72   100    98   ar
    73   104   103    2
    74   103   102    1
    75    35    36    1
    76    35    38    1
    77    41    40   ar
    78    93    92    2
    79    40    39    1
    80   106   108   ar
    81   106   105    1
    82    90    91    1
    83    36    37    2
    84    91    92    1
    85    20    19    2
    86    20    21    1
    87    19    18    1
    88   105   102    1
    89    38    39    1
    90   102   101    1
    91    18    17    1
    92    13    16    1
    93    13    14    1
    94    13    12    1
    95    17    16    1
    96   119   117   am
    97    14    15    2
    98    11     9    1
    99   117   118    2
   100   117   116    1
   101     6     5    1
   102     6     7    1
   103     8     9    2
   104     8     7    1
   105     9    10    1
   106   116   115    1
   107     5     2    1
   108   114   113    2
   109     1     2    1
   110     4     3    2
   111   113   112    1
   112     2     3    1
   113   115   112    1
   114   112   111    1
