@<TRIPOS>MOLECULE
tmp/5nzkA00.pdb
 84 81 0 0 0
SMALL
GASTEIGER

@<TRIPOS>ATOM
      1  N         20.9040   33.9620   -8.0090 N.3    57  ASP57      -0.1239
      2  CA        22.0700   34.7790   -8.2010 C.3    57  ASP57       0.1674
      3  C         22.8590   34.9670   -6.9270 C.2    57  ASP57       0.2266
      4  O         24.0380   35.1830   -6.9600 O.2    57  ASP57      -0.2867
      5  CB        21.6790   36.0990   -8.8000 C.3    57  ASP57       0.1410
      6  CG        21.5510   36.0250  -10.2670 C.2    57  ASP57       0.3668
      7  OD1       21.9240   34.9970  -10.8320 O.co2  57  ASP57      -0.2456
      8  OD2       21.0760   36.9810  -10.8690 O.co2  57  ASP57      -0.2456
      9  N         10.3090   33.5540  -11.6110 N.3   242  CYS242     -0.1221
     10  CA        10.8550   34.6980  -12.1890 C.3   242  CYS242      0.1808
     11  C         10.0510   35.8750  -11.8650 C.2   242  CYS242      0.2601
     12  O          8.9380   35.7850  -11.5360 O.2   242  CYS242     -0.2717
     13  CB        10.8640   34.5430  -13.6610 C.3   242  CYS242      0.0970
     14  SG        12.3630   33.9190  -14.2660 S.3   242  CYS242     -0.0800
     15  N         10.7070   37.0270  -11.9010 N.am  243  ARG243     -0.1979
     16  CA        10.0370   38.2760  -11.6070 C.3   243  ARG243      0.1597
     17  C          9.0740   38.6200  -12.7290 C.2   243  ARG243      0.2287
     18  O          9.4060   38.5130  -13.9090 O.2   243  ARG243     -0.2864
     19  CB        11.0560   39.4010  -11.4240 C.3   243  ARG243      0.0334
     20  CG        10.5400   40.5790  -10.6130 C.3   243  ARG243      0.0492
     21  CD        10.9100   40.4440   -9.1450 C.3   243  ARG243      0.2205
     22  NE        10.8570   41.7260   -8.4480 N.pl3 243  ARG243     -0.0865
     23  CZ         9.8600   42.5980   -8.5610 C.cat 243  ARG243      0.5346
     24  NH1        8.8270   42.3280   -9.3470 N.pl3 243  ARG243      0.1354
     25  NH2        9.8960   43.7400   -7.8890 N.pl3 243  ARG243      0.1354
     26  N          6.7920   40.9860  -15.0890 N.3   245  THR245     -0.1218
     27  CA         6.8780   42.2450  -15.8100 C.3   245  THR245      0.1862
     28  C          5.6020   42.5120  -16.5440 C.2   245  THR245      0.2287
     29  O          4.8050   41.6460  -16.6750 O.2   245  THR245     -0.2866
     30  CB         7.9630   42.2350  -16.8390 C.3   245  THR245      0.1770
     31  OG1        7.5600   41.4230  -17.9170 O.3   245  THR245     -0.2211
     32  CG2        9.1530   41.6940  -16.2890 C.3   245  THR245      0.0375
     33  N         13.9140   32.6720   -6.7030 N.3   365  VAL365     -0.1231
     34  CA        13.9050   33.6020   -7.8250 C.3   365  VAL365      0.1692
     35  C         15.1340   33.3460   -8.6850 C.2   365  VAL365      0.2592
     36  O         16.2650   33.3330   -8.1850 O.2   365  VAL365     -0.2718
     37  CB        13.8710   35.0560   -7.3320 C.3   365  VAL365      0.0266
     38  CG1       13.6740   36.0050   -8.5080 C.3   365  VAL365      0.0020
     39  CG2       12.7760   35.2430   -6.2930 C.3   365  VAL365      0.0020
     40  N         14.9150   33.1420   -9.9750 N.am  366  VAL366     -0.1966
     41  CA        16.0050   32.8680  -10.9100 C.3   366  VAL366      0.1712
     42  C         15.9530   33.9240  -12.0050 C.2   366  VAL366      0.2458
     43  O         14.8920   34.5100  -12.2770 O.2   366  VAL366     -0.2730
     44  CB        15.9200   31.4360  -11.4850 C.3   366  VAL366      0.0289
     45  CG1       15.9030   30.4180  -10.3570 C.3   366  VAL366      0.0023
     46  CG2       14.6950   31.2780  -12.3680 C.3   366  VAL366      0.0023
     47  N         17.0860   34.2060  -12.6450 N.am  367  PRO367     -0.2716
     48  CA        17.0830   35.1690  -13.7500 C.3   367  PRO367      0.1536
     49  C         16.3290   34.6340  -14.9540 C.2   367  PRO367      0.2598
     50  O         16.1950   33.4240  -15.1510 O.2   367  PRO367     -0.2715
     51  CB        18.5710   35.3560  -14.0660 C.3   367  PRO367      0.0310
     52  CG        19.2190   34.1170  -13.5560 C.3   367  PRO367      0.0237
     53  CD        18.4430   33.7240  -12.3410 C.3   367  PRO367      0.0939
     54  N         15.8520   35.5640  -15.7810 N.am  368  ARG368     -0.1964
     55  CA        14.9820   35.1920  -16.8870 C.3   368  ARG368      0.1729
     56  C         15.7060   34.3860  -17.9580 C.2   368  ARG368      0.2616
     57  O         15.0440   33.7800  -18.8080 O.2   368  ARG368     -0.2715
     58  CB        14.3510   36.4390  -17.5020 C.3   368  ARG368      0.0348
     59  CG        12.9280   36.1990  -17.9360 C.3   368  ARG368      0.0492
     60  CD        12.3970   37.2760  -18.8390 C.3   368  ARG368      0.2205
     61  NE        11.0850   36.8890  -19.3390 N.pl3 368  ARG368     -0.0865
     62  CZ         9.9480   37.1250  -18.6970 C.cat 368  ARG368      0.5346
     63  NH1        9.9610   37.7620  -17.5320 N.pl3 368  ARG368      0.1354
     64  NH2        8.7980   36.7310  -19.2230 N.pl3 368  ARG368      0.1354
     65  N         17.0410   34.3550  -17.9320 N.am  369  SER369     -0.1950
     66  CA        17.7780   33.5040  -18.8620 C.3   369  SER369      0.1924
     67  C         17.4170   32.0320  -18.6870 C.2   369  SER369      0.2314
     68  O         17.5370   31.2490  -19.6360 O.2   369  SER369     -0.2863
     69  CB        19.2830   33.7100  -18.6840 C.3   369  SER369      0.2116
     70  OG        19.6920   33.4410  -17.3520 O.3   369  SER369     -0.2180
     71  N         23.6340   40.6150  -21.1710 N.3   404  GLY404     -0.1210
     72  CA        22.5060   39.9410  -20.5590 C.3   404  GLY404      0.1956
     73  C         21.1470   40.3370  -21.0860 C.2   404  GLY404      0.2611
     74  O         20.1350   39.8760  -20.5510 O.2   404  GLY404     -0.2717
     75  N         21.0870   41.1790  -22.1150 N.am  405  HIS405     -0.1975
     76  CA        19.8200   41.5720  -22.7170 C.3   405  HIS405      0.1656
     77  C         19.7010   40.9670  -24.1060 C.2   405  HIS405      0.2291
     78  O         20.5300   41.2620  -24.9800 O.2   405  HIS405     -0.2864
     79  CB        19.6990   43.0930  -22.7820 C.3   405  HIS405      0.0771
     80  CG        19.5670   43.7430  -21.4400 C.ar  405  HIS405      0.0820
     81  ND1       18.3610   43.8490  -20.7790 N.ar  405  HIS405     -0.2267
     82  CD2       20.4900   44.3130  -20.6290 C.ar  405  HIS405      0.1154
     83  CE1       18.5470   44.4590  -19.6220 C.ar  405  HIS405      0.1986
     84  NE2       19.8300   44.7510  -19.5070 N.ar  405  HIS405     -0.2212
@<TRIPOS>BOND
     1    78    77    2
     2    77    76    1
     3    79    76    1
     4    79    80    1
     5    76    75    1
     6    75    73   am
     7    80    81   ar
     8    80    82   ar
     9    71    72    1
    10    73    72    1
    11    73    74    2
    12    81    83   ar
    13    82    84   ar
    14    68    67    2
    15    83    84   ar
    16    61    60    1
    17    61    62    2
    18    64    62    1
    19    66    67    1
    20    66    69    1
    21    66    65    1
    22    60    59    1
    23    57    56    2
    24    62    63    1
    25    69    70    1
    26    56    65   am
    27    56    55    1
    28    59    58    1
    29    31    30    1
    30    58    55    1
    31    55    54    1
    32    30    32    1
    33    30    27    1
    34    29    28    2
    35    28    27    1
    36    27    26    1
    37    54    49   am
    38    50    49    2
    39    49    48    1
    40    14    13    1
    41    51    48    1
    42    51    52    1
    43    18    17    2
    44    48    47    1
    45    13    10    1
    46    52    53    1
    47    17    16    1
    48    47    53    1
    49    47    42   am
    50    46    44    1
    51    43    42    2
    52    10    11    1
    53    10     9    1
    54    42    41    1
    55    15    11   am
    56    15    16    1
    57    11    12    2
    58    16    19    1
    59    44    41    1
    60    44    45    1
    61    19    20    1
    62    41    40    1
    63     8     6   ar
    64     7     6   ar
    65    20    21    1
    66     6     5    1
    67    40    35   am
    68    24    23    1
    69    21    22    1
    70     5     2    1
    71    35    36    2
    72    35    34    1
    73    23    22    2
    74    23    25    1
    75    38    37    1
    76     2     1    1
    77     2     3    1
    78    34    37    1
    79    34    33    1
    80    37    39    1
    81     4     3    2
