@<TRIPOS>MOLECULE
tmp/5nzlA00.pdb
 74 70 0 0 0
SMALL
GASTEIGER

@<TRIPOS>ATOM
      1  N         20.8610   34.5260   -8.1310 N.3    57  ASP57      -0.1239
      2  CA        22.0370   35.3720   -8.3090 C.3    57  ASP57       0.1674
      3  C         22.8370   35.5040   -7.0180 C.2    57  ASP57       0.2266
      4  O         24.0660   35.6340   -7.0580 O.2    57  ASP57      -0.2867
      5  CB        21.6210   36.7540   -8.8140 C.3    57  ASP57       0.1410
      6  CG        21.4600   36.8020  -10.3210 C.2    57  ASP57       0.3668
      7  OD1       21.8450   35.8240  -10.9950 O.co2  57  ASP57      -0.2456
      8  OD2       20.9480   37.8210  -10.8320 O.co2  57  ASP57      -0.2456
      9  N         10.2480   33.9880  -11.9120 N.3   242  CYS242     -0.1221
     10  CA        10.8070   35.2350  -12.4060 C.3   242  CYS242      0.1808
     11  C          9.8690   36.3800  -12.0530 C.2   242  CYS242      0.2601
     12  O          8.6890   36.1760  -11.7590 O.2   242  CYS242     -0.2717
     13  CB        11.0320   35.1940  -13.9240 C.3   242  CYS242      0.0970
     14  SG        12.3500   34.0870  -14.4700 S.3   242  CYS242     -0.0800
     15  N         10.4040   37.5970  -12.0850 N.am  243  ARG243     -0.1979
     16  CA         9.5930   38.7630  -11.7690 C.3   243  ARG243      0.1597
     17  C          8.6700   39.1060  -12.9320 C.2   243  ARG243      0.2287
     18  O          9.0750   39.0920  -14.0980 O.2   243  ARG243     -0.2864
     19  CB        10.4820   39.9550  -11.4170 C.3   243  ARG243      0.0334
     20  CG        11.1860   39.7860  -10.0870 C.3   243  ARG243      0.0492
     21  CD        12.2640   40.8280   -9.8630 C.3   243  ARG243      0.2205
     22  NE        13.2300   40.3620   -8.8730 N.pl3 243  ARG243     -0.0865
     23  CZ        13.0690   40.4770   -7.5590 C.cat 243  ARG243      0.5346
     24  NH1       11.9790   41.0510   -7.0670 N.pl3 243  ARG243      0.1354
     25  NH2       14.0000   40.0170   -6.7360 N.pl3 243  ARG243      0.1354
     26  N          6.5830   41.2100  -15.4960 N.3   245  THR245     -0.1218
     27  CA         6.5840   42.4970  -16.1670 C.3   245  THR245      0.1862
     28  C          5.1570   42.8350  -16.5920 C.2   245  THR245      0.2287
     29  O          4.2060   42.1010  -16.3090 O.2   245  THR245     -0.2866
     30  CB         7.5390   42.4810  -17.3630 C.3   245  THR245      0.1770
     31  OG1        6.9950   41.6610  -18.4040 O.3   245  THR245     -0.2211
     32  CG2        8.8970   41.9280  -16.9510 C.3   245  THR245      0.0375
     33  N         13.8220   33.1340   -6.8730 N.3   365  VAL365     -0.1231
     34  CA        13.7930   34.0930   -7.9720 C.3   365  VAL365      0.1692
     35  C         15.0230   33.8650   -8.8390 C.2   365  VAL365      0.2592
     36  O         16.1570   33.8850   -8.3460 O.2   365  VAL365     -0.2718
     37  CB        13.7400   35.5360   -7.4510 C.3   365  VAL365      0.0266
     38  CG1       13.4110   36.4960   -8.5860 C.3   365  VAL365      0.0020
     39  CG2       12.7060   35.6500   -6.3440 C.3   365  VAL365      0.0020
     40  N         14.7990   33.6330  -10.1240 N.am  366  VAL366     -0.1966
     41  CA        15.8840   33.3620  -11.0590 C.3   366  VAL366      0.1712
     42  C         15.8510   34.4290  -12.1410 C.2   366  VAL366      0.2458
     43  O         14.8100   35.0510  -12.3930 O.2   366  VAL366     -0.2730
     44  CB        15.7740   31.9460  -11.6640 C.3   366  VAL366      0.0289
     45  CG1       15.8420   30.8920  -10.5610 C.3   366  VAL366      0.0023
     46  CG2       14.4950   31.8080  -12.4740 C.3   366  VAL366      0.0023
     47  N         16.9830   34.6900  -12.7790 N.am  367  PRO367     -0.2716
     48  CA        16.9990   35.6140  -13.9130 C.3   367  PRO367      0.1536
     49  C         16.1790   35.0830  -15.0780 C.2   367  PRO367      0.2598
     50  O         15.9870   33.8770  -15.2480 O.2   367  PRO367     -0.2715
     51  CB        18.4840   35.6970  -14.2750 C.3   367  PRO367      0.0310
     52  CG        19.0990   34.4640  -13.7010 C.3   367  PRO367      0.0237
     53  CD        18.3270   34.2020  -12.4490 C.3   367  PRO367      0.0939
     54  N         15.7060   36.0160  -15.9090 N.am  368  ARG368     -0.1964
     55  CA        14.8350   35.6450  -17.0170 C.3   368  ARG368      0.1729
     56  C         15.5580   34.8650  -18.1090 C.2   368  ARG368      0.2616
     57  O         14.8950   34.3400  -19.0080 O.2   368  ARG368     -0.2715
     58  CB        14.1750   36.8880  -17.6140 C.3   368  ARG368      0.0348
     59  CG        12.7870   36.5970  -18.1590 C.3   368  ARG368      0.0492
     60  CD        12.1920   37.7530  -18.9310 C.3   368  ARG368      0.2205
     61  NE        10.8310   37.4350  -19.3530 N.pl3 368  ARG368     -0.0865
     62  CZ         9.7510   37.6630  -18.6130 C.cat 368  ARG368      0.5346
     63  NH1        9.8720   38.2190  -17.4150 N.pl3 368  ARG368      0.1354
     64  NH2        8.5490   37.3380  -19.0700 N.pl3 368  ARG368      0.1354
     65  N         16.8900   34.7710  -18.0580 N.am  369  SER369     -0.1950
     66  CA        17.5950   33.9110  -19.0030 C.3   369  SER369      0.1924
     67  C         17.2210   32.4500  -18.8090 C.2   369  SER369      0.2314
     68  O         17.2980   31.6600  -19.7570 O.2   369  SER369     -0.2863
     69  CB        19.1060   34.0850  -18.8630 C.3   369  SER369      0.2116
     70  OG        19.5150   33.9330  -17.5150 O.3   369  SER369     -0.2180
     71  N         24.3580   41.9090  -22.3080 N.3   404  GLY404     -0.1225
     72  CA        23.2710   41.4210  -21.4890 C.3   404  GLY404      0.1811
     73  C         21.8800   41.6400  -22.0400 C.2   404  GLY404      0.2280
     74  O         20.9260   41.0610  -21.5050 O.2   404  GLY404     -0.2866
@<TRIPOS>BOND
     1    71    72    1
     2    73    74    2
     3    73    72    1
     4    68    67    2
     5    61    60    1
     6    61    62    2
     7    64    62    1
     8    57    56    2
     9    66    69    1
    10    66    67    1
    11    66    65    1
    12    60    59    1
    13    69    70    1
    14    62    63    1
    15    31    30    1
    16    59    58    1
    17    56    65   am
    18    56    55    1
    19    58    55    1
    20    30    32    1
    21    30    27    1
    22    55    54    1
    23    28    29    2
    24    28    27    1
    25    27    26    1
    26    54    49   am
    27    50    49    2
    28    49    48    1
    29    14    13    1
    30    51    48    1
    31    51    52    1
    32    18    17    2
    33    13    10    1
    34    48    47    1
    35    52    53    1
    36    17    16    1
    37    47    53    1
    38    47    42   am
    39    46    44    1
    40    10    11    1
    41    10     9    1
    42    43    42    2
    43    42    41    1
    44    15    11   am
    45    15    16    1
    46    11    12    2
    47    16    19    1
    48    44    41    1
    49    44    45    1
    50    19    20    1
    51    41    40    1
    52     7     6   ar
    53     8     6   ar
    54     6     5    1
    55    40    35   am
    56    20    21    1
    57    21    22    1
    58    22    23    2
    59    35    36    2
    60    35    34    1
    61     5     2    1
    62    38    37    1
    63     2     1    1
    64     2     3    1
    65    34    37    1
    66    34    33    1
    67    23    24    1
    68    23    25    1
    69    37    39    1
    70     4     3    2
