@<TRIPOS>MOLECULE
tmp/5nzmA00.pdb
 107 105 0 0 0
SMALL
GASTEIGER

@<TRIPOS>ATOM
      1  N         23.9680   12.0030    2.7870 N.3   242  CYS242     -0.1221
      2  CA        24.7500   10.9170    3.3560 C.3   242  CYS242      0.1808
      3  C         25.0560   11.2150    4.8160 C.2   242  CYS242      0.2601
      4  O         25.0690   12.3730    5.2430 O.2   242  CYS242     -0.2717
      5  CB        26.0670   10.6940    2.5920 C.3   242  CYS242      0.0970
      6  SG        25.9020    9.9160    0.9690 S.3   242  CYS242     -0.0800
      7  N         25.2990   10.1510    5.5770 N.am  243  ARG243     -0.1965
      8  CA        25.7010   10.2980    6.9690 C.3   243  ARG243      0.1729
      9  C         27.0620   10.9810    7.0440 C.2   243  ARG243      0.2616
     10  O         28.0000   10.6010    6.3370 O.2   243  ARG243     -0.2715
     11  CB        25.7500    8.9250    7.6440 C.3   243  ARG243      0.0348
     12  CG        25.3690    8.9180    9.1180 C.3   243  ARG243      0.0492
     13  CD        23.8560    8.8930    9.3160 C.3   243  ARG243      0.2205
     14  NE        23.2310    7.7240    8.6980 N.pl3 243  ARG243     -0.0865
     15  CZ        21.9770    7.3410    8.9190 C.cat 243  ARG243      0.5346
     16  NH1       21.2070    8.0290    9.7520 N.pl3 243  ARG243      0.1354
     17  NH2       21.4910    6.2660    8.3110 N.pl3 243  ARG243      0.1354
     18  N         27.1670   12.0010    7.8930 N.am  244  ARG244     -0.1963
     19  CA        28.4060   12.7580    8.0130 C.3   244  ARG244      0.1729
     20  C         29.4210   12.0140    8.8710 C.2   244  ARG244      0.2616
     21  O         29.0780   11.4370    9.9070 O.2   244  ARG244     -0.2715
     22  CB        28.1450   14.1370    8.6200 C.3   244  ARG244      0.0348
     23  CG        27.4290   15.1190    7.7120 C.3   244  ARG244      0.0492
     24  CD        27.1670   16.4260    8.4480 C.3   244  ARG244      0.2205
     25  NE        28.3170   17.3270    8.4320 N.pl3 244  ARG244     -0.0865
     26  CZ        28.5610   18.2380    9.3690 C.cat 244  ARG244      0.5346
     27  NH1       27.7480   18.3560   10.4090 N.pl3 244  ARG244      0.1354
     28  NH2       29.6250   19.0240    9.2730 N.pl3 244  ARG244      0.1354
     29  N         30.6760   12.0390    8.4360 N.am  245  THR245     -0.1951
     30  CA        31.8000   11.5300    9.2060 C.3   245  THR245      0.1897
     31  C         32.7060   12.6890    9.6030 C.2   245  THR245      0.2313
     32  O         32.5520   13.8180    9.1320 O.2   245  THR245     -0.2863
     33  CB        32.5920   10.4840    8.4100 C.3   245  THR245      0.1794
     34  OG1       33.2790   11.1210    7.3240 O.3   245  THR245     -0.2208
     35  CG2       31.6610    9.4140    7.8580 C.3   245  THR245      0.0378
     36  N         35.5380   13.1270    8.6340 N.3   247  SER247     -0.1217
     37  CA        36.1570   13.6170    7.4100 C.3   247  SER247      0.1889
     38  C         35.3180   14.6960    6.7420 C.2   247  SER247      0.2288
     39  O         35.8290   15.4180    5.8800 O.2   247  SER247     -0.2866
     40  CB        36.3790   12.4620    6.4330 C.3   247  SER247      0.2089
     41  OG        36.2960   11.2130    7.0970 O.3   247  SER247     -0.2183
     42  N         18.2720    9.6660    2.7240 N.3   365  VAL365     -0.1231
     43  CA        19.6550    9.2950    3.0070 C.3   365  VAL365      0.1692
     44  C         20.0370    8.1040    2.1360 C.2   365  VAL365      0.2592
     45  O         19.2900    7.1230    2.0360 O.2   365  VAL365     -0.2718
     46  CB        19.8610    8.9990    4.5040 C.3   365  VAL365      0.0266
     47  CG1       18.5640    8.6220    5.1710 C.3   365  VAL365      0.0020
     48  CG2       20.8970    7.9000    4.7000 C.3   365  VAL365      0.0020
     49  N         21.1910    8.2010    1.4900 N.am  366  VAL366     -0.1966
     50  CA        21.6550    7.2020    0.5320 C.3   366  VAL366      0.1712
     51  C         23.0060    6.6940    1.0110 C.2   366  VAL366      0.2458
     52  O         23.6820    7.3540    1.8190 O.2   366  VAL366     -0.2730
     53  CB        21.7440    7.7810   -0.8990 C.3   366  VAL366      0.0289
     54  CG1       20.4020    8.3570   -1.3250 C.3   366  VAL366      0.0023
     55  CG2       22.8340    8.8410   -0.9720 C.3   366  VAL366      0.0023
     56  N         23.4310    5.5170    0.5500 N.am  367  PRO367     -0.2716
     57  CA        24.7600    5.0270    0.9260 C.3   367  PRO367      0.1536
     58  C         25.8620    5.8450    0.2720 C.2   367  PRO367      0.2598
     59  O         25.6700    6.4700   -0.7750 O.2   367  PRO367     -0.2715
     60  CB        24.7640    3.5770    0.4270 C.3   367  PRO367      0.0310
     61  CG        23.7500    3.5450   -0.6560 C.3   367  PRO367      0.0237
     62  CD        22.6840    4.5210   -0.2390 C.3   367  PRO367      0.0939
     63  N         27.0350    5.8240    0.9110 N.am  368  ARG368     -0.1964
     64  CA        28.1600    6.6460    0.4790 C.3   368  ARG368      0.1729
     65  C         28.5770    6.3690   -0.9610 C.2   368  ARG368      0.2616
     66  O         29.1990    7.2320   -1.5920 O.2   368  ARG368     -0.2715
     67  CB        29.3470    6.4180    1.4150 C.3   368  ARG368      0.0348
     68  CG        30.4850    7.4000    1.2480 C.3   368  ARG368      0.0492
     69  CD        30.4950    8.3990    2.3840 C.3   368  ARG368      0.2205
     70  NE        31.4500    9.4750    2.1500 N.pl3 368  ARG368     -0.0865
     71  CZ        31.7020   10.4470    3.0180 C.cat 368  ARG368      0.5346
     72  NH1       31.0700   10.4750    4.1840 N.pl3 368  ARG368      0.1354
     73  NH2       32.5860   11.3900    2.7240 N.pl3 368  ARG368      0.1354
     74  N         28.2490    5.1910   -1.4980 N.am  369  SER369     -0.1950
     75  CA        28.6110    4.8760   -2.8750 C.3   369  SER369      0.1924
     76  C         27.9590    5.8240   -3.8760 C.2   369  SER369      0.2314
     77  O         28.4610    5.9650   -4.9960 O.2   369  SER369     -0.2863
     78  CB        28.2280    3.4320   -3.2030 C.3   369  SER369      0.2116
     79  OG        26.8240    3.2510   -3.1550 O.3   369  SER369     -0.2180
     80  N         33.1600   -4.1750    0.6220 N.3   404  GLY404     -0.1210
     81  CA        32.3010   -3.0150    0.7200 C.3   404  GLY404      0.1956
     82  C         33.0110   -1.6980    0.9240 C.2   404  GLY404      0.2612
     83  O         32.3400   -0.6710    1.0810 O.2   404  GLY404     -0.2717
     84  N         34.3430   -1.6830    0.9210 N.am  405  HIS405     -0.1962
     85  CA        35.0870   -0.4730    1.2300 C.3   405  HIS405      0.1772
     86  C         36.2200   -0.2720    0.2300 C.2   405  HIS405      0.2462
     87  O         37.0050   -1.2050   -0.0180 O.2   405  HIS405     -0.2730
     88  CB        35.6390   -0.5260    2.6580 C.3   405  HIS405      0.0785
     89  CG        34.5910   -0.3460    3.7100 C.ar  405  HIS405      0.0821
     90  ND1       33.8070    0.7840    3.7910 N.ar  405  HIS405     -0.2267
     91  CD2       34.1960   -1.1520    4.7240 C.ar  405  HIS405      0.1154
     92  CE1       32.9730    0.6670    4.8080 C.ar  405  HIS405      0.1986
     93  NE2       33.1880   -0.4980    5.3910 N.ar  405  HIS405     -0.2212
     94  N         36.3400    0.9160   -0.3550 N.am  406  PRO406     -0.2727
     95  CA        37.4660    1.1770   -1.2430 C.3   406  PRO406      0.1402
     96  C         38.7680    1.1300   -0.4670 C.2   406  PRO406      0.2269
     97  O         38.7970    1.3790    0.7500 O.2   406  PRO406     -0.2865
     98  CB        37.1800    2.5900   -1.7730 C.3   406  PRO406      0.0296
     99  CG        35.7240    2.8210   -1.5190 C.3   406  PRO406      0.0237
    100  CD        35.4170    2.0600   -0.2720 C.3   406  PRO406      0.0939
    101  N         42.0570    2.5710    1.0500 N.3   408  VAL408     -0.1245
    102  CA        42.3670    3.9080    1.5390 C.3   408  VAL408      0.1561
    103  C         43.7480    4.3000    1.0340 C.2   408  VAL408      0.2260
    104  O         44.7310    3.5810    1.2560 O.2   408  VAL408     -0.2867
    105  CB        42.2910    3.9680    3.0720 C.3   408  VAL408      0.0252
    106  CG1       42.6440    5.3630    3.5610 C.3   408  VAL408      0.0019
    107  CG2       40.9020    3.5730    3.5460 C.3   408  VAL408      0.0019
@<TRIPOS>BOND
     1    77    76    2
     2    76    75    1
     3    78    79    1
     4    78    75    1
     5    75    74    1
     6    98    99    1
     7    98    95    1
     8    66    65    2
     9    99   100    1
    10    74    65   am
    11    54    53    1
    12    95    96    1
    13    95    94    1
    14    55    53    1
    15    65    64    1
    16    53    50    1
    17    59    58    2
    18    61    62    1
    19    61    60    1
    20    96    97    2
    21    94   100    1
    22    94    86   am
    23    62    56    1
    24    87    86    2
    25    86    85    1
    26    58    63   am
    27    58    57    1
    28    60    57    1
    29    64    63    1
    30    64    67    1
    31    50    51    1
    32    50    49    1
    33    56    57    1
    34    56    51   am
    35    80    81    1
    36    81    82    1
    37    84    82   am
    38    84    85    1
    39    82    83    2
    40     6     5    1
    41    51    52    2
    42   103   104    2
    43   103   102    1
    44   101   102    1
    45    85    88    1
    46    68    67    1
    47    68    69    1
    48    49    44   am
    49   102   105    1
    50    45    44    2
    51    44    43    1
    52    70    69    1
    53    70    71    2
    54     5     2    1
    55    88    89    1
    56    42    43    1
    57    73    71    1
    58     1     2    1
    59    43    46    1
    60    71    72    1
    61   105   107    1
    62   105   106    1
    63     2     3    1
    64    89    90   ar
    65    89    91   ar
    66    90    92   ar
    67    46    48    1
    68    46    47    1
    69    91    93   ar
    70    92    93   ar
    71     3     4    2
    72     3     7   am
    73     7     8    1
    74    39    38    2
    75    10     9    2
    76    40    41    1
    77    40    37    1
    78    38    37    1
    79     8     9    1
    80     8    11    1
    81     9    18   am
    82    34    33    1
    83    37    36    1
    84    11    12    1
    85    23    24    1
    86    23    22    1
    87    35    33    1
    88    18    19    1
    89    19    22    1
    90    19    20    1
    91    17    15    1
    92    33    30    1
    93    25    24    1
    94    25    26    2
    95    29    20   am
    96    29    30    1
    97    14    15    2
    98    14    13    1
    99    20    21    2
   100    15    16    1
   101    12    13    1
   102    32    31    2
   103    30    31    1
   104    28    26    1
   105    26    27    1
