@<TRIPOS>MOLECULE
tmp/5nzoA00.pdb
 108 105 0 0 0
SMALL
GASTEIGER

@<TRIPOS>ATOM
      1  N        -25.4650    7.0860    2.9180 N.3    52  LEU52      -0.1231
      2  CA       -25.5420    8.3330    3.7390 C.3    52  LEU52       0.1693
      3  C        -26.1890    9.3620    2.8810 C.2    52  LEU52       0.2592
      4  O        -25.5680    9.9360    2.0160 O.2    52  LEU52      -0.2718
      5  CB       -24.1020    8.7880    4.1520 C.3    52  LEU52       0.0284
      6  CG       -23.3120    7.6720    4.8460 C.3    52  LEU52       0.0019
      7  CD1      -21.9020    8.1130    5.2420 C.3    52  LEU52       0.0001
      8  CD2      -24.0540    7.0890    6.0130 C.3    52  LEU52       0.0001
      9  N        -27.4460    9.7120    3.2130 N.am   53  GLY53      -0.1957
     10  CA       -28.2810   10.5640    2.3640 C.3    53  GLY53       0.1869
     11  C        -29.3130    9.6630    1.6840 C.2    53  GLY53       0.2309
     12  O        -28.9480    8.9130    0.7960 O.2    53  GLY53      -0.2863
     13  N        -28.3880    6.5240    6.8740 N.3    75  TYR75      -0.1227
     14  CA       -28.6100    7.6330    7.7590 C.3    75  TYR75       0.1736
     15  C        -29.0400    8.8100    6.8980 C.2    75  TYR75       0.2595
     16  O        -28.4140    9.1330    5.8910 O.2    75  TYR75      -0.2718
     17  CB       -27.2760    7.9540    8.4580 C.3    75  TYR75       0.0548
     18  CG       -27.3600    9.2350    9.3050 C.ar   75  TYR75      -0.0200
     19  CD1      -27.1210   10.5020    8.7470 C.ar   75  TYR75      -0.0009
     20  CD2      -27.8320    9.1950   10.5900 C.ar   75  TYR75      -0.0009
     21  CE1      -27.2580   11.6800    9.5180 C.ar   75  TYR75       0.0417
     22  CE2      -27.9610   10.3500   11.3680 C.ar   75  TYR75       0.0417
     23  CZ       -27.7100   11.5990   10.8320 C.ar   75  TYR75       0.1957
     24  OH       -27.8900   12.7110   11.6700 O.3    75  TYR75      -0.2866
     25  N        -29.9930    9.5790    7.4340 N.am   76  ASP76      -0.1960
     26  CA       -30.4010   10.8510    6.8990 C.3    76  ASP76       0.1825
     27  C        -30.9860   11.6100    8.1190 C.2    76  ASP76       0.2464
     28  O        -31.7800   11.0480    8.8750 O.2    76  ASP76      -0.2730
     29  CB       -31.4540   10.7180    5.7950 C.3    76  ASP76       0.1450
     30  CG       -31.5890   11.9830    5.0050 C.2    76  ASP76       0.3671
     31  OD1      -32.1520   12.9260    5.5760 O.co2  76  ASP76      -0.2456
     32  OD2      -31.1360   12.0240    3.8220 O.co2  76  ASP76      -0.2456
     33  N        -30.5780   12.8590    8.3300 N.am   77  PRO77      -0.2715
     34  CA       -31.0720   13.6100    9.5230 C.3    77  PRO77       0.1536
     35  C        -32.4890   14.0660    9.3170 C.2    77  PRO77       0.2598
     36  O        -33.1040   14.5620   10.2490 O.2    77  PRO77      -0.2715
     37  CB       -30.1730   14.8350    9.5660 C.3    77  PRO77       0.0310
     38  CG       -29.6900   14.9740    8.1460 C.3    77  PRO77       0.0237
     39  CD       -29.5220   13.5960    7.6010 C.3    77  PRO77       0.0939
     40  N        -32.9900   13.9740    8.0750 N.am   78  ILE78      -0.1978
     41  CA       -34.2190   14.6380    7.6610 C.3    78  ILE78       0.1596
     42  C        -35.3560   13.6820    7.2990 C.2    78  ILE78       0.2287
     43  O        -36.5140   13.9050    7.6920 O.2    78  ILE78      -0.2864
     44  CB       -33.8460   15.6700    6.5390 C.3    78  ILE78       0.0276
     45  CG1      -34.5930   16.9840    6.7190 C.3    78  ILE78       0.0022
     46  CG2      -33.9370   15.1600    5.0890 C.3    78  ILE78       0.0022
     47  CD1      -33.6900   18.1260    7.1340 C.3    78  ILE78       0.0001
     48  N        -25.3010    7.4380   12.7600 N.3    94  LEU94      -0.1245
     49  CA       -23.9930    7.3580   12.0910 C.3    94  LEU94       0.1561
     50  C        -22.9830    6.5310   12.7560 C.2    94  LEU94       0.2260
     51  O        -22.2870    5.8010   12.0770 O.2    94  LEU94      -0.2867
     52  CB       -23.3270    8.7200   11.9670 C.3    94  LEU94       0.0270
     53  CG       -23.6810    9.6040   10.8260 C.3    94  LEU94       0.0019
     54  CD1      -22.8080   10.8480   10.8690 C.3    94  LEU94       0.0001
     55  CD2      -23.4990    8.8350    9.5080 C.3    94  LEU94       0.0001
     56  N        -24.6300   10.4960   -0.5000 N.3   107  HIS107     -0.1226
     57  CA       -25.6430   11.1470   -1.3260 C.3   107  HIS107      0.1752
     58  C        -26.2490   12.3650   -0.6110 C.2   107  HIS107      0.2597
     59  O        -27.4450   12.5250   -0.5470 O.2   107  HIS107     -0.2718
     60  CB       -26.7340   10.1330   -1.7580 C.3   107  HIS107      0.0759
     61  CG       -26.1750    8.9950   -2.5440 C.ar  107  HIS107      0.0818
     62  ND1      -25.7130    9.1970   -3.8100 N.ar  107  HIS107     -0.2268
     63  CD2      -25.8610    7.7280   -2.1950 C.ar  107  HIS107      0.1154
     64  CE1      -25.2440    8.0270   -4.2810 C.ar  107  HIS107      0.1986
     65  NE2      -25.3020    7.1230   -3.3180 N.ar  107  HIS107     -0.2212
     66  N        -25.3520   13.2560   -0.2110 N.am  108  THR108     -0.1939
     67  CA       -25.6790   14.4550    0.6170 C.3   108  THR108      0.2013
     68  C        -25.3060   15.6930   -0.1800 C.2   108  THR108      0.2484
     69  O        -24.4800   15.6510   -1.1140 O.2   108  THR108     -0.2729
     70  CB       -24.8850   14.4620    1.9600 C.3   108  THR108      0.1807
     71  OG1      -23.5200   14.6860    1.7130 O.3   108  THR108     -0.2208
     72  CG2      -24.9920   13.1580    2.6830 C.3   108  THR108      0.0379
     73  N        -25.8340   16.8460    0.2580 N.am  109  PRO109     -0.2726
     74  CA       -25.2950   18.1090   -0.2490 C.3   109  PRO109      0.1402
     75  C        -23.9780   18.3550    0.4510 C.2   109  PRO109      0.2269
     76  O        -23.6630   17.6160    1.3100 O.2   109  PRO109     -0.2865
     77  CB       -26.3550   19.1380    0.0930 C.3   109  PRO109      0.0296
     78  CG       -27.3680   18.4530    0.9040 C.3   109  PRO109      0.0237
     79  CD       -26.9780   17.0440    1.1590 C.3   109  PRO109      0.0939
     80  N        -22.2880   20.6400    2.7720 N.3   111  LEU111     -0.1245
     81  CA       -22.5760   21.6330    3.8720 C.3   111  LEU111      0.1561
     82  C        -21.4440   21.5360    4.8540 C.2   111  LEU111      0.2260
     83  O        -20.6900   20.5790    4.8700 O.2   111  LEU111     -0.2867
     84  CB       -23.8230   21.1830    4.5870 C.3   111  LEU111      0.0270
     85  CG       -25.0280   20.9460    3.6450 C.3   111  LEU111      0.0019
     86  CD1      -26.1800   20.4020    4.4790 C.3   111  LEU111      0.0001
     87  CD2      -25.4800   22.2450    3.0330 C.3   111  LEU111      0.0001
     88  N        -21.6210   20.5180    7.8220 N.3   113  SER113     -0.1202
     89  CA       -21.7980   19.2540    8.5110 C.3   113  SER113      0.2020
     90  C        -21.4540   18.0080    7.6930 C.2   113  SER113      0.2616
     91  O        -21.3010   16.9280    8.2430 O.2   113  SER113     -0.2717
     92  CB       -23.2070   19.1170    9.0890 C.3   113  SER113      0.2103
     93  OG       -24.1900   19.1880    8.0990 O.3   113  SER113     -0.2182
     94  N        -21.4020   18.1620    6.3820 N.am  114  THR114     -0.2006
     95  CA       -21.0720   17.0340    5.5080 C.3   114  THR114      0.1584
     96  C        -19.6900   17.1240    4.8450 C.3   114  THR114      0.2062
     97  O        -19.2970   16.1450    4.1050 O.3   114  THR114     -0.2184
     98  CB       -22.1500   16.8060    4.4110 C.3   114  THR114      0.1745
     99  OG1      -22.2310   17.9010    3.5160 O.3   114  THR114     -0.2212
    100  CG2      -23.4680   16.5320    5.0060 C.3   114  THR114      0.0374
    101  N        -17.3700   14.3640    5.9480 N.3   117  LEU117     -0.1245
    102  CA       -18.1970   13.3570    6.5840 C.3   117  LEU117      0.1561
    103  C        -17.4020   12.0810    6.7900 C.2   117  LEU117      0.2260
    104  O        -17.4940   11.4760    7.8510 O.2   117  LEU117     -0.2867
    105  CB       -19.4730   13.1260    5.7950 C.3   117  LEU117      0.0270
    106  CG       -20.5460   12.1560    6.3050 C.3   117  LEU117      0.0019
    107  CD1      -21.1060   12.6970    7.5970 C.3   117  LEU117      0.0001
    108  CD2      -21.6860   12.0040    5.3020 C.3   117  LEU117      0.0001
@<TRIPOS>BOND
     1    64    62   ar
     2    64    65   ar
     3    62    61   ar
     4    65    63   ar
     5    61    63   ar
     6    61    60    1
     7    60    57    1
     8    57    58    1
     9    57    56    1
    10    69    68    2
    11    58    59    2
    12    58    66   am
    13    74    77    1
    14    74    73    1
    15    74    75    1
    16    66    67    1
    17    68    73   am
    18    68    67    1
    19    77    78    1
    20    73    79    1
    21    75    76    2
    22    67    70    1
    23    12    11    2
    24    78    79    1
    25    11    10    1
    26    71    70    1
    27    70    72    1
    28     4     3    2
    29    10     9    1
    30    80    81    1
    31     3     9   am
    32     3     2    1
    33     1     2    1
    34    87    85    1
    35    99    98    1
    36    85    86    1
    37    85    84    1
    38     2     5    1
    39    32    30   ar
    40    81    84    1
    41    81    82    1
    42    97    96    1
    43     5     6    1
    44    98   100    1
    45    98    95    1
    46    96    95    1
    47     6     7    1
    48     6     8    1
    49    82    83    2
    50    30    31   ar
    51    30    29    1
    52    46    44    1
    53   108   106    1
    54    95    94    1
    55    29    26    1
    56   105   106    1
    57   105   102    1
    58    16    15    2
    59   101   102    1
    60   106   107    1
    61    94    90   am
    62    44    45    1
    63    44    41    1
    64   102   103    1
    65    45    47    1
    66   103   104    2
    67    13    14    1
    68    15    25   am
    69    15    14    1
    70    26    25    1
    71    26    27    1
    72    42    41    1
    73    42    43    2
    74    39    38    1
    75    39    33    1
    76    41    40    1
    77    90    91    2
    78    90    89    1
    79    14    17    1
    80    88    89    1
    81    40    35   am
    82    93    92    1
    83    27    33   am
    84    27    28    2
    85    38    37    1
    86    33    34    1
    87    17    18    1
    88    89    92    1
    89    19    18   ar
    90    19    21   ar
    91    18    20   ar
    92    35    34    1
    93    35    36    2
    94    55    53    1
    95    21    23   ar
    96    34    37    1
    97    20    22   ar
    98    53    54    1
    99    53    52    1
   100    23    22   ar
   101    23    24    1
   102    52    49    1
   103    51    50    2
   104    49    50    1
   105    49    48    1
