@<TRIPOS>MOLECULE
tmp/5nzpB00.pdb
 90 86 0 0 0
SMALL
GASTEIGER

@<TRIPOS>ATOM
      1  N        -29.4790  -14.1060  -24.0760 N.3    52  LEU52      -0.1231
      2  CA       -29.4490  -15.3560  -24.9070 C.3    52  LEU52       0.1693
      3  C        -28.9170  -16.4440  -24.0470 C.2    52  LEU52       0.2592
      4  O        -27.7170  -16.4290  -23.7400 O.2    52  LEU52      -0.2718
      5  CB       -28.6370  -15.0980  -26.1630 C.3    52  LEU52       0.0284
      6  CG       -29.0470  -13.9430  -27.0320 C.3    52  LEU52       0.0019
      7  CD1      -28.2310  -13.7650  -28.3010 C.3    52  LEU52       0.0001
      8  CD2      -30.5220  -13.9750  -27.3540 C.3    52  LEU52       0.0001
      9  N        -29.7510  -17.3740  -23.5940 N.am   53  GLY53      -0.1957
     10  CA       -29.4180  -18.3630  -22.6090 C.3    53  GLY53       0.1869
     11  C        -30.0770  -17.9770  -21.2950 C.2    53  GLY53       0.2309
     12  O        -29.6900  -16.9540  -20.7130 O.2    53  GLY53      -0.2863
     13  N        -34.0070  -15.4390  -25.3620 N.3    75  TYR75      -0.1227
     14  CA       -34.2390  -16.6420  -26.1400 C.3    75  TYR75       0.1736
     15  C        -33.5010  -17.7920  -25.4580 C.2    75  TYR75       0.2595
     16  O        -32.3130  -17.6460  -25.0580 O.2    75  TYR75      -0.2718
     17  CB       -33.8600  -16.4780  -27.6270 C.3    75  TYR75       0.0548
     18  CG       -33.9920  -17.7940  -28.3990 C.ar   75  TYR75      -0.0200
     19  CD1      -32.9120  -18.6520  -28.4890 C.ar   75  TYR75      -0.0009
     20  CD2      -35.1850  -18.1810  -28.9650 C.ar   75  TYR75      -0.0009
     21  CE1      -32.9950  -19.8700  -29.1420 C.ar   75  TYR75       0.0417
     22  CE2      -35.2940  -19.3790  -29.6460 C.ar   75  TYR75       0.0417
     23  CZ       -34.1830  -20.2200  -29.7200 C.ar   75  TYR75       0.1957
     24  OH       -34.2600  -21.4080  -30.4000 O.3    75  TYR75      -0.2866
     25  N        -34.1020  -18.9640  -25.4020 N.am   76  ASP76      -0.1960
     26  CA       -33.4170  -20.1510  -24.9440 C.3    76  ASP76       0.1825
     27  C        -34.2170  -21.2930  -25.5540 C.2    76  ASP76       0.2464
     28  O        -35.4020  -21.3150  -25.3300 O.2    76  ASP76      -0.2730
     29  CB       -33.4470  -20.3090  -23.4430 C.3    76  ASP76       0.1450
     30  CG       -32.6050  -21.4440  -22.9750 C.2    76  ASP76       0.3671
     31  OD1      -32.9080  -22.6230  -23.3150 O.co2  76  ASP76      -0.2456
     32  OD2      -31.6710  -21.2280  -22.2080 O.co2  76  ASP76      -0.2456
     33  N        -33.5650  -22.2760  -26.2070 N.am   77  PRO77      -0.2727
     34  CA       -34.3340  -23.3550  -26.8990 C.3    77  PRO77       0.1402
     35  C        -35.0970  -24.2980  -25.9830 C.2    77  PRO77       0.2269
     36  O        -36.0450  -24.8820  -26.4300 O.2    77  PRO77      -0.2865
     37  CB       -33.2530  -24.1030  -27.6680 C.3    77  PRO77       0.0296
     38  CG       -31.9920  -23.8220  -26.9390 C.3    77  PRO77       0.0237
     39  CD       -32.1390  -22.3710  -26.4740 C.3    77  PRO77       0.0939
     40  N        -35.1910  -15.6620  -32.1990 N.3    94  LEU94      -0.1245
     41  CA       -33.9370  -14.9050  -32.3510 C.3    94  LEU94       0.1561
     42  C        -34.0160  -13.8110  -33.3230 C.2    94  LEU94       0.2260
     43  O        -33.5870  -12.7120  -33.0810 O.2    94  LEU94      -0.2867
     44  CB       -32.7330  -15.7350  -32.7620 C.3    94  LEU94       0.0270
     45  CG       -31.9390  -16.5890  -31.8380 C.3    94  LEU94       0.0019
     46  CD1      -30.8740  -17.3910  -32.6130 C.3    94  LEU94       0.0001
     47  CD2      -31.4010  -15.6850  -30.7030 C.3    94  LEU94       0.0001
     48  N        -24.8500  -18.9240  -22.7400 N.3   108  THR108     -0.1204
     49  CA       -25.0880  -20.2850  -23.3170 C.3   108  THR108      0.1979
     50  C        -23.8550  -21.0780  -23.0940 C.2   108  THR108      0.2459
     51  O        -22.7260  -20.5580  -22.9800 O.2   108  THR108     -0.2732
     52  CB       -25.3660  -20.1580  -24.8460 C.3   108  THR108      0.1783
     53  OG1      -24.2400  -19.6660  -25.5380 O.3   108  THR108     -0.2211
     54  CG2      -26.5560  -19.2650  -25.1830 C.3   108  THR108      0.0376
     55  N        -24.0040  -22.4250  -23.2490 N.am  109  PRO109     -0.2728
     56  CA       -22.8090  -23.2320  -23.4090 C.3   109  PRO109      0.1401
     57  C        -22.2260  -23.0210  -24.8120 C.2   109  PRO109      0.2269
     58  O        -22.8290  -22.2760  -25.5830 O.2   109  PRO109     -0.2865
     59  CB       -23.2970  -24.6590  -23.2190 C.3   109  PRO109      0.0296
     60  CG       -24.7660  -24.6300  -23.2930 C.3   109  PRO109      0.0237
     61  CD       -25.2400  -23.1810  -23.2760 C.3   109  PRO109      0.0939
     62  N        -21.4890  -24.5880  -28.1040 N.3   111  LEU111     -0.1245
     63  CA       -21.9530  -25.7110  -28.9280 C.3   111  LEU111      0.1561
     64  C        -21.8530  -25.2980  -30.3670 C.2   111  LEU111      0.2260
     65  O        -21.7280  -24.1230  -30.6590 O.2   111  LEU111     -0.2867
     66  CB       -23.4150  -26.0090  -28.6240 C.3   111  LEU111      0.0270
     67  CG       -23.7820  -26.3570  -27.1980 C.3   111  LEU111      0.0019
     68  CD1      -25.2360  -26.0290  -26.9580 C.3   111  LEU111      0.0001
     69  CD2      -23.4670  -27.8120  -26.9200 C.3   111  LEU111      0.0001
     70  N        -24.3650  -24.7890  -32.2800 N.3   113  SER113     -0.1202
     71  CA       -25.4250  -23.8670  -32.4750 C.3   113  SER113      0.2020
     72  C        -25.1600  -22.4670  -31.8520 C.2   113  SER113      0.2619
     73  O        -25.7560  -21.5130  -32.2550 O.2   113  SER113     -0.2717
     74  CB       -26.6660  -24.4140  -31.8740 C.3   113  SER113      0.2103
     75  OG       -26.5610  -24.6720  -30.4720 O.3   113  SER113     -0.2182
     76  N        -24.1810  -22.3780  -30.9480 N.am  114  THR114     -0.1952
     77  CA       -23.8890  -21.1100  -30.2730 C.3   114  THR114      0.1897
     78  C        -22.5140  -20.5820  -30.6170 C.2   114  THR114      0.2313
     79  O        -22.2060  -19.4430  -30.2460 O.2   114  THR114     -0.2863
     80  CB       -24.0100  -21.2790  -28.7620 C.3   114  THR114      0.1794
     81  OG1      -22.9940  -22.1670  -28.3130 O.3   114  THR114     -0.2208
     82  CG2      -25.3750  -21.6670  -28.3370 C.3   114  THR114      0.0378
     83  N        -22.7790  -17.3480  -32.5720 N.3   117  LEU117     -0.1245
     84  CA       -24.1730  -16.9440  -32.4340 C.3   117  LEU117      0.1561
     85  C        -24.3250  -15.4480  -32.8380 C.2   117  LEU117      0.2260
     86  O        -25.3200  -15.0630  -33.4980 O.2   117  LEU117     -0.2867
     87  CB       -24.6180  -17.0900  -30.9520 C.3   117  LEU117      0.0270
     88  CG       -26.0920  -16.8360  -30.5430 C.3   117  LEU117      0.0019
     89  CD1      -26.9890  -17.7250  -31.4020 C.3   117  LEU117      0.0001
     90  CD2      -26.2350  -17.1140  -29.0470 C.3   117  LEU117      0.0001
@<TRIPOS>BOND
     1    86    85    2
     2    42    43    2
     3    42    41    1
     4    85    84    1
     5    44    41    1
     6    44    45    1
     7    46    45    1
     8    83    84    1
     9    71    70    1
    10    71    74    1
    11    71    72    1
    12    84    87    1
    13    41    40    1
    14    73    72    2
    15    74    75    1
    16    72    76   am
    17    45    47    1
    18    89    88    1
    19    87    88    1
    20    76    77    1
    21    65    64    2
    22    78    77    1
    23    78    79    2
    24    88    90    1
    25    24    23    1
    26    64    63    1
    27    77    80    1
    28    23    22   ar
    29    23    21   ar
    30    22    20   ar
    31    21    19   ar
    32    20    18   ar
    33    63    66    1
    34    63    62    1
    35    80    82    1
    36    80    81    1
    37    66    67    1
    38    19    18   ar
    39    18    17    1
    40     7     6    1
    41    37    38    1
    42    37    34    1
    43    17    14    1
    44     8     6    1
    45    67    68    1
    46    67    69    1
    47     6     5    1
    48    38    39    1
    49    34    33    1
    50    34    35    1
    51    39    33    1
    52    36    35    2
    53    33    27   am
    54     5     2    1
    55    14    15    1
    56    14    13    1
    57    58    57    2
    58    27    28    2
    59    27    26    1
    60    53    52    1
    61    15    25   am
    62    15    16    2
    63    25    26    1
    64    54    52    1
    65    26    29    1
    66     2     1    1
    67     2     3    1
    68    52    49    1
    69    57    56    1
    70     3     4    2
    71     3     9   am
    72     9    10    1
    73    29    30    1
    74    56    55    1
    75    56    59    1
    76    49    50    1
    77    49    48    1
    78    31    30   ar
    79    60    61    1
    80    60    59    1
    81    61    55    1
    82    55    50   am
    83    50    51    2
    84    30    32   ar
    85    10    11    1
    86    11    12    2
