@<TRIPOS>MOLECULE
tmp/5nzqA00.pdb
 108 105 0 0 0
SMALL
GASTEIGER

@<TRIPOS>ATOM
      1  N        -25.1360    7.3060    2.7490 N.3    52  LEU52      -0.1231
      2  CA       -25.2020    8.4750    3.6260 C.3    52  LEU52       0.1693
      3  C        -25.8630    9.5390    2.8010 C.2    52  LEU52       0.2592
      4  O        -25.2330   10.1040    1.9290 O.2    52  LEU52      -0.2718
      5  CB       -23.7900    8.8680    4.0510 C.3    52  LEU52       0.0284
      6  CG       -23.0580    7.8090    4.8240 C.3    52  LEU52       0.0019
      7  CD1      -21.6630    8.1870    5.1580 C.3    52  LEU52       0.0001
      8  CD2      -23.7330    7.2510    6.0150 C.3    52  LEU52       0.0001
      9  N        -27.1380    9.8410    3.0830 N.am   53  GLY53      -0.1957
     10  CA       -27.9430   10.6740    2.2160 C.3    53  GLY53       0.1869
     11  C        -28.9890    9.8340    1.4960 C.2    53  GLY53       0.2309
     12  O        -28.6490    9.0620    0.6070 O.2    53  GLY53      -0.2863
     13  N        -28.0790    6.5370    6.6750 N.3    75  TYR75      -0.1227
     14  CA       -28.3240    7.6460    7.6110 C.3    75  TYR75       0.1736
     15  C        -28.6800    8.9000    6.7980 C.2    75  TYR75       0.2595
     16  O        -28.0200    9.2160    5.7920 O.2    75  TYR75      -0.2718
     17  CB       -27.1180    7.9130    8.5810 C.3    75  TYR75       0.0548
     18  CG       -27.2550    9.1860    9.3930 C.ar   75  TYR75      -0.0200
     19  CD1      -26.9940   10.4070    8.8060 C.ar   75  TYR75      -0.0009
     20  CD2      -27.6740    9.1580   10.7160 C.ar   75  TYR75      -0.0009
     21  CE1      -27.1270   11.5880    9.5030 C.ar   75  TYR75       0.0417
     22  CE2      -27.8150   10.3210   11.4310 C.ar   75  TYR75       0.0417
     23  CZ       -27.5520   11.5370   10.8170 C.ar   75  TYR75       0.1957
     24  OH       -27.6910   12.6680   11.4960 O.3    75  TYR75      -0.2866
     25  N        -29.7000    9.6210    7.2810 N.am   76  ASP76      -0.1960
     26  CA       -30.1360   10.9100    6.7480 C.3    76  ASP76       0.1825
     27  C        -30.7820   11.7130    7.8950 C.2    76  ASP76       0.2464
     28  O        -31.6700   11.1980    8.5650 O.2    76  ASP76      -0.2730
     29  CB       -31.1520   10.7780    5.6170 C.3    76  ASP76       0.1450
     30  CG       -31.3090   12.0720    4.8430 C.2    76  ASP76       0.3671
     31  OD1      -31.8250   13.0280    5.4570 O.co2  76  ASP76      -0.2456
     32  OD2      -30.8370   12.2180    3.6920 O.co2  76  ASP76      -0.2456
     33  N        -30.3610   12.9790    8.1020 N.am   77  PRO77      -0.2715
     34  CA       -30.8040   13.6800    9.3270 C.3    77  PRO77       0.1536
     35  C        -32.2300   14.1650    9.2060 C.2    77  PRO77       0.2598
     36  O        -32.8450   14.4160   10.1690 O.2    77  PRO77      -0.2715
     37  CB       -29.8870   14.8850    9.3880 C.3    77  PRO77       0.0310
     38  CG       -29.5030   15.1520    7.9910 C.3    77  PRO77       0.0237
     39  CD       -29.3790   13.7840    7.3490 C.3    77  PRO77       0.0939
     40  N        -32.7210   14.2240    7.9710 N.am   78  ILE78      -0.1978
     41  CA       -33.9560   14.8930    7.6480 C.3    78  ILE78       0.1596
     42  C        -35.0040   13.8070    7.2440 C.2    78  ILE78       0.2287
     43  O        -36.1500   13.8700    7.7040 O.2    78  ILE78      -0.2864
     44  CB       -33.5550   15.9200    6.5150 C.3    78  ILE78       0.0276
     45  CG1      -34.1410   17.3290    6.7010 C.3    78  ILE78       0.0022
     46  CG2      -33.7710   15.3760    5.1020 C.3    78  ILE78       0.0022
     47  CD1      -33.1460   18.4670    6.5050 C.3    78  ILE78       0.0001
     48  N        -24.9520    7.3630   12.7180 N.3    94  LEU94      -0.1245
     49  CA       -23.6760    7.2650   12.0190 C.3    94  LEU94       0.1561
     50  C        -22.6210    6.4370   12.6860 C.2    94  LEU94       0.2260
     51  O        -21.8270    5.8150   12.0010 O.2    94  LEU94      -0.2867
     52  CB       -23.0540    8.6090   11.7950 C.3    94  LEU94       0.0270
     53  CG       -23.6080    9.5280   10.7700 C.3    94  LEU94       0.0019
     54  CD1      -22.6960   10.7300   10.7270 C.3    94  LEU94       0.0001
     55  CD2      -23.6370    8.9020    9.3820 C.3    94  LEU94       0.0001
     56  N        -24.4010   10.5660   -0.6800 N.3   107  HIS107     -0.1226
     57  CA       -25.3920   11.2780   -1.4670 C.3   107  HIS107      0.1752
     58  C        -26.0060   12.5000   -0.7540 C.2   107  HIS107      0.2597
     59  O        -27.2020   12.6380   -0.5700 O.2   107  HIS107     -0.2718
     60  CB       -26.4250   10.2610   -1.9080 C.3   107  HIS107      0.0759
     61  CG       -25.8250    9.1370   -2.7260 C.ar  107  HIS107      0.0818
     62  ND1      -25.3570    9.3590   -3.9950 N.ar  107  HIS107     -0.2268
     63  CD2      -25.3740    7.9100   -2.3650 C.ar  107  HIS107      0.1154
     64  CE1      -24.7660    8.2560   -4.4170 C.ar  107  HIS107      0.1986
     65  NE2      -24.8220    7.3380   -3.4790 N.ar  107  HIS107     -0.2212
     66  N        -25.0980   13.3890   -0.4010 N.am  108  THR108     -0.1939
     67  CA       -25.4030   14.6050    0.4420 C.3   108  THR108      0.2013
     68  C        -25.0370   15.8260   -0.3120 C.2   108  THR108      0.2484
     69  O        -24.1730   15.8020   -1.2040 O.2   108  THR108     -0.2729
     70  CB       -24.6070   14.6590    1.8140 C.3   108  THR108      0.1807
     71  OG1      -23.2000   14.8540    1.6130 O.3   108  THR108     -0.2208
     72  CG2      -24.7370   13.4590    2.5430 C.3   108  THR108      0.0379
     73  N        -25.5530   16.9710    0.1800 N.am  109  PRO109     -0.2726
     74  CA       -24.9700   18.2280   -0.2370 C.3   109  PRO109      0.1402
     75  C        -23.6270   18.4390    0.4810 C.2   109  PRO109      0.2269
     76  O        -23.2530   17.6240    1.3350 O.2   109  PRO109     -0.2865
     77  CB       -25.9900   19.2830    0.2010 C.3   109  PRO109      0.0296
     78  CG       -27.1110   18.6060    0.8920 C.3   109  PRO109      0.0237
     79  CD       -26.7500   17.1430    1.0320 C.3   109  PRO109      0.0939
     80  N        -21.9980   20.7310    2.7830 N.3   111  LEU111     -0.1245
     81  CA       -22.3020   21.6480    3.9130 C.3   111  LEU111      0.1561
     82  C        -21.1990   21.5290    4.9040 C.2   111  LEU111      0.2260
     83  O        -20.4790   20.5650    4.8510 O.2   111  LEU111     -0.2867
     84  CB       -23.5410   21.1560    4.6010 C.3   111  LEU111      0.0270
     85  CG       -24.7280   20.9650    3.6460 C.3   111  LEU111      0.0019
     86  CD1      -25.8310   20.3350    4.4850 C.3   111  LEU111      0.0001
     87  CD2      -25.1530   22.2720    3.0050 C.3   111  LEU111      0.0001
     88  N        -21.3560   20.4160    7.8830 N.3   113  SER113     -0.1202
     89  CA       -21.5480   19.1260    8.4880 C.3   113  SER113      0.2020
     90  C        -21.1450   17.8750    7.6230 C.2   113  SER113      0.2619
     91  O        -20.8350   16.7930    8.1510 O.2   113  SER113     -0.2717
     92  CB       -22.9840   19.0880    8.9940 C.3   113  SER113      0.2103
     93  OG       -23.8630   19.0480    7.8950 O.3   113  SER113     -0.2182
     94  N        -21.1130   18.0390    6.2910 N.am  114  THR114     -0.1952
     95  CA       -20.7200   16.9700    5.3860 C.3   114  THR114      0.1897
     96  C        -19.3620   17.0430    4.7300 C.2   114  THR114      0.2313
     97  O        -18.9260   16.1000    4.0650 O.2   114  THR114     -0.2863
     98  CB       -21.7680   16.8540    4.2800 C.3   114  THR114      0.1794
     99  OG1      -21.8050   18.0400    3.5240 O.3   114  THR114     -0.2208
    100  CG2      -23.0920   16.5310    4.8330 C.3   114  THR114      0.0378
    101  N        -17.1030   14.4160    5.9520 N.3   117  LEU117     -0.1245
    102  CA       -17.9670   13.3870    6.5060 C.3   117  LEU117      0.1561
    103  C        -17.1500   12.0990    6.7040 C.2   117  LEU117      0.2260
    104  O        -17.2240   11.5100    7.7740 O.2   117  LEU117     -0.2867
    105  CB       -19.1850   13.1410    5.5900 C.3   117  LEU117      0.0270
    106  CG       -20.2880   12.2170    6.1210 C.3   117  LEU117      0.0019
    107  CD1      -20.7970   12.5910    7.4970 C.3   117  LEU117      0.0001
    108  CD2      -21.4640   12.1930    5.1250 C.3   117  LEU117      0.0001
@<TRIPOS>BOND
     1    64    62   ar
     2    64    65   ar
     3    62    61   ar
     4    65    63   ar
     5    61    63   ar
     6    61    60    1
     7    60    57    1
     8    57    58    1
     9    57    56    1
    10    69    68    2
    11    58    59    2
    12    58    66   am
    13    66    67    1
    14    68    73   am
    15    68    67    1
    16    74    73    1
    17    74    77    1
    18    74    75    1
    19    73    79    1
    20    77    78    1
    21    67    70    1
    22    75    76    2
    23    12    11    2
    24    78    79    1
    25    11    10    1
    26    71    70    1
    27    70    72    1
    28     4     3    2
    29    10     9    1
    30     1     2    1
    31    80    81    1
    32     3     9   am
    33     3     2    1
    34    87    85    1
    35    99    98    1
    36     2     5    1
    37    85    86    1
    38    85    84    1
    39    32    30   ar
    40    81    84    1
    41    81    82    1
    42     5     6    1
    43    97    96    2
    44    98   100    1
    45    98    95    1
    46    96    95    1
    47     6     7    1
    48     6     8    1
    49    30    31   ar
    50    30    29    1
    51    83    82    2
    52    46    44    1
    53   108   106    1
    54    95    94    1
    55   105   106    1
    56   105   102    1
    57    29    26    1
    58    16    15    2
    59   101   102    1
    60   106   107    1
    61    94    90   am
    62    47    45    1
    63   102   103    1
    64    44    45    1
    65    44    41    1
    66    13    14    1
    67   103   104    2
    68    26    25    1
    69    26    27    1
    70    15    25   am
    71    15    14    1
    72    42    41    1
    73    42    43    2
    74    39    38    1
    75    39    33    1
    76    14    17    1
    77    90    91    2
    78    90    89    1
    79    41    40    1
    80    88    89    1
    81    27    33   am
    82    27    28    2
    83    93    92    1
    84    40    35   am
    85    38    37    1
    86    33    34    1
    87    89    92    1
    88    17    18    1
    89    19    18   ar
    90    19    21   ar
    91    35    34    1
    92    35    36    2
    93    34    37    1
    94    55    53    1
    95    18    20   ar
    96    21    23   ar
    97    20    22   ar
    98    54    53    1
    99    53    52    1
   100    23    22   ar
   101    23    24    1
   102    52    49    1
   103    51    50    2
   104    49    50    1
   105    49    48    1
