@<TRIPOS>MOLECULE
tmp/5nzwA00.pdb
 109 105 0 0 0
SMALL
GASTEIGER

@<TRIPOS>ATOM
      1  N         13.2920   16.1250   32.5020 N.3    35  HIS35      -0.1241
      2  CA        12.8530   17.0410   31.4430 C.3    35  HIS35       0.1621
      3  C         12.7490   18.4170   32.1060 C.2    35  HIS35       0.2264
      4  O         12.3260   18.5160   33.2590 O.2    35  HIS35      -0.2867
      5  CB        11.5110   16.6050   30.8120 C.3    35  HIS35       0.0745
      6  CG        11.6240   15.5290   29.7600 C.ar   35  HIS35       0.0817
      7  ND1       10.5210   14.8740   29.2460 N.ar   35  HIS35      -0.2268
      8  CD2       12.6990   14.9950   29.1250 C.ar   35  HIS35       0.1154
      9  CE1       10.9150   13.9870   28.3440 C.ar   35  HIS35       0.1986
     10  NE2       12.2310   14.0420   28.2490 N.ar   35  HIS35      -0.2212
     11  N         11.0510   21.3740   31.9130 N.3    37  ASP37      -0.1225
     12  CA         9.7780   21.7830   32.5150 C.3    37  ASP37       0.1805
     13  C          9.6740   21.1850   33.9200 C.2    37  ASP37       0.2597
     14  O          9.2650   21.8780   34.8530 O.2    37  ASP37      -0.2718
     15  CB         8.5670   21.3200   31.6820 C.3    37  ASP37       0.1424
     16  CG         8.0930   22.3710   30.6580 C.2    37  ASP37       0.3668
     17  OD1        8.9430   22.9280   29.9150 O.co2  37  ASP37      -0.2456
     18  OD2        6.8550   22.6120   30.5830 O.co2  37  ASP37      -0.2456
     19  N         10.0850   19.9160   34.0520 N.am   38  HIS38      -0.1975
     20  CA         9.9800   19.1330   35.3020 C.3    38  HIS38       0.1656
     21  C         11.1450   19.2330   36.2720 C.2    38  HIS38       0.2291
     22  O         11.0110   18.7440   37.3880 O.2    38  HIS38      -0.2864
     23  CB         9.7200   17.6290   35.0060 C.3    38  HIS38       0.0771
     24  CG         8.5540   17.3950   34.0980 C.ar   38  HIS38       0.0820
     25  ND1        7.2760   17.1830   34.5590 N.ar   38  HIS38      -0.2267
     26  CD2        8.4670   17.4180   32.7510 C.ar   38  HIS38       0.1154
     27  CE1        6.4540   17.0690   33.5330 C.ar   38  HIS38       0.1986
     28  NE2        7.1540   17.1930   32.4230 N.ar   38  HIS38      -0.2212
     29  N          8.0950    6.4880   29.0610 N.3    94  HIS94      -0.1241
     30  CA         8.2100    7.8600   28.6340 C.3    94  HIS94       0.1621
     31  C          9.6280    8.0200   28.1210 C.2    94  HIS94       0.2264
     32  O          9.9130    7.5530   27.0290 O.2    94  HIS94      -0.2867
     33  CB         7.8510    8.7800   29.7810 C.3    94  HIS94       0.0745
     34  CG         7.8870   10.2180   29.4160 C.ar   94  HIS94       0.0817
     35  ND1        7.1260   10.7380   28.3940 N.ar   94  HIS94      -0.2268
     36  CD2        8.5870   11.2470   29.9380 C.ar   94  HIS94       0.1154
     37  CE1        7.3540   12.0350   28.3050 C.ar   94  HIS94       0.1986
     38  NE2        8.2350   12.3710   29.2330 N.ar   94  HIS94      -0.2212
     39  N          5.0890   12.2580   33.5480 N.3   116  ASP116     -0.1239
     40  CA         4.8880   12.0550   32.1250 C.3   116  ASP116      0.1674
     41  C          4.9440   10.5610   31.8330 C.2   116  ASP116      0.2266
     42  O          5.8030    9.8430   32.3590 O.2   116  ASP116     -0.2867
     43  CB         5.9160   12.8070   31.2940 C.3   116  ASP116      0.1410
     44  CG         5.6510   14.3090   31.2310 C.2   116  ASP116      0.3668
     45  OD1        4.6650   14.8030   31.8460 O.co2 116  ASP116     -0.2456
     46  OD2        6.4370   14.9950   30.5410 O.co2 116  ASP116     -0.2456
     47  N         -1.2390   16.0090   28.5850 N.3   141  THR141     -0.1203
     48  CA        -0.6190   16.5270   27.3690 C.3   141  THR141      0.1994
     49  C         -1.4090   16.3840   26.0490 C.2   141  THR141      0.2617
     50  O         -1.3720   17.2860   25.2220 O.2   141  THR141     -0.2717
     51  CB         0.7490   15.8430   27.1690 C.3   141  THR141      0.1784
     52  OG1        1.5830   16.1000   28.3050 O.3   141  THR141     -0.2211
     53  CG2        1.4620   16.3380   25.8940 C.3   141  THR141      0.0376
     54  N         -2.0750   15.2550   25.8300 N.am  142  TYR142     -0.1975
     55  CA        -2.8660   15.0630   24.6070 C.3   142  TYR142      0.1639
     56  C         -4.3120   14.6240   24.9150 C.2   142  TYR142      0.2290
     57  O         -4.9160   13.8420   24.1680 O.2   142  TYR142     -0.2864
     58  CB        -2.1900   14.0340   23.6790 C.3   142  TYR142      0.0560
     59  CG        -0.8530   14.4110   23.0790 C.ar  142  TYR142     -0.0198
     60  CD1       -0.7200   15.5190   22.2410 C.ar  142  TYR142     -0.0009
     61  CD2        0.2730   13.6220   23.2980 C.ar  142  TYR142     -0.0009
     62  CE1        0.5050   15.8470   21.6700 C.ar  142  TYR142      0.0417
     63  CE2        1.4960   13.9380   22.7260 C.ar  142  TYR142      0.0417
     64  CZ         1.6110   15.0450   21.9140 C.ar  142  TYR142      0.1957
     65  OH         2.8460   15.3160   21.3580 O.3   142  TYR142     -0.2866
     66  N         16.9920   16.9600   21.1620 N.3   180  TYR180     -0.1241
     67  CA        17.3500   18.0330   22.1280 C.3   180  TYR180      0.1605
     68  C         17.6030   17.5000   23.5370 C.2   180  TYR180      0.2264
     69  O         18.7160   17.6170   24.0760 O.2   180  TYR180     -0.2867
     70  CB        16.3140   19.1830   22.1660 C.3   180  TYR180      0.0534
     71  CG        14.8410   18.8060   22.0410 C.ar  180  TYR180     -0.0201
     72  CD1       14.3080   18.4130   20.8100 C.ar  180  TYR180     -0.0009
     73  CD2       13.9680   18.8950   23.1330 C.ar  180  TYR180     -0.0009
     74  CE1       12.9640   18.0870   20.6710 C.ar  180  TYR180      0.0417
     75  CE2       12.6190   18.5700   23.0010 C.ar  180  TYR180      0.0417
     76  CZ        12.1240   18.1660   21.7650 C.ar  180  TYR180      0.1957
     77  OH        10.7980   17.8380   21.5970 O.3   180  TYR180     -0.2866
     78  N         17.4090   21.9040   15.9260 N.3   236  MET236     -0.1245
     79  CA        17.5290   23.1580   15.1710 C.3   236  MET236      0.1570
     80  C         18.4030   22.9950   13.9240 C.2   236  MET236      0.2261
     81  O         18.1110   23.5760   12.8870 O.2   236  MET236     -0.2867
     82  CB        18.0610   24.2970   16.0580 C.3   236  MET236      0.0387
     83  CG        17.2320   24.5550   17.3220 C.3   236  MET236      0.0595
     84  SD        16.5670   26.2330   17.5160 S.3   236  MET236     -0.1393
     85  CE        15.0310   26.1290   16.5890 C.3   236  MET236      0.0692
     86  N          9.1160   14.9010   16.1590 N.3   263  THR263     -0.1218
     87  CA         8.1280   15.6360   16.9470 C.3   263  THR263      0.1862
     88  C          6.7070   15.4210   16.4190 C.2   263  THR263      0.2287
     89  O          5.8030   15.0720   17.1900 O.2   263  THR263     -0.2866
     90  CB         8.4840   17.1380   17.0080 C.3   263  THR263      0.1770
     91  OG1        9.1230   17.5290   15.7840 O.3   263  THR263     -0.2211
     92  CG2        9.4390   17.4250   18.1770 C.3   263  THR263      0.0375
     93  N          4.0750   10.1810   24.8840 N.3   288  HIS288     -0.1241
     94  CA         2.9200   10.5940   25.6890 C.3   288  HIS288      0.1621
     95  C          1.7090    9.8090   25.1700 C.2   288  HIS288      0.2264
     96  O          1.6470    9.4260   24.0020 O.2   288  HIS288     -0.2867
     97  CB         2.6070   12.0810   25.5090 C.3   288  HIS288      0.0745
     98  CG         3.4810   13.0350   26.2770 C.ar  288  HIS288      0.0817
     99  ND1        3.2460   13.3690   27.5940 N.ar  288  HIS288     -0.2268
    100  CD2        4.5020   13.8280   25.8670 C.ar  288  HIS288      0.1154
    101  CE1        4.1080   14.2970   27.9730 C.ar  288  HIS288      0.1986
    102  NE2        4.8840   14.5880   26.9450 N.ar  288  HIS288     -0.2212
    103  N         -1.3300   19.0150   33.2410 N.3   310  VAL310     -0.1245
    104  CA        -0.8540   19.5290   31.9510 C.3   310  VAL310      0.1561
    105  C         -2.0250   20.1220   31.1290 C.2   310  VAL310      0.2260
    106  O         -3.1040   19.5110   31.0240 O.2   310  VAL310     -0.2867
    107  CB        -0.1790   18.4060   31.1010 C.3   310  VAL310      0.0252
    108  CG1        0.6010   18.9960   29.9320 C.3   310  VAL310      0.0019
    109  CG2        0.7280   17.5010   31.9310 C.3   310  VAL310      0.0019
@<TRIPOS>BOND
     1    81    80    2
     2    80    79    1
     3    79    78    1
     4    79    82    1
     5    91    90    1
     6    82    83    1
     7    86    87    1
     8    88    87    1
     9    88    89    2
    10    85    84    1
    11    87    90    1
    12    90    92    1
    13    83    84    1
    14    74    72   ar
    15    74    76   ar
    16    72    71   ar
    17    66    67    1
    18    65    64    1
    19    77    76    1
    20    62    64   ar
    21    62    60   ar
    22    76    75   ar
    23    64    63   ar
    24    71    70    1
    25    71    73   ar
    26    67    70    1
    27    67    68    1
    28    60    59   ar
    29    63    61   ar
    30    75    73   ar
    31    59    61   ar
    32    59    58    1
    33    68    69    2
    34    58    55    1
    35    96    95    2
    36    57    56    2
    37    55    56    1
    38    55    54    1
    39    93    94    1
    40    95    94    1
    41    50    49    2
    42    97    94    1
    43    97    98    1
    44    54    49   am
    45   100    98   ar
    46   100   102   ar
    47    53    51    1
    48    49    48    1
    49    98    99   ar
    50   102   101   ar
    51    32    31    2
    52    51    48    1
    53    51    52    1
    54    48    47    1
    55    99   101   ar
    56    31    30    1
    57    10     9   ar
    58    10     8   ar
    59    37    35   ar
    60    37    38   ar
    61     9     7   ar
    62    35    34   ar
    63    30    29    1
    64    30    33    1
    65     8     6   ar
    66    38    36   ar
    67     7     6   ar
    68    34    33    1
    69    34    36   ar
    70     6     5    1
    71    17    16   ar
    72   108   107    1
    73    46    44   ar
    74    18    16   ar
    75    16    15    1
    76     5     2    1
    77   106   105    2
    78   107   109    1
    79   107   104    1
    80   105   104    1
    81    44    43    1
    82    44    45   ar
    83    43    40    1
    84     2     3    1
    85     2     1    1
    86    15    12    1
    87    41    40    1
    88    41    42    2
    89    11    12    1
    90   104   103    1
    91     3     4    2
    92    40    39    1
    93    28    26   ar
    94    28    27   ar
    95    12    13    1
    96    26    24   ar
    97    27    25   ar
    98    13    19   am
    99    13    14    2
   100    19    20    1
   101    24    25   ar
   102    24    23    1
   103    23    20    1
   104    20    21    1
   105    21    22    2
