@<TRIPOS>MOLECULE
tmp/5nzxA00.pdb
 99 93 0 0 0
SMALL
GASTEIGER

@<TRIPOS>ATOM
      1  N         17.3170   -6.3760  -42.9670 N.3   239  ILE239     -0.1231
      2  CA        16.5530   -7.1070  -43.9830 C.3   239  ILE239      0.1692
      3  C         15.6520   -6.1340  -44.7270 C.2   239  ILE239      0.2592
      4  O         14.4470   -6.0070  -44.4530 O.2   239  ILE239     -0.2718
      5  CB        15.7480   -8.2910  -43.3960 C.3   239  ILE239      0.0266
      6  CG1       16.6410   -9.1910  -42.5200 C.3   239  ILE239      0.0019
      7  CG2       15.0680   -9.0950  -44.5120 C.3   239  ILE239      0.0020
      8  CD1       17.8430   -9.7930  -43.2070 C.3   239  ILE239      0.0001
      9  N         16.2850   -5.4300  -45.6610 N.am  240  ASN240     -0.1960
     10  CA        15.6230   -4.4650  -46.5180 C.3   240  ASN240      0.1819
     11  C         16.5230   -4.3190  -47.7280 C.2   240  ASN240      0.2621
     12  O         17.6700   -4.8170  -47.7250 O.2   240  ASN240     -0.2715
     13  CB        15.3540   -3.1270  -45.7820 C.3   240  ASN240      0.1195
     14  CG        16.5480   -2.6350  -45.0060 C.2   240  ASN240      0.2630
     15  OD1       17.5880   -2.3150  -45.5890 O.2   240  ASN240     -0.2716
     16  ND2       16.4090   -2.5600  -43.6840 N.am  240  ASN240     -0.0877
     17  N         16.0260   -3.6670  -48.7740 N.am  241  PHE241     -0.1960
     18  CA        16.7870   -3.6450  -50.0190 C.3   241  PHE241      0.1771
     19  C         18.1490   -2.9600  -49.8550 C.2   241  PHE241      0.2619
     20  O         19.1490   -3.4780  -50.3310 O.2   241  PHE241     -0.2715
     21  CB        15.9810   -3.0330  -51.1720 C.3   241  PHE241      0.0574
     22  CG        14.8000   -3.8650  -51.6060 C.ar  241  PHE241     -0.0200
     23  CD1       14.9230   -5.2400  -51.8370 C.ar  241  PHE241     -0.0042
     24  CD2       13.5630   -3.2720  -51.8140 C.ar  241  PHE241     -0.0042
     25  CE1       13.8300   -5.9890  -52.2400 C.ar  241  PHE241     -0.0003
     26  CE2       12.4740   -4.0120  -52.2260 C.ar  241  PHE241     -0.0003
     27  CZ        12.6060   -5.3760  -52.4310 C.ar  241  PHE241     -0.0000
     28  N         18.1930   -1.8230  -49.1590 N.am  242  LYS242     -0.1977
     29  CA        19.4630   -1.1090  -48.9520 C.3   242  LYS242      0.1596
     30  C         20.4550   -1.9290  -48.1310 C.2   242  LYS242      0.2287
     31  O         21.6490   -1.9930  -48.4620 O.2   242  LYS242     -0.2864
     32  CB        19.2300    0.2610  -48.2870 C.3   242  LYS242      0.0298
     33  CG        18.3490    1.2800  -49.0040 C.3   242  LYS242      0.0038
     34  CD        19.0720    1.6160  -50.2570 C.3   242  LYS242      0.0206
     35  CE        17.9890    2.4670  -50.9670 C.3   242  LYS242      0.1093
     36  NZ        18.1190    2.2210  -52.4110 N.3   242  LYS242     -0.1314
     37  N         12.4580  -13.3960  -43.7880 N.3   262  ARG262     -0.1245
     38  CA        12.0660  -12.4520  -42.7380 C.3   262  ARG262      0.1563
     39  C         10.7580  -12.9720  -42.1520 C.2   262  ARG262      0.2260
     40  O          9.7580  -12.9810  -42.8380 O.2   262  ARG262     -0.2867
     41  CB        11.8470  -11.0760  -43.4010 C.3   262  ARG262      0.0307
     42  CG        12.0590   -9.8560  -42.5250 C.3   262  ARG262      0.0489
     43  CD        10.8360   -9.5510  -41.7040 C.3   262  ARG262      0.2205
     44  NE        10.9850   -8.3310  -40.9070 N.pl3 262  ARG262     -0.0865
     45  CZ        10.2840   -8.0390  -39.8100 C.cat 262  ARG262      0.5346
     46  NH1        9.3690   -8.8780  -39.3250 N.pl3 262  ARG262      0.1354
     47  NH2       10.5180   -6.8940  -39.1750 N.pl3 262  ARG262      0.1354
     48  N          7.2560  -12.8650  -40.8350 N.3   264  THR264     -0.1218
     49  CA         6.1750  -11.8730  -40.9810 C.3   264  THR264      0.1862
     50  C          4.9140  -12.4970  -41.5730 C.2   264  THR264      0.2287
     51  O          4.9300  -13.6470  -41.9720 O.2   264  THR264     -0.2866
     52  CB         6.4410  -10.7830  -42.0550 C.3   264  THR264      0.1770
     53  OG1        7.8060  -10.7410  -42.4700 O.3   264  THR264     -0.2211
     54  CG2        5.9500   -9.4700  -41.5540 C.3   264  THR264      0.0375
     55  N          5.0300  -14.7960  -51.9040 N.3   273  ILE273     -0.1245
     56  CA         5.7540  -14.1970  -53.0030 C.3   273  ILE273      0.1561
     57  C          6.7190  -13.2030  -52.3880 C.2   273  ILE273      0.2260
     58  O          6.3260  -12.4220  -51.5320 O.2   273  ILE273     -0.2867
     59  CB         4.7960  -13.4620  -53.9520 C.3   273  ILE273      0.0252
     60  CG1        3.7200  -14.4140  -54.5030 C.3   273  ILE273      0.0019
     61  CG2        5.5420  -12.7850  -55.1000 C.3   273  ILE273      0.0019
     62  CD1        4.2430  -15.6420  -55.2240 C.3   273  ILE273      0.0001
     63  N          9.2880   -9.9450  -51.9390 N.3   275  GLN275     -0.1231
     64  CA         9.5510   -8.5740  -52.4010 C.3   275  GLN275      0.1698
     65  C         10.9120   -8.5880  -53.0770 C.2   275  GLN275      0.2593
     66  O         11.9060   -8.9610  -52.4550 O.2   275  GLN275     -0.2718
     67  CB         9.5330   -7.5880  -51.2300 C.3   275  GLN275      0.0381
     68  CG         8.1660   -7.4730  -50.5700 C.3   275  GLN275      0.0905
     69  CD         7.1260   -6.7800  -51.4480 C.2   275  GLN275      0.2608
     70  OE1        7.4450   -5.8740  -52.2180 O.2   275  GLN275     -0.2717
     71  NE2        5.8740   -7.2020  -51.3280 N.am  275  GLN275     -0.0878
     72  N         10.9510   -8.1970  -54.3490 N.am  276  THR276     -0.1939
     73  CA        12.1440   -8.3480  -55.1850 C.3   276  THR276      0.2028
     74  C         12.5970   -7.0080  -55.7580 C.2   276  THR276      0.2642
     75  O         11.7710   -6.2190  -56.2280 O.2   276  THR276     -0.2714
     76  CB        11.8710   -9.3470  -56.3340 C.3   276  THR276      0.1808
     77  OG1       11.5570  -10.6250  -55.7680 O.3   276  THR276     -0.2208
     78  CG2       13.0850   -9.4790  -57.2560 C.3   276  THR276      0.0379
     79  N         13.9050   -6.7580  -55.6760 N.am  277  LYS277     -0.1977
     80  CA        14.5530   -5.6530  -56.3690 C.3   277  LYS277      0.1596
     81  C         15.8320   -6.2220  -56.9730 C.2   277  LYS277      0.2287
     82  O         16.7860   -6.5270  -56.2560 O.2   277  LYS277     -0.2864
     83  CB        14.8550   -4.5060  -55.4080 C.3   277  LYS277      0.0298
     84  CG        15.4430   -3.2920  -56.0710 C.3   277  LYS277      0.0038
     85  CD        16.0320   -2.3220  -55.0400 C.3   277  LYS277      0.0206
     86  CE        16.8840   -1.2530  -55.7190 C.3   277  LYS277      0.1093
     87  NZ        17.9920   -1.8620  -56.5250 N.3   277  LYS277     -0.1314
     88  N         13.1840  -10.8850  -50.8820 N.3   282  ILE282     -0.1245
     89  CA        12.9120  -11.0090  -49.4530 C.3   282  ILE282      0.1561
     90  C         11.5930  -11.7510  -49.3050 C.2   282  ILE282      0.2260
     91  O         10.5560  -11.2470  -49.7550 O.2   282  ILE282     -0.2867
     92  CB        12.8180   -9.6340  -48.7600 C.3   282  ILE282      0.0252
     93  CG1       14.1240   -8.8500  -48.9570 C.3   282  ILE282      0.0019
     94  CG2       12.4930   -9.7980  -47.2790 C.3   282  ILE282      0.0019
     95  CD1       14.0410   -7.3970  -48.5450 C.3   282  ILE282      0.0001
     96  N          8.7190  -13.0820  -46.9390 N.3   284  GLY284     -0.1225
     97  CA         8.0660  -12.8740  -45.6540 C.3   284  GLY284      0.1811
     98  C          7.3660  -14.1340  -45.2260 C.2   284  GLY284      0.2280
     99  O          6.2230  -14.3560  -45.6270 O.2   284  GLY284     -0.2866
@<TRIPOS>BOND
     1    78    76    1
     2    81    80    1
     3    81    82    2
     4    87    86    1
     5    80    79    1
     6    80    83    1
     7    76    77    1
     8    76    73    1
     9    75    74    2
    10    84    83    1
    11    84    85    1
    12    74    79   am
    13    74    73    1
    14    86    85    1
    15    62    60    1
    16    73    72    1
    17    61    59    1
    18    60    59    1
    19    72    65   am
    20    59    56    1
    21    65    66    2
    22    65    64    1
    23    56    57    1
    24    56    55    1
    25    27    25   ar
    26    27    26   ar
    27    36    35    1
    28    64    63    1
    29    64    67    1
    30    57    58    2
    31    25    23   ar
    32    26    24   ar
    33    70    69    2
    34    23    22   ar
    35    24    22   ar
    36    22    21    1
    37    69    71   am
    38    69    68    1
    39    67    68    1
    40    21    18    1
    41    35    34    1
    42    88    89    1
    43    20    19    2
    44    34    33    1
    45    18    19    1
    46    18    17    1
    47    19    28   am
    48    91    90    2
    49    89    90    1
    50    89    92    1
    51    28    29    1
    52    33    32    1
    53    93    92    1
    54    93    95    1
    55    29    32    1
    56    29    30    1
    57    17    11   am
    58    92    94    1
    59    31    30    2
    60    11    12    2
    61    11    10    1
    62    96    97    1
    63    10    13    1
    64    10     9    1
    65    13    14    1
    66     9     3   am
    67    97    98    1
    68    99    98    2
    69    15    14    2
    70    14    16   am
    71     3     4    2
    72     3     2    1
    73     7     5    1
    74     2     5    1
    75     2     1    1
    76    37    38    1
    77    41    38    1
    78    41    42    1
    79     5     6    1
    80     8     6    1
    81    40    39    2
    82    38    39    1
    83    42    43    1
    84    53    52    1
    85    52    54    1
    86    52    49    1
    87    51    50    2
    88    43    44    1
    89    50    49    1
    90    49    48    1
    91    44    45    2
    92    45    46    1
    93    45    47    1
