@<TRIPOS>MOLECULE
tmp/5nzyA00.pdb
 99 93 0 0 0
SMALL
GASTEIGER

@<TRIPOS>ATOM
      1  N        -17.1560   21.9010  -13.7550 N.3   238  ILE238     -0.1231
      2  CA       -16.4710   21.0940  -12.7270 C.3   238  ILE238      0.1692
      3  C        -15.5630   22.0510  -11.9630 C.2   238  ILE238      0.2592
      4  O        -14.3540   22.1590  -12.1910 O.2   238  ILE238     -0.2718
      5  CB       -15.7230   19.8990  -13.3210 C.3   238  ILE238      0.0266
      6  CG1      -16.6690   19.0590  -14.1860 C.3   238  ILE238      0.0019
      7  CG2      -15.1340   19.0540  -12.1940 C.3   238  ILE238      0.0020
      8  CD1      -17.8780   18.4900  -13.4400 C.3   238  ILE238      0.0001
      9  N        -16.1730   22.7670  -11.0260 N.am  239  ASN239     -0.1960
     10  CA       -15.5160   23.7140  -10.1450 C.3   239  ASN239      0.1819
     11  C        -16.4480   23.8850   -8.9600 C.2   239  ASN239      0.2621
     12  O        -17.6060   23.4630   -9.0080 O.2   239  ASN239     -0.2715
     13  CB       -15.2250   25.0470  -10.8510 C.3   239  ASN239      0.1195
     14  CG       -16.3980   25.5370  -11.6770 C.2   239  ASN239      0.2630
     15  OD1      -17.4230   25.9590  -11.1350 O.2   239  ASN239     -0.2716
     16  ND2      -16.2520   25.4930  -12.9970 N.am  239  ASN239     -0.0877
     17  N        -15.9290   24.4700   -7.8790 N.am  240  PHE240     -0.1960
     18  CA       -16.7050   24.4980   -6.6410 C.3   240  PHE240      0.1771
     19  C        -18.0350   25.2230   -6.8310 C.2   240  PHE240      0.2619
     20  O        -19.0760   24.7520   -6.3600 O.2   240  PHE240     -0.2715
     21  CB       -15.8860   25.1360   -5.5220 C.3   240  PHE240      0.0574
     22  CG       -14.7470   24.2870   -5.0490 C.ar  240  PHE240     -0.0200
     23  CD1      -14.9160   22.9260   -4.8410 C.ar  240  PHE240     -0.0042
     24  CD2      -13.5050   24.8470   -4.8110 C.ar  240  PHE240     -0.0042
     25  CE1      -13.8660   22.1410   -4.4000 C.ar  240  PHE240     -0.0003
     26  CE2      -12.4500   24.0700   -4.3700 C.ar  240  PHE240     -0.0003
     27  CZ       -12.6300   22.7170   -4.1640 C.ar  240  PHE240     -0.0000
     28  N        -18.0280   26.3530   -7.5470 N.am  241  LYS241     -0.1977
     29  CA       -19.2650   27.1000   -7.7640 C.3   241  LYS241      0.1596
     30  C        -20.2410   26.3120   -8.6270 C.2   241  LYS241      0.2287
     31  O        -21.4330   26.2250   -8.3070 O.2   241  LYS241     -0.2864
     32  CB       -18.9640   28.4570   -8.4030 C.3   241  LYS241      0.0298
     33  CG       -18.0590   29.4310   -7.6550 C.3   241  LYS241      0.0038
     34  CD       -18.7950   29.7830   -6.4140 C.3   241  LYS241      0.0206
     35  CE       -17.6950   30.5810   -5.6710 C.3   241  LYS241      0.1093
     36  NZ       -17.8680   30.3250   -4.2320 N.3   241  LYS241     -0.1314
     37  N        -12.3930   14.9320  -12.8820 N.3   261  ARG261     -0.1245
     38  CA       -11.9420   15.7520  -14.0030 C.3   261  ARG261      0.1563
     39  C        -10.6310   15.1700  -14.5220 C.2   261  ARG261      0.2260
     40  O         -9.6950   14.9710  -13.7370 O.2   261  ARG261     -0.2867
     41  CB       -11.7330   17.2190  -13.5830 C.3   261  ARG261      0.0307
     42  CG       -10.9070   18.0130  -14.5950 C.3   261  ARG261      0.0489
     43  CD       -10.5060   19.3910  -14.0890 C.3   261  ARG261      0.2205
     44  NE       -11.6030   20.3550  -14.1050 N.pl3 261  ARG261     -0.0865
     45  CZ       -11.9510   21.0770  -15.1680 C.cat 261  ARG261      0.5346
     46  NH1      -11.2940   20.9370  -16.3120 N.pl3 261  ARG261      0.1354
     47  NH2      -12.9610   21.9360  -15.0900 N.pl3 261  ARG261      0.1354
     48  N         -7.0810   15.3090  -15.7140 N.3   263  THR263     -0.1218
     49  CA        -6.0220   16.3090  -15.6260 C.3   263  THR263      0.1862
     50  C         -4.8290   15.6520  -14.9440 C.2   263  THR263      0.2287
     51  O         -4.9080   14.5100  -14.4850 O.2   263  THR263     -0.2866
     52  CB        -6.4800   17.5590  -14.8570 C.3   263  THR263      0.1770
     53  OG1       -5.4670   18.5720  -14.9170 O.3   263  THR263     -0.2211
     54  CG2       -6.7560   17.2230  -13.4070 C.3   263  THR263      0.0375
     55  N         -5.0620   13.3300   -4.9490 N.3   278  ILE278     -0.1245
     56  CA        -5.7720   13.8080   -3.7630 C.3   278  ILE278      0.1561
     57  C         -6.7690   14.8720   -4.2120 C.2   278  ILE278      0.2260
     58  O         -6.4140   15.7440   -5.0170 O.2   278  ILE278     -0.2867
     59  CB        -4.7950   14.3650   -2.7140 C.3   278  ILE278      0.0252
     60  CG1       -3.7640   13.3020   -2.3270 C.3   278  ILE278      0.0019
     61  CG2       -5.5470   14.8670   -1.4830 C.3   278  ILE278      0.0019
     62  CD1       -4.3380   12.1420   -1.5670 C.3   278  ILE278      0.0001
     63  N         -9.2360   18.1620   -4.5380 N.3   280  GLN280     -0.1231
     64  CA        -9.4870   19.5130   -4.0460 C.3   280  GLN280      0.1698
     65  C        -10.8600   19.5160   -3.3920 C.2   280  GLN280      0.2593
     66  O        -11.8480   19.1320   -4.0210 O.2   280  GLN280     -0.2718
     67  CB        -9.4250   20.5300   -5.1830 C.3   280  GLN280      0.0381
     68  CG        -8.0770   20.5970   -5.8720 C.3   280  GLN280      0.0905
     69  CD        -6.9890   21.1430   -4.9700 C.2   280  GLN280      0.2608
     70  OE1       -7.2500   21.9690   -4.0940 O.2   280  GLN280     -0.2717
     71  NE2       -5.7610   20.6810   -5.1770 N.am  280  GLN280     -0.0878
     72  N        -10.9260   19.9150   -2.1290 N.am  281  THR281     -0.1939
     73  CA       -12.1500   19.7970   -1.3490 C.3   281  THR281      0.2028
     74  C        -12.5570   21.1550   -0.7980 C.2   281  THR281      0.2642
     75  O        -11.7100   21.9320   -0.3460 O.2   281  THR281     -0.2714
     76  CB       -11.9690   18.7930   -0.2010 C.3   281  THR281      0.1808
     77  OG1      -11.6550   17.5060   -0.7440 O.3   281  THR281     -0.2208
     78  CG2      -13.2350   18.6760    0.6340 C.3   281  THR281      0.0379
     79  N        -13.8580   21.4380   -0.8560 N.am  282  LYS282     -0.1977
     80  CA       -14.4420   22.6000   -0.1910 C.3   282  LYS282      0.1596
     81  C        -15.7800   22.1690    0.3850 C.2   282  LYS282      0.2287
     82  O        -16.7370   21.9520   -0.3620 O.2   282  LYS282     -0.2864
     83  CB       -14.6170   23.7710   -1.1550 C.3   282  LYS282      0.0298
     84  CG       -15.2000   25.0260   -0.5180 C.3   282  LYS282      0.0038
     85  CD       -15.3900   26.1320   -1.5500 C.3   282  LYS282      0.0206
     86  CE       -15.8590   27.4240   -0.9000 C.3   282  LYS282      0.1093
     87  NZ       -15.8180   28.5640   -1.8590 N.3   282  LYS282     -0.1314
     88  N        -13.2200   17.3600   -5.7170 N.3   287  ILE287     -0.1245
     89  CA       -12.9170   17.2110   -7.1370 C.3   287  ILE287      0.1561
     90  C        -11.6170   16.4270   -7.2700 C.2   287  ILE287      0.2260
     91  O        -10.5710   16.8620   -6.7720 O.2   287  ILE287     -0.2867
     92  CB       -12.8060   18.5680   -7.8420 C.3   287  ILE287      0.0252
     93  CG1      -14.0960   19.3640   -7.6530 C.3   287  ILE287      0.0019
     94  CG2      -12.5240   18.3590   -9.3150 C.3   287  ILE287      0.0019
     95  CD1      -14.0250   20.7910   -8.1620 C.3   287  ILE287      0.0001
     96  N         -8.7540   15.1100   -9.6370 N.3   289  GLY289     -0.1225
     97  CA        -8.0920   15.2570  -10.9140 C.3   289  GLY289      0.1811
     98  C         -7.3810   13.9750  -11.2780 C.2   289  GLY289      0.2280
     99  O         -6.3250   13.6710  -10.7180 O.2   289  GLY289     -0.2866
@<TRIPOS>BOND
     1    46    45    1
     2    48    49    1
     3    49    50    1
     4    49    52    1
     5    45    47    1
     6    45    44    2
     7    50    51    2
     8    53    52    1
     9    52    54    1
    10    42    43    1
    11    42    41    1
    12    39    38    1
    13    39    40    2
    14     6     8    1
    15     6     5    1
    16    44    43    1
    17    38    41    1
    18    38    37    1
    19     1     2    1
    20     5     2    1
    21     5     7    1
    22    16    14   am
    23     2     3    1
    24     4     3    2
    25     3     9   am
    26    14    15    2
    27    14    13    1
    28    98    97    1
    29    98    99    2
    30     9    10    1
    31    97    96    1
    32    13    10    1
    33    10    11    1
    34    94    92    1
    35    12    11    2
    36    11    17   am
    37    30    31    2
    38    30    29    1
    39    32    29    1
    40    32    33    1
    41    95    93    1
    42    17    18    1
    43    92    93    1
    44    92    89    1
    45    29    28    1
    46    33    34    1
    47    28    19   am
    48    90    89    1
    49    90    91    2
    50    89    88    1
    51    19    18    1
    52    19    20    2
    53    18    21    1
    54    34    35    1
    55    68    67    1
    56    68    69    1
    57    35    36    1
    58    21    22    1
    59    67    64    1
    60    71    69   am
    61    22    23   ar
    62    22    24   ar
    63    58    57    2
    64    69    70    2
    65    55    56    1
    66    23    25   ar
    67    24    26   ar
    68    63    64    1
    69    25    27   ar
    70    26    27   ar
    71    57    56    1
    72    64    65    1
    73    66    65    2
    74    56    59    1
    75    65    72   am
    76    59    60    1
    77    59    61    1
    78    60    62    1
    79    72    73    1
    80    87    86    1
    81    85    86    1
    82    85    84    1
    83    73    74    1
    84    73    76    1
    85    83    84    1
    86    83    80    1
    87    79    74   am
    88    79    80    1
    89    74    75    2
    90    77    76    1
    91    82    81    2
    92    76    78    1
    93    80    81    1
