@<TRIPOS>MOLECULE
tmp/5nzyA01.pdb
 130 128 0 0 0
SMALL
GASTEIGER

@<TRIPOS>ATOM
      1  N         -4.9530   28.2070  -45.3920 N.3     1  THR1       -0.1203
      2  CA        -3.9580   27.4130  -46.1040 C.3     1  THR1        0.1994
      3  C         -3.6520   26.1150  -45.3560 C.2     1  THR1        0.2618
      4  O         -3.1490   26.1360  -44.2340 O.2     1  THR1       -0.2717
      5  CB        -2.6520   28.2010  -46.3170 C.3     1  THR1        0.1784
      6  OG1       -2.1610   28.6710  -45.0560 O.3     1  THR1       -0.2211
      7  CG2       -2.8900   29.3890  -47.2390 C.3     1  THR1        0.0376
      8  N         -3.9610   24.9980  -45.9970 N.am    2  CYS2       -0.1956
      9  CA        -3.7990   23.6790  -45.3980 C.3     2  CYS2        0.1828
     10  C         -2.3280   23.3860  -45.1170 C.2     2  CYS2        0.2467
     11  O         -1.5110   23.4320  -46.0480 O.2     2  CYS2       -0.2730
     12  CB        -4.3830   22.6280  -46.3390 C.3     2  CYS2        0.0996
     13  SG        -4.2170   20.9140  -45.7900 S.3     2  CYS2       -0.0797
     14  N         -1.9470   23.0830  -43.8710 N.am    3  PRO3       -0.2715
     15  CA        -0.5450   22.7500  -43.5880 C.3     3  PRO3        0.1536
     16  C         -0.1150   21.5030  -44.3450 C.2     3  PRO3        0.2599
     17  O         -0.9270   20.6270  -44.6510 O.2     3  PRO3       -0.2715
     18  CB        -0.5300   22.5120  -42.0720 C.3     3  PRO3        0.0310
     19  CG        -1.7840   23.1480  -41.5570 C.3     3  PRO3        0.0237
     20  CD        -2.7840   23.0220  -42.6640 C.3     3  PRO3        0.0939
     21  N          1.1870   21.4240  -44.6340 N.am    4  PHE4       -0.1960
     22  CA         1.6900   20.3350  -45.4670 C.3     4  PHE4        0.1771
     23  C          1.4950   18.9780  -44.8020 C.2     4  PHE4        0.2620
     24  O          1.2870   17.9730  -45.4920 O.2     4  PHE4       -0.2715
     25  CB         3.1700   20.5570  -45.7900 C.3     4  PHE4        0.0574
     26  CG         4.0930   20.2660  -44.6390 C.ar    4  PHE4       -0.0200
     27  CD1        4.7130   19.0260  -44.5220 C.ar    4  PHE4       -0.0042
     28  CD2        4.3430   21.2290  -43.6730 C.ar    4  PHE4       -0.0042
     29  CE1        5.5630   18.7550  -43.4610 C.ar    4  PHE4       -0.0003
     30  CE2        5.1930   20.9650  -42.6110 C.ar    4  PHE4       -0.0003
     31  CZ         5.8020   19.7240  -42.5050 C.ar    4  PHE4       -0.0000
     32  N          1.5620   18.9230  -43.4710 N.am    5  TYR5       -0.1960
     33  CA         1.4470   17.6390  -42.7920 C.3     5  TYR5        0.1771
     34  C          0.0300   17.0910  -42.8030 C.2     5  TYR5        0.2619
     35  O         -0.2010   16.0190  -42.2370 O.2     5  TYR5       -0.2715
     36  CB         1.9640   17.7470  -41.3540 C.3     5  TYR5        0.0574
     37  CG         1.2870   18.8030  -40.5170 C.ar    5  TYR5       -0.0198
     38  CD1        0.0610   18.5570  -39.9150 C.ar    5  TYR5       -0.0009
     39  CD2        1.8780   20.0450  -40.3210 C.ar    5  TYR5       -0.0009
     40  CE1       -0.5620   19.5180  -39.1500 C.ar    5  TYR5        0.0417
     41  CE2        1.2620   21.0120  -39.5550 C.ar    5  TYR5        0.0417
     42  CZ         0.0410   20.7430  -38.9750 C.ar    5  TYR5        0.1957
     43  OH        -0.5840   21.6980  -38.2100 O.3     5  TYR5       -0.2866
     44  N         -0.9240   17.7870  -43.4140 N.am    6  LYS6       -0.1977
     45  CA        -2.2660   17.2500  -43.5810 C.3     6  LYS6        0.1596
     46  C         -2.5020   16.6900  -44.9770 C.2     6  LYS6        0.2287
     47  O         -3.6010   16.2090  -45.2580 O.2     6  LYS6       -0.2864
     48  CB        -3.3180   18.3160  -43.2530 C.3     6  LYS6        0.0298
     49  CG        -3.3710   18.6910  -41.7720 C.3     6  LYS6        0.0038
     50  CD        -4.6330   19.4900  -41.4390 C.3     6  LYS6        0.0206
     51  CE        -4.6740   19.9240  -39.9740 C.3     6  LYS6        0.1093
     52  NZ        -5.2270   18.8840  -39.0650 N.3     6  LYS6       -0.1314
     53  N        -11.1090   22.7780  -42.4430 N.3    19  GLN19      -0.1231
     54  CA       -11.2590   24.1880  -42.1080 C.3    19  GLN19       0.1698
     55  C        -10.5320   25.1030  -43.0850 C.2    19  GLN19       0.2592
     56  O        -10.3090   26.2780  -42.7740 O.2    19  GLN19      -0.2718
     57  CB       -10.7590   24.4440  -40.6910 C.3    19  GLN19       0.0381
     58  CG        -9.3060   24.0820  -40.4990 C.3    19  GLN19       0.0905
     59  CD        -8.8320   24.3530  -39.0900 C.2    19  GLN19       0.2608
     60  OE1       -8.3490   23.4530  -38.4060 O.2    19  GLN19      -0.2717
     61  NE2       -8.9610   25.6000  -38.6480 N.am   19  GLN19      -0.0878
     62  N        -10.1580   24.5930  -44.2580 N.am   20  TYR20      -0.1976
     63  CA        -9.3290   25.3410  -45.1960 C.3    20  TYR20       0.1639
     64  C        -10.0460   25.5820  -46.5180 C.2    20  TYR20       0.2290
     65  O         -9.3940   25.8600  -47.5300 O.2    20  TYR20      -0.2864
     66  CB        -8.0020   24.6100  -45.4290 C.3    20  TYR20       0.0560
     67  CG        -7.3290   24.1580  -44.1500 C.ar   20  TYR20      -0.0198
     68  CD1       -6.6750   25.0670  -43.3300 C.ar   20  TYR20      -0.0009
     69  CD2       -7.3510   22.8220  -43.7610 C.ar   20  TYR20      -0.0009
     70  CE1       -6.0640   24.6640  -42.1600 C.ar   20  TYR20       0.0417
     71  CE2       -6.7450   22.4080  -42.5890 C.ar   20  TYR20       0.0417
     72  CZ        -6.1020   23.3340  -41.7920 C.ar   20  TYR20       0.1957
     73  OH        -5.4910   22.9360  -40.6250 O.3    20  TYR20      -0.2866
     74  N        -11.1330   19.8520  -33.0290 N.3    37  ASP37      -0.1239
     75  CA        -9.9580   20.3590  -33.7280 C.3    37  ASP37       0.1674
     76  C         -9.7160   19.6370  -35.0440 C.2    37  ASP37       0.2266
     77  O         -9.0360   20.1780  -35.9240 O.2    37  ASP37      -0.2867
     78  CB        -8.7200   20.2420  -32.8390 C.3    37  ASP37       0.1410
     79  CG        -8.6770   21.3080  -31.7610 C.2    37  ASP37       0.3668
     80  OD1       -9.4550   22.2790  -31.8640 O.co2  37  ASP37      -0.2456
     81  OD2       -7.8690   21.1780  -30.8140 O.co2  37  ASP37      -0.2456
     82  N        -13.2700   20.4090  -37.5330 N.3    40  ALA40      -0.1245
     83  CA       -13.5350   21.8370  -37.6950 C.3    40  ALA40       0.1562
     84  C        -13.7240   22.2060  -39.1580 C.2    40  ALA40       0.2260
     85  O        -12.8260   22.0040  -39.9820 O.2    40  ALA40      -0.2867
     86  CB       -12.3770   22.6450  -37.1040 C.3    40  ALA40       0.0290
     87  N          2.1940   15.7670  -36.1110 N.3   316  THR316     -0.1203
     88  CA         0.9480   16.4530  -36.4390 C.3   316  THR316      0.1994
     89  C          0.4340   17.3230  -35.3000 C.2   316  THR316      0.2618
     90  O         -0.5840   18.0060  -35.4710 O.2   316  THR316     -0.2717
     91  CB        -0.1420   15.4470  -36.8460 C.3   316  THR316      0.1784
     92  OG1       -0.4450   14.5830  -35.7420 O.3   316  THR316     -0.2211
     93  CG2        0.3170   14.6130  -38.0330 C.3   316  THR316      0.0376
     94  N          1.1010   17.3060  -34.1470 N.am  317  VAL317     -0.1965
     95  CA         0.7180   18.0640  -32.9630 C.3   317  VAL317      0.1727
     96  C          1.9510   18.8050  -32.4670 C.2   317  VAL317      0.2616
     97  O          3.0740   18.3020  -32.5660 O.2   317  VAL317     -0.2715
     98  CB         0.1630   17.1510  -31.8400 C.3   317  VAL317      0.0290
     99  CG1       -0.4770   17.9820  -30.7360 C.3   317  VAL317      0.0023
    100  CG2       -0.8310   16.1430  -32.3920 C.3   317  VAL317      0.0023
    101  N          1.7380   20.0100  -31.9310 N.am  318  ASN318     -0.1958
    102  CA         2.7920   20.7820  -31.2710 C.3   318  ASN318      0.1819
    103  C          3.8850   21.2370  -32.2330 C.2   318  ASN318      0.2621
    104  O          5.0350   21.4150  -31.8190 O.2   318  ASN318     -0.2715
    105  CB         3.4400   20.0000  -30.1190 C.3   318  ASN318      0.1195
    106  CG         2.4730   19.6830  -29.0000 C.2   318  ASN318      0.2630
    107  OD1        1.5660   20.4610  -28.7010 O.2   318  ASN318     -0.2716
    108  ND2        2.6530   18.5220  -28.3820 N.am  318  ASN318     -0.0877
    109  N          3.5800   21.4390  -33.5100 N.am  319  VAL319     -0.1963
    110  CA         4.5890   21.9340  -34.4380 C.3   319  VAL319      0.1727
    111  C          4.4130   23.4290  -34.7080 C.2   319  VAL319      0.2616
    112  O          4.9060   23.9350  -35.7100 O.2   319  VAL319     -0.2715
    113  CB         4.6230   21.1300  -35.7500 C.3   319  VAL319      0.0290
    114  CG1        4.8950   19.6690  -35.4710 C.3   319  VAL319      0.0023
    115  CG2        3.3390   21.2850  -36.5270 C.3   319  VAL319      0.0023
    116  N          3.7200   24.1450  -33.8210 N.am  320  GLY320     -0.1955
    117  CA         3.5470   25.5780  -33.9790 C.3   320  GLY320      0.1869
    118  C          4.6700   26.4400  -33.4380 C.2   320  GLY320      0.2309
    119  O          4.7210   27.6280  -33.7710 O.2   320  GLY320     -0.2863
    120  N          9.1360   21.9360  -32.0920 N.3   325  ARG325     -0.1245
    121  CA         9.6620   21.2090  -33.2440 C.3   325  ARG325      0.1563
    122  C         11.0670   20.7010  -32.9640 C.2   325  ARG325      0.2260
    123  O         11.3870   19.5400  -33.2510 O.2   325  ARG325     -0.2867
    124  CB         9.6670   22.0940  -34.4920 C.3   325  ARG325      0.0307
    125  CG         8.3000   22.4020  -35.0780 C.3   325  ARG325      0.0489
    126  CD         8.4720   22.9850  -36.4840 C.3   325  ARG325      0.2205
    127  NE         7.4030   23.9080  -36.8520 N.pl3 325  ARG325     -0.0865
    128  CZ         7.3030   25.1560  -36.3980 C.cat 325  ARG325      0.5346
    129  NH1        8.1850   25.6210  -35.5300 N.pl3 325  ARG325      0.1354
    130  NH2        6.2990   25.9280  -36.7860 N.pl3 325  ARG325      0.1354
@<TRIPOS>BOND
     1    65    64    2
     2     7     5    1
     3    64    63    1
     4    12    13    1
     5    12     9    1
     6     5     2    1
     7     5     6    1
     8     2     1    1
     9     2     3    1
    10    11    10    2
    11     8     9    1
    12     8     3   am
    13    25    22    1
    14    25    26    1
    15    24    23    2
    16    22    23    1
    17    22    21    1
    18    66    63    1
    19    66    67    1
    20     9    10    1
    21     3     4    2
    22    47    46    2
    23    63    62    1
    24    10    14   am
    25    46    45    1
    26    23    32   am
    27    17    16    2
    28    26    27   ar
    29    26    28   ar
    30    21    16   am
    31    27    29   ar
    32    16    15    1
    33    62    55   am
    34    67    69   ar
    35    67    68   ar
    36    14    15    1
    37    14    20    1
    38    69    71   ar
    39    28    30   ar
    40    15    18    1
    41    45    44    1
    42    45    48    1
    43    32    33    1
    44    29    31   ar
    45    44    34   am
    46    68    70   ar
    47    48    49    1
    48    55    56    2
    49    55    54    1
    50    34    33    1
    51    34    35    2
    52    33    36    1
    53    20    19    1
    54    30    31   ar
    55    71    72   ar
    56    53    54    1
    57    70    72   ar
    58    54    57    1
    59    18    19    1
    60    72    73    1
    61    49    50    1
    62    50    51    1
    63    36    37    1
    64    57    58    1
    65    37    39   ar
    66    37    38   ar
    67    58    59    1
    68    39    41   ar
    69    85    84    2
    70    51    52    1
    71    38    40   ar
    72    41    42   ar
    73    84    83    1
    74    40    42   ar
    75    59    61   am
    76    59    60    2
    77    42    43    1
    78    93    91    1
    79    83    82    1
    80    83    86    1
    81   127   126    1
    82   127   128    2
    83    91    88    1
    84    91    92    1
    85   130   128    1
    86   115   113    1
    87   126   125    1
    88    88    87    1
    89    88    89    1
    90   128   129    1
    91    77    76    2
    92   113   114    1
    93   113   110    1
    94   112   111    2
    95    90    89    2
    96    89    94   am
    97   125   124    1
    98    76    75    1
    99   111   110    1
   100   111   116   am
   101   124   121    1
   102   110   109    1
   103    94    95    1
   104   117   116    1
   105   117   118    1
   106   119   118    2
   107    75    74    1
   108    75    78    1
   109   109   103   am
   110   123   122    2
   111   121   122    1
   112   121   120    1
   113    95    96    1
   114    95    98    1
   115    78    79    1
   116    97    96    2
   117    96   101   am
   118   100    98    1
   119   103   104    2
   120   103   102    1
   121   101   102    1
   122    80    79   ar
   123    98    99    1
   124    79    81   ar
   125   102   105    1
   126   105   106    1
   127   106   107    2
   128   106   108   am
