@<TRIPOS>MOLECULE
tmp/5nzzG00.pdb
 170 158 0 0 0
SMALL
GASTEIGER

@<TRIPOS>ATOM
      1  N         82.8670   72.1360  113.6100 N.3    26  VAL26      -0.1245
      2  CA        81.8330   72.5720  114.5430 C.3    26  VAL26       0.1561
      3  C         80.5790   73.0560  113.8000 C.2    26  VAL26       0.2260
      4  O         80.6350   73.9350  112.9370 O.2    26  VAL26      -0.2867
      5  CB        82.3770   73.6590  115.5290 C.3    26  VAL26       0.0252
      6  CG1       83.3500   73.0320  116.5080 C.3    26  VAL26       0.0019
      7  CG2       83.0170   74.8410  114.7860 C.3    26  VAL26       0.0019
      8  N         84.0760   76.1640  108.0680 N.3    28  SER28      -0.1202
      9  CA        85.4060   76.7800  108.1340 C.3    28  SER28       0.2020
     10  C         86.1060   76.7330  109.4900 C.2    28  SER28       0.2618
     11  O         87.2710   77.1430  109.5600 O.2    28  SER28      -0.2717
     12  CB        85.3240   78.2480  107.7140 C.3    28  SER28       0.2103
     13  OG        85.0650   79.0540  108.8510 O.3    28  SER28      -0.2182
     14  N         85.4490   76.2980  110.5640 N.am   29  VAL29      -0.1979
     15  CA        86.0570   76.1710  111.8850 C.3    29  VAL29       0.1595
     16  C         85.9110   74.7230  112.3330 C.2    29  VAL29       0.2287
     17  O         84.8140   74.1550  112.2530 O.2    29  VAL29      -0.2864
     18  CB        85.3960   77.1060  112.9250 C.3    29  VAL29       0.0276
     19  CG1       86.2380   77.1700  114.2110 C.3    29  VAL29       0.0022
     20  CG2       85.1070   78.4930  112.3640 C.3    29  VAL29       0.0022
     21  N         90.0280   76.0830  118.9190 N.3    42  ALA42      -0.1245
     22  CA        89.2930   76.1840  117.6600 C.3    42  ALA42       0.1562
     23  C         90.2680   76.5770  116.5640 C.2    42  ALA42       0.2260
     24  O         91.0760   77.4890  116.7560 O.2    42  ALA42      -0.2867
     25  CB        88.1710   77.2140  117.7520 C.3    42  ALA42       0.0290
     26  N         90.4340   77.8560  112.6220 N.3    44  LYS44      -0.1245
     27  CA        89.7000   78.4460  111.5180 C.3    44  LYS44       0.1561
     28  C         90.5590   78.4660  110.2610 C.2    44  LYS44       0.2260
     29  O         91.6860   78.9730  110.2810 O.2    44  LYS44      -0.2867
     30  CB        89.2450   79.8580  111.8580 C.3    44  LYS44       0.0271
     31  CG        88.4530   80.4640  110.7080 C.3    44  LYS44       0.0035
     32  CD        87.6090   81.6350  111.1400 C.3    44  LYS44       0.0206
     33  CE        87.0280   82.3290  109.9280 C.3    44  LYS44       0.1093
     34  NZ        86.2650   83.5650  110.2470 N.3    44  LYS44      -0.1314
     35  N         90.6430   80.1720  106.7740 N.3    46  LEU46      -0.1231
     36  CA        90.1000   81.2020  105.8880 C.3    46  LEU46       0.1693
     37  C         89.8550   80.6600  104.4770 C.2    46  LEU46       0.2592
     38  O         90.6380   79.8660  103.9310 O.2    46  LEU46      -0.2718
     39  CB        91.0400   82.4110  105.8170 C.3    46  LEU46       0.0284
     40  CG        91.3180   83.1750  107.1020 C.3    46  LEU46       0.0019
     41  CD1       92.3430   84.2680  106.8330 C.3    46  LEU46       0.0001
     42  CD2       90.0440   83.7440  107.6830 C.3    46  LEU46       0.0001
     43  N         88.7700   81.1190  103.8750 N.am   47  SER47      -0.1952
     44  CA        88.2860   80.5830  102.6200 C.3    47  SER47       0.1924
     45  C         88.6050   81.5600  101.4990 C.2    47  SER47       0.2314
     46  O         88.3980   82.7660  101.6560 O.2    47  SER47      -0.2863
     47  CB        86.7820   80.3320  102.7070 C.3    47  SER47       0.2116
     48  OG        86.2800   79.8990  101.4600 O.3    47  SER47      -0.2180
     49  N         91.3090   91.3300  108.7990 N.3    62  GLU62      -0.1245
     50  CA        90.8490   90.4080  109.8390 C.3    62  GLU62       0.1567
     51  C         91.9980   89.8940  110.6920 C.2    62  GLU62       0.2260
     52  O         91.8670   89.7950  111.9190 O.2    62  GLU62      -0.2867
     53  CB        90.0830   89.2290  109.2330 C.3    62  GLU62       0.0388
     54  CG        89.4100   88.3930  110.3380 C.3    62  GLU62       0.1160
     55  CD        88.7250   87.0870  109.8970 C.2    62  GLU62       0.3649
     56  OE1       88.0960   86.9890  108.8160 O.co2  62  GLU62      -0.2457
     57  OE2       88.8140   86.1270  110.6760 O.co2  62  GLU62      -0.2457
     58  N         86.9530   87.4740  120.6050 N.3    75  ILE75      -0.1245
     59  CA        87.7450   86.2670  120.3630 C.3    75  ILE75       0.1561
     60  C         89.2160   86.6410  120.1670 C.2    75  ILE75       0.2260
     61  O         89.5610   87.4860  119.3320 O.2    75  ILE75      -0.2867
     62  CB        87.1660   85.4720  119.1850 C.3    75  ILE75       0.0252
     63  CG1       87.8500   84.1130  119.0460 C.3    75  ILE75       0.0019
     64  CG2       87.2450   86.2200  117.8680 C.3    75  ILE75       0.0019
     65  CD1       87.5570   83.1610  120.1840 C.3    75  ILE75       0.0001
     66  N         92.1330   79.8680  118.0790 N.3    97  THR97      -0.1203
     67  CA        91.4670   80.6130  119.1340 C.3    97  THR97       0.1994
     68  C         90.9600   79.6510  120.2080 C.2    97  THR97       0.2618
     69  O         90.9480   78.4340  120.0310 O.2    97  THR97      -0.2717
     70  CB        90.3030   81.4450  118.5770 C.3    97  THR97       0.1784
     71  OG1       89.4410   80.6010  117.8040 O.3    97  THR97      -0.2211
     72  CG2       90.8050   82.6140  117.7380 C.3    97  THR97       0.0376
     73  N         90.5370   80.2230  121.3370 N.am   98  HIS98      -0.1961
     74  CA        89.8350   79.4660  122.3720 C.3    98  HIS98       0.1787
     75  C         88.5650   78.8060  121.8410 C.2    98  HIS98       0.2620
     76  O         87.8160   79.3970  121.0600 O.2    98  HIS98      -0.2715
     77  CB        89.4890   80.3830  123.5540 C.3    98  HIS98       0.0785
     78  CG        90.5440   80.3990  124.6110 C.ar   98  HIS98       0.0821
     79  ND1       91.7640   81.0170  124.4300 N.ar   98  HIS98      -0.2267
     80  CD2       90.5890   79.8240  125.8370 C.ar   98  HIS98       0.1154
     81  CE1       92.5080   80.8390  125.5070 C.ar   98  HIS98       0.1986
     82  NE2       91.8190   80.1160  126.3750 N.ar   98  HIS98      -0.2212
     83  N         88.3240   77.5730  122.2870 N.am   99  LEU99      -0.1963
     84  CA        87.1630   76.7880  121.8930 C.3    99  LEU99       0.1728
     85  C         85.9560   77.1690  122.7400 C.2    99  LEU99       0.2616
     86  O         86.0430   77.2030  123.9660 O.2    99  LEU99      -0.2715
     87  CB        87.4730   75.3030  122.0660 C.3    99  LEU99       0.0311
     88  CG        86.3170   74.3950  121.7090 C.3    99  LEU99       0.0022
     89  CD1       85.8530   74.7120  120.3020 C.3    99  LEU99       0.0001
     90  CD2       86.7450   72.9510  121.8180 C.3    99  LEU99       0.0001
     91  N         84.8320   77.4440  122.0920 N.am  100  MET100     -0.1963
     92  CA        83.7180   78.0820  122.7710 C.3   100  MET100      0.1736
     93  C         82.4410   77.2510  122.8310 C.2   100  MET100      0.2617
     94  O         81.7350   77.2990  123.8370 O.2   100  MET100     -0.2715
     95  CB        83.4440   79.4480  122.1280 C.3   100  MET100      0.0427
     96  CG        82.9920   80.4930  123.1300 C.3   100  MET100      0.0599
     97  SD        84.1970   80.9880  124.3840 S.3   100  MET100     -0.1393
     98  CE        83.0960   81.6420  125.6260 C.3   100  MET100      0.0692
     99  N         82.1040   76.4960  121.8110 N.am  101  GLY101     -0.1940
    100  CA        81.0650   75.5130  122.0130 C.3   101  GLY101      0.2014
    101  C         79.6680   75.7790  121.4610 C.2   101  GLY101      0.2639
    102  O         78.8780   74.8330  121.3840 O.2   101  GLY101     -0.2714
    103  N         79.3310   77.0080  121.1020 N.am  102  ALA102     -0.1963
    104  CA        78.0830   77.2670  120.3850 C.3   102  ALA102      0.1728
    105  C         78.0750   78.6630  119.7740 C.2   102  ALA102      0.2616
    106  O         78.8630   79.5280  120.1500 O.2   102  ALA102     -0.2715
    107  CB        76.8840   77.1200  121.2970 C.3   102  ALA102      0.0334
    108  N         77.1310   78.8800  118.8680 N.am  103  ASP103     -0.1971
    109  CA        76.8390   80.2000  118.3360 C.3   103  ASP103      0.1709
    110  C         75.3830   80.5450  118.6340 C.2   103  ASP103      0.2293
    111  O         74.5390   79.6540  118.7680 O.2   103  ASP103     -0.2864
    112  CB        77.1640   80.2510  116.8190 C.3   103  ASP103      0.1436
    113  CG        76.0300   79.7760  115.9390 C.2   103  ASP103      0.3671
    114  OD1       74.9420   80.3760  116.0100 O.co2 103  ASP103     -0.2456
    115  OD2       76.2140   78.8370  115.1420 O.co2 103  ASP103     -0.2456
    116  N         79.2660   93.3970  110.8810 N.3   141  ASP141     -0.1239
    117  CA        78.5450   92.1550  110.5780 C.3   141  ASP141      0.1674
    118  C         78.1470   91.4190  111.8570 C.2   141  ASP141      0.2266
    119  O         78.2170   90.1940  111.9430 O.2   141  ASP141     -0.2867
    120  CB        79.3170   91.2170  109.6440 C.3   141  ASP141      0.1410
    121  CG        78.3690   90.2630  108.8450 C.2   141  ASP141      0.3668
    122  OD1       77.1410   90.5610  108.7590 O.co2 141  ASP141     -0.2456
    123  OD2       78.8320   89.2200  108.3080 O.co2 141  ASP141     -0.2456
    124  N         74.8780   84.3390  114.1870 N.3   145  SER145     -0.1202
    125  CA        75.8880   83.3110  113.9380 C.3   145  SER145      0.2020
    126  C         77.3200   83.7730  114.2250 C.2   145  SER145      0.2618
    127  O         78.2110   82.9160  114.3020 O.2   145  SER145     -0.2717
    128  CB        75.7850   82.7870  112.5000 C.3   145  SER145      0.2103
    129  OG        76.2600   83.7150  111.5460 O.3   145  SER145     -0.2182
    130  N         77.5530   85.0830  114.4340 N.am  146  ASN146     -0.1974
    131  CA        78.8800   85.6380  114.7190 C.3   146  ASN146      0.1688
    132  C         79.0700   86.0540  116.1820 C.2   146  ASN146      0.2292
    133  O         79.7990   87.0070  116.4640 O.2   146  ASN146     -0.2864
    134  CB        79.1740   86.8330  113.8130 C.3   146  ASN146      0.1181
    135  CG        79.5100   86.4120  112.3940 C.2   146  ASN146      0.2629
    136  OD1       79.8010   85.2350  112.1290 O.2   146  ASN146     -0.2716
    137  ND2       79.4830   87.3700  111.4740 N.am  146  ASN146     -0.0877
    138  N         79.6290   83.8140  120.0240 N.3   148  ALA148     -0.1245
    139  CA        79.7590   82.4800  120.5920 C.3   148  ALA148      0.1562
    140  C         79.6190   82.5050  122.1170 C.2   148  ALA148      0.2260
    141  O         79.9990   83.4800  122.7900 O.2   148  ALA148     -0.2867
    142  CB        81.1010   81.8540  120.1880 C.3   148  ALA148      0.0290
    143  N         82.8000   87.2410  117.5350 N.3   158  LEU158     -0.1231
    144  CA        83.5710   86.5930  116.4720 C.3   158  LEU158      0.1693
    145  C         83.5500   87.4000  115.1740 C.2   158  LEU158      0.2592
    146  O         82.7430   88.3120  114.9980 O.2   158  LEU158     -0.2718
    147  CB        83.0180   85.2050  116.1480 C.3   158  LEU158      0.0284
    148  CG        82.5880   84.2130  117.2110 C.3   158  LEU158      0.0019
    149  CD1       81.8370   83.1140  116.4910 C.3   158  LEU158      0.0001
    150  CD2       83.7680   83.6390  117.9580 C.3   158  LEU158      0.0001
    151  N         84.4520   87.0230  114.2500 N.am  159  ASP159     -0.1974
    152  CA        84.3300   87.2440  112.8010 C.3   159  ASP159      0.1709
    153  C         84.5620   88.6930  112.3930 C.2   159  ASP159      0.2293
    154  O         83.6060   89.4210  112.0760 O.2   159  ASP159     -0.2864
    155  CB        82.9530   86.7820  112.2820 C.3   159  ASP159      0.1436
    156  CG        82.8680   86.6920  110.7190 C.2   159  ASP159      0.3671
    157  OD1       82.1250   85.8330  110.2020 O.co2 159  ASP159     -0.2456
    158  OD2       83.4880   87.4870  109.9960 O.co2 159  ASP159     -0.2456
    159  N         86.0520   89.5000  109.6520 N.3   161  GLY161     -0.1210
    160  CA        86.2050   89.4870  108.2010 C.3   161  GLY161      0.1956
    161  C         85.7660   90.7650  107.5070 C.2   161  GLY161      0.2611
    162  O         86.2240   91.0950  106.4050 O.2   161  GLY161     -0.2717
    163  N         84.8870   91.5150  108.1640 N.am  162  LEU162     -0.1979
    164  CA        84.3500   92.7390  107.6010 C.3   162  LEU162      0.1596
    165  C         84.7200   93.9640  108.4290 C.2   162  LEU162      0.2287
    166  O         84.2380   95.0630  108.1470 O.2   162  LEU162     -0.2864
    167  CB        82.8390   92.6030  107.4580 C.3   162  LEU162      0.0297
    168  CG        82.3130   92.1890  106.0890 C.3   162  LEU162      0.0022
    169  CD1       80.8100   92.3310  106.0600 C.3   162  LEU162      0.0001
    170  CD2       82.9290   93.0560  105.0160 C.3   162  LEU162      0.0001
@<TRIPOS>BOND
     1    48    47    1
     2    45    46    2
     3    45    44    1
     4    44    47    1
     5    44    43    1
     6    43    37   am
     7    38    37    2
     8    37    36    1
     9   170   168    1
    10    39    36    1
    11    39    40    1
    12    36    35    1
    13   169   168    1
    14   168   167    1
    15   162   161    2
    16    41    40    1
    17    40    42    1
    18   167   164    1
    19   161   163   am
    20   161   160    1
    21   164   163    1
    22   164   165    1
    23    12     9    1
    24    12    13    1
    25     8     9    1
    26     9    10    1
    27   166   165    2
    28   160   159    1
    29   123   121   ar
    30   122   121   ar
    31    49    50    1
    32    56    55   ar
    33   121   120    1
    34    53    50    1
    35    53    54    1
    36    10    11    2
    37    10    14   am
    38   120   117    1
    39    50    51    1
    40    55    54    1
    41    55    57   ar
    42    33    34    1
    43    33    32    1
    44   158   156   ar
    45   157   156   ar
    46    28    29    2
    47    28    27    1
    48    14    15    1
    49   117   116    1
    50   117   118    1
    51    51    52    2
    52    31    32    1
    53    31    30    1
    54   156   155    1
    55   137   135   am
    56    27    30    1
    57    27    26    1
    58   129   128    1
    59   118   119    2
    60    15    16    1
    61    15    18    1
    62   154   153    2
    63   136   135    2
    64    17    16    2
    65   155   152    1
    66    20    18    1
    67   153   152    1
    68   135   134    1
    69   128   125    1
    70   152   151    1
    71    18    19    1
    72     4     3    2
    73     1     2    1
    74     3     2    1
    75   134   131    1
    76   125   124    1
    77   125   126    1
    78   126   127    2
    79   126   130   am
    80   151   145   am
    81   130   131    1
    82     2     5    1
    83   131   132    1
    84     7     5    1
    85   146   145    2
    86   115   113   ar
    87   145   144    1
    88     5     6    1
    89   113   114   ar
    90   113   112    1
    91   147   144    1
    92   147   148    1
    93   132   133    2
    94   144   143    1
    95   149   148    1
    96    23    24    2
    97    23    22    1
    98   112   109    1
    99   148   150    1
   100    22    25    1
   101    22    21    1
   102    72    70    1
   103    71    70    1
   104    64    62    1
   105    66    67    1
   106   109   110    1
   107   109   108    1
   108    70    67    1
   109   110   111    2
   110   108   105   am
   111    63    62    1
   112    63    65    1
   113    67    68    1
   114    62    59    1
   115    61    60    2
   116   105   106    2
   117   105   104    1
   118   138   139    1
   119    69    68    2
   120    60    59    1
   121   142   139    1
   122    68    73   am
   123    89    88    1
   124    59    58    1
   125   104   103    1
   126   104   107    1
   127   139   140    1
   128    76    75    2
   129   103   101   am
   130    73    74    1
   131   102   101    2
   132   101   100    1
   133    88    90    1
   134    88    87    1
   135    99   100    1
   136    99    93   am
   137    75    83   am
   138    75    74    1
   139    84    87    1
   140    84    83    1
   141    84    85    1
   142    91    85   am
   143    91    92    1
   144   140   141    2
   145    95    92    1
   146    95    96    1
   147    74    77    1
   148    85    86    2
   149    92    93    1
   150    93    94    2
   151    96    97    1
   152    77    78    1
   153    97    98    1
   154    79    78   ar
   155    79    81   ar
   156    78    80   ar
   157    81    82   ar
   158    80    82   ar
