@<TRIPOS>MOLECULE
tmp/5o00A01.pdb
 92 86 0 0 0
SMALL
GASTEIGER

@<TRIPOS>ATOM
      1  N          1.4350   15.4140   18.2040 N.3    13  VAL13      -0.1231
      2  CA         1.9070   14.1340   17.6770 C.3    13  VAL13       0.1692
      3  C          2.7630   14.3290   16.4360 C.2    13  VAL13       0.2593
      4  O          3.8430   13.7460   16.3150 O.2    13  VAL13      -0.2718
      5  CB         0.7130   13.2030   17.3710 C.3    13  VAL13       0.0266
      6  CG1        1.2150   11.8380   16.8880 C.3    13  VAL13       0.0020
      7  CG2       -0.1860   13.0500   18.5830 C.3    13  VAL13       0.0020
      8  N          2.2800   15.1340   15.4940 N.am   14  GLY14      -0.1943
      9  CA         2.9620   15.3440   14.2390 C.3    14  GLY14       0.1998
     10  C          4.3780   15.8440   14.4470 C.2    14  GLY14       0.2480
     11  O          4.6120   16.7560   15.2450 O.2    14  GLY14      -0.2729
     12  N          5.3570   15.2630   13.7430 N.am   15  PRO15      -0.2726
     13  CA         6.7490   15.6870   13.9810 C.3    15  PRO15       0.1402
     14  C          7.0840   17.0810   13.4810 C.2    15  PRO15       0.2269
     15  O          7.8950   17.7690   14.1090 O.2    15  PRO15      -0.2865
     16  CB         7.5670   14.6250   13.2310 C.3    15  PRO15       0.0296
     17  CG         6.6800   13.4550   13.1300 C.3    15  PRO15       0.0237
     18  CD         5.3090   14.0230   12.9480 C.3    15  PRO15       0.0939
     19  N          7.0680    9.4750    6.8440 N.3   109  GLY109     -0.1225
     20  CA         5.6610    9.6560    7.1480 C.3   109  GLY109      0.1811
     21  C          4.7710    8.5680    6.5850 C.2   109  GLY109      0.2280
     22  O          3.7560    8.2220    7.1980 O.2   109  GLY109     -0.2866
     23  N          5.0470    5.7790    8.8510 N.3   112  GLY112     -0.1225
     24  CA         4.2340    6.0670   10.0200 C.3   112  GLY112      0.1811
     25  C          2.7570    5.8610    9.7550 C.2   112  GLY112      0.2280
     26  O          2.0380    5.2930   10.5820 O.2   112  GLY112     -0.2866
     27  N          1.4020    3.0010   11.8990 N.3   116  ALA116     -0.1231
     28  CA         1.1740    3.5440   13.2340 C.3   116  ALA116      0.1694
     29  C         -0.0070    4.4940   13.3620 C.2   116  ALA116      0.2591
     30  O         -0.6910    4.4590   14.3870 O.2   116  ALA116     -0.2718
     31  CB         2.4410    4.2750   13.6960 C.3   116  ALA116      0.0304
     32  N         -0.2440    5.3700   12.3910 N.am  117  VAL117     -0.1980
     33  CA        -1.1430    6.5010   12.6180 C.3   117  VAL117      0.1595
     34  C         -2.3350    6.5320   11.6760 C.2   117  VAL117      0.2287
     35  O         -3.2820    7.2890   11.9400 O.2   117  VAL117     -0.2864
     36  CB        -0.3860    7.8480   12.5690 C.3   117  VAL117      0.0276
     37  CG1        0.7650    7.8470   13.5920 C.3   117  VAL117      0.0022
     38  CG2        0.1240    8.1510   11.1840 C.3   117  VAL117      0.0022
     39  N         12.1420   13.4440   12.8350 N.3   167  TRP167     -0.1241
     40  CA        11.7720   12.2250   12.1180 C.3   167  TRP167      0.1605
     41  C         12.7550   11.0890   12.3820 C.2   167  TRP167      0.2264
     42  O         12.3530    9.9190   12.4070 O.2   167  TRP167     -0.2867
     43  CB        11.6600   12.4930   10.6170 C.3   167  TRP167      0.0550
     44  CG        10.3120   13.0210   10.1860 C.ar  167  TRP167      0.0003
     45  CD1       10.0380   14.2610    9.6810 C.ar  167  TRP167      0.0946
     46  CD2        9.0580   12.3190   10.2220 C.ar  167  TRP167      0.0152
     47  NE1        8.6970   14.3720    9.3990 N.ar  167  TRP167     -0.2442
     48  CE2        8.0740   13.1950    9.7250 C.ar  167  TRP167      0.0810
     49  CE3        8.6740   11.0390   10.6330 C.ar  167  TRP167      0.0012
     50  CZ2        6.7330   12.8290    9.6210 C.ar  167  TRP167      0.0191
     51  CZ3        7.3430   10.6780   10.5280 C.ar  167  TRP167      0.0001
     52  CH2        6.3890   11.5680   10.0270 C.ar  167  TRP167      0.0015
     53  N         11.6830    9.6120   15.6620 N.3   170  THR170     -0.1218
     54  CA        10.4830    8.8150   15.4250 C.3   170  THR170      0.1862
     55  C         10.8280    7.4850   14.7690 C.2   170  THR170      0.2287
     56  O         10.2550    6.4430   15.1130 O.2   170  THR170     -0.2866
     57  CB         9.5060    9.6040   14.5510 C.3   170  THR170      0.1770
     58  OG1        9.2330   10.8700   15.1590 O.3   170  THR170     -0.2211
     59  CG2        8.2000    8.8480   14.3650 C.3   170  THR170      0.0375
     60  N         10.2570    4.0520   16.8310 N.3   174  LEU174     -0.1231
     61  CA         8.9830    3.5370   16.4140 C.3   174  LEU174      0.1693
     62  C          9.0670    2.7940   15.0170 C.2   174  LEU174      0.2591
     63  O          8.8790    1.6290   14.8600 O.2   174  LEU174     -0.2718
     64  CB         7.8590    4.6510   16.4390 C.3   174  LEU174      0.0284
     65  CG         6.6410    4.3590   17.2930 C.3   174  LEU174      0.0019
     66  CD1        5.7640    3.2630   16.6770 C.3   174  LEU174      0.0001
     67  CD2        7.0880    3.9850   18.7270 C.3   174  LEU174      0.0001
     68  N          9.3890    3.5180   14.0050 N.am  175  LEU175     -0.1980
     69  CA         9.1140    3.0520   12.6460 C.3   175  LEU175      0.1596
     70  C          9.9660    1.8490   12.2580 C.2   175  LEU175      0.2287
     71  O          9.4750    0.9410   11.5780 O.2   175  LEU175     -0.2864
     72  CB         9.3140    4.1900   11.6470 C.3   175  LEU175      0.0297
     73  CG         8.5560    5.4730   11.9980 C.3   175  LEU175      0.0022
     74  CD1        8.7430    6.5530   10.9400 C.3   175  LEU175      0.0001
     75  CD2        7.0830    5.1710   12.1950 C.3   175  LEU175      0.0001
     76  N          7.3790   18.0560   23.7730 N.3   211  LYS211     -0.1245
     77  CA         6.4830   17.2770   22.9230 C.3   211  LYS211      0.1561
     78  C          5.8700   16.1120   23.6920 C.2   211  LYS211      0.2260
     79  O          4.6590   15.8750   23.6220 O.2   211  LYS211     -0.2867
     80  CB         7.2440   16.7780   21.6940 C.3   211  LYS211      0.0271
     81  CG         6.3920   16.0180   20.6830 C.3   211  LYS211      0.0035
     82  CD         7.2150   15.6070   19.4660 C.3   211  LYS211      0.0206
     83  CE         6.3420   15.0670   18.3380 C.3   211  LYS211      0.1093
     84  NZ         5.6000   13.8390   18.7250 N.3   211  LYS211     -0.1314
     85  N          1.8830   15.6330   24.5260 N.3   215  ILE215     -0.1245
     86  CA         1.0770   14.4540   24.2170 C.3   215  ILE215      0.1561
     87  C          0.3620   13.9640   25.4670 C.2   215  ILE215      0.2260
     88  O         -0.8190   13.5960   25.4250 O.2   215  ILE215     -0.2867
     89  CB         1.9590   13.3510   23.6000 C.3   215  ILE215      0.0252
     90  CG1        2.4530   13.7710   22.2150 C.3   215  ILE215      0.0019
     91  CG2        1.1890   12.0330   23.5070 C.3   215  ILE215      0.0019
     92  CD1        3.5400   12.8690   21.6550 C.3   215  ILE215      0.0001
@<TRIPOS>BOND
     1    21    20    1
     2    21    22    2
     3    19    20    1
     4    23    24    1
     5    47    45   ar
     6    47    48   ar
     7    50    48   ar
     8    50    52   ar
     9    45    44   ar
    10    48    46   ar
    11    25    24    1
    12    25    26    2
    13    52    51   ar
    14    44    46   ar
    15    44    43    1
    16    46    49   ar
    17    51    49   ar
    18    43    40    1
    19    74    73    1
    20    38    36    1
    21    71    70    2
    22    72    73    1
    23    72    69    1
    24    34    35    2
    25    34    33    1
    26    27    28    1
    27    73    75    1
    28    40    41    1
    29    40    39    1
    30    70    69    1
    31    41    42    2
    32    32    33    1
    33    32    29   am
    34    36    33    1
    35    36    37    1
    36    69    68    1
    37    18    17    1
    38    18    12    1
    39    17    16    1
    40    16    13    1
    41    28    29    1
    42    28    31    1
    43    29    30    2
    44    14    13    1
    45    14    15    2
    46    12    13    1
    47    12    10   am
    48    68    62   am
    49     9    10    1
    50     9     8    1
    51    59    57    1
    52    10    11    2
    53    57    58    1
    54    57    54    1
    55    55    56    2
    56    55    54    1
    57    63    62    2
    58    62    61    1
    59    54    53    1
    60     8     3   am
    61     4     3    2
    62    61    64    1
    63    61    60    1
    64     3     2    1
    65    64    65    1
    66    66    65    1
    67     6     5    1
    68    65    67    1
    69     5     2    1
    70     5     7    1
    71     2     1    1
    72    83    84    1
    73    83    82    1
    74    82    81    1
    75    81    80    1
    76    92    90    1
    77    80    77    1
    78    90    89    1
    79    77    78    1
    80    77    76    1
    81    91    89    1
    82    89    86    1
    83    79    78    2
    84    86    85    1
    85    86    87    1
    86    88    87    2
