@<TRIPOS>MOLECULE
tmp/5o07A00.pdb
 159 156 0 0 0
SMALL
GASTEIGER

@<TRIPOS>ATOM
      1  N          8.5120   -0.3630   10.4900 N.3     2  TRP2       -0.1241
      2  CA         7.8260   -1.3770   11.2860 C.3     2  TRP2        0.1605
      3  C          6.8280   -2.2020   10.5040 C.2     2  TRP2        0.2264
      4  O          6.2840   -1.7640    9.4870 O.2     2  TRP2       -0.2867
      5  CB         7.1170   -0.7290   12.4910 C.3     2  TRP2        0.0550
      6  CG         5.9450    0.1240   12.1160 C.ar    2  TRP2        0.0003
      7  CD1        5.9500    1.4550   11.7830 C.ar    2  TRP2        0.0946
      8  CD2        4.5840   -0.3130   12.0110 C.ar    2  TRP2        0.0152
      9  NE1        4.6710    1.8670   11.4720 N.ar    2  TRP2       -0.2442
     10  CE2        3.8140    0.8020   11.6100 C.ar    2  TRP2        0.0810
     11  CE3        3.9430   -1.5460   12.2190 C.ar    2  TRP2        0.0012
     12  CZ2        2.4310    0.7220   11.4170 C.ar    2  TRP2        0.0191
     13  CZ3        2.5660   -1.6220   12.0180 C.ar    2  TRP2        0.0001
     14  CH2        1.8310   -0.4960   11.6240 C.ar    2  TRP2        0.0015
     15  N         -3.2670    0.3530    3.5620 N.3    59  ASN59      -0.1240
     16  CA        -2.1310    1.1780    3.9540 C.3    59  ASN59       0.1653
     17  C         -0.8730    0.3590    4.2340 C.2    59  ASN59       0.2266
     18  O          0.0900    0.8520    4.8400 O.2    59  ASN59      -0.2867
     19  CB        -2.4930    2.0100    5.1850 C.3    59  ASN59       0.1155
     20  CG        -2.7480    1.1520    6.4090 C.2    59  ASN59       0.2627
     21  OD1       -2.5920   -0.0710    6.3660 O.2    59  ASN59      -0.2716
     22  ND2       -3.1180    1.7910    7.5070 N.am   59  ASN59      -0.0877
     23  N         -8.3810    0.3390    5.6240 N.3    64  ASN64      -0.1240
     24  CA        -9.1660    1.2770    6.3990 C.3    64  ASN64       0.1653
     25  C        -10.3710    1.7780    5.6410 C.2    64  ASN64       0.2266
     26  O        -10.2300    2.2310    4.5060 O.2    64  ASN64      -0.2867
     27  CB        -8.3550    2.5320    6.7490 C.3    64  ASN64       0.1155
     28  CG        -7.1160    2.2570    7.5890 C.2    64  ASN64       0.2627
     29  OD1       -7.0190    1.2670    8.3120 O.2    64  ASN64      -0.2716
     30  ND2       -6.1460    3.1940    7.5070 N.am   64  ASN64      -0.0877
     31  N        -13.9180    8.2560   12.6310 N.3    88  ILE88      -0.1231
     32  CA       -13.0400    8.6660   11.5540 C.3    88  ILE88       0.1692
     33  C        -12.7740    7.4890   10.5980 C.2    88  ILE88       0.2591
     34  O        -12.6880    7.6770    9.3820 O.2    88  ILE88      -0.2718
     35  CB       -11.6960    9.2690   12.0980 C.3    88  ILE88       0.0266
     36  CG1      -10.7720    9.5860   10.9110 C.3    88  ILE88       0.0019
     37  CG2      -11.0010    8.3230   13.0620 C.3    88  ILE88       0.0020
     38  CD1       -9.5770   10.4310   11.3000 C.3    88  ILE88       0.0001
     39  N        -12.6700    6.2680   11.1330 N.am   89  GLN89      -0.1979
     40  CA       -12.4180    5.1220   10.2580 C.3    89  GLN89       0.1601
     41  C        -12.5570    3.8270   11.0260 C.2    89  GLN89       0.2287
     42  O        -12.6720    3.8560   12.2370 O.2    89  GLN89      -0.2864
     43  CB       -10.9860    5.1960    9.6870 C.3    89  GLN89       0.0394
     44  CG        -9.8230    5.1100   10.7430 C.3    89  GLN89       0.0908
     45  CD        -9.1360    3.7400   10.7410 C.2    89  GLN89       0.2608
     46  OE1       -9.6700    2.7570   11.2510 O.2    89  GLN89      -0.2717
     47  NE2       -7.9540    3.6770   10.1430 N.am   89  GLN89      -0.0878
     48  N        -11.1100   -0.4890   10.8420 N.3    91  HIS91      -0.1241
     49  CA       -10.2510   -1.4360   10.1690 C.3    91  HIS91       0.1621
     50  C        -10.3300   -2.7030   10.9980 C.2    91  HIS91       0.2264
     51  O        -11.0150   -2.7430   12.0280 O.2    91  HIS91      -0.2867
     52  CB        -8.7960   -0.9710   10.1440 C.3    91  HIS91       0.0745
     53  CG        -8.2500   -0.6590   11.5090 C.ar   91  HIS91       0.0817
     54  ND1       -8.4610    0.5340   12.1690 N.ar   91  HIS91      -0.2268
     55  CD2       -7.5800   -1.4470   12.3830 C.ar   91  HIS91       0.1154
     56  CE1       -7.9120    0.4190   13.3950 C.ar   91  HIS91       0.1986
     57  NE2       -7.3740   -0.7780   13.5580 N.ar   91  HIS91      -0.2212
     58  N         -7.9740   -6.5110   12.2320 N.3    93  HIS93      -0.1241
     59  CA        -6.7110   -7.2120   12.4600 C.3    93  HIS93       0.1621
     60  C         -7.1480   -8.6720   12.3370 C.2    93  HIS93       0.2264
     61  O         -8.1820   -9.0450   12.8850 O.2    93  HIS93      -0.2867
     62  CB        -6.1740   -6.9720   13.8790 C.3    93  HIS93       0.0745
     63  CG        -5.8570   -5.5420   14.1540 C.ar   93  HIS93       0.0817
     64  ND1       -4.5970   -5.0010   14.0350 N.ar   93  HIS93      -0.2268
     65  CD2       -6.6750   -4.5120   14.4930 C.ar   93  HIS93       0.1154
     66  CE1       -4.6910   -3.7010   14.3190 C.ar   93  HIS93       0.1986
     67  NE2       -5.9350   -3.3670   14.5920 N.ar   93  HIS93      -0.2212
     68  N        -11.9430   -2.6150   14.6720 N.3   116  HIS116     -0.1241
     69  CA       -11.7080   -1.4280   15.4580 C.3   116  HIS116      0.1621
     70  C        -12.3890   -0.2220   14.7820 C.2   116  HIS116      0.2264
     71  O        -12.0490    0.1260   13.6350 O.2   116  HIS116     -0.2867
     72  CB       -10.1770   -1.1870   15.5920 C.3   116  HIS116      0.0745
     73  CG        -9.4900   -2.1870   16.4860 C.ar  116  HIS116      0.0817
     74  ND1       -8.1260   -2.3850   16.4490 N.ar  116  HIS116     -0.2268
     75  CD2      -10.0330   -2.9820   17.4390 C.ar  116  HIS116      0.1154
     76  CE1       -7.8630   -3.2900   17.3770 C.ar  116  HIS116      0.1986
     77  NE2       -8.9780   -3.6890   18.0080 N.ar  116  HIS116     -0.2212
     78  N        -12.6460    3.5280   15.1190 N.3   118  VAL118     -0.1245
     79  CA       -11.8400    4.5830   15.7480 C.3   118  VAL118      0.1561
     80  C        -12.5590    5.9160   15.7680 C.2   118  VAL118      0.2260
     81  O        -13.0340    6.3770   14.7330 O.2   118  VAL118     -0.2867
     82  CB       -10.4830    4.6930   14.9780 C.3   118  VAL118      0.0252
     83  CG1       -9.5580    5.7210   15.6200 C.3   118  VAL118      0.0019
     84  CG2       -9.8170    3.3180   14.9280 C.3   118  VAL118      0.0019
     85  N         -8.4000   14.8790   14.6460 N.3   127  PHE127     -0.1241
     86  CA        -7.7000   13.6700   15.0050 C.3   127  PHE127      0.1605
     87  C         -6.2410   13.8850   15.3670 C.2   127  PHE127      0.2264
     88  O         -5.7680   13.3210   16.3470 O.2   127  PHE127     -0.2867
     89  CB        -7.8260   12.6490   13.8740 C.3   127  PHE127      0.0534
     90  CG        -7.1710   11.3450   14.1760 C.ar  127  PHE127     -0.0203
     91  CD1       -5.8350   11.1440   13.8830 C.ar  127  PHE127     -0.0042
     92  CD2       -7.8990   10.3140   14.7920 C.ar  127  PHE127     -0.0042
     93  CE1       -5.2180    9.9430   14.1890 C.ar  127  PHE127     -0.0003
     94  CE2       -7.2860    9.1070   15.1060 C.ar  127  PHE127     -0.0003
     95  CZ        -5.9470    8.9210   14.8040 C.ar  127  PHE127     -0.0000
     96  N         -4.8680   12.6660   19.2430 N.3   131  VAL131     -0.1245
     97  CA        -3.9340   11.5960   19.6100 C.3   131  VAL131      0.1561
     98  C         -2.8400   12.0260   20.5760 C.2   131  VAL131      0.2260
     99  O         -2.1520   11.1810   21.1440 O.2   131  VAL131     -0.2867
    100  CB        -3.2880   10.9130   18.3820 C.3   131  VAL131      0.0252
    101  CG1       -4.3690   10.3290   17.5100 C.3   131  VAL131      0.0019
    102  CG2       -2.4230   11.8830   17.6070 C.3   131  VAL131      0.0019
    103  N        -11.8310    3.7950   20.9560 N.3   139  VAL139     -0.1245
    104  CA       -11.8680    2.7850   19.9170 C.3   139  VAL139      0.1561
    105  C        -12.7980    1.6800   20.3960 C.2   139  VAL139      0.2260
    106  O        -12.6320    1.1490   21.5020 O.2   139  VAL139     -0.2867
    107  CB       -10.4640    2.1910   19.5870 C.3   139  VAL139      0.0252
    108  CG1      -10.5990    1.1600   18.4460 C.3   139  VAL139      0.0019
    109  CG2       -9.5230    3.2930   19.1210 C.3   139  VAL139      0.0019
    110  N         -2.8380    3.1420   21.0800 N.3   194  LEU194     -0.1231
    111  CA        -2.9970    2.6840   19.7100 C.3   194  LEU194      0.1693
    112  C         -2.2110    1.3520   19.7330 C.2   194  LEU194      0.2593
    113  O         -1.2100    1.2270   20.4490 O.2   194  LEU194     -0.2718
    114  CB        -2.3110    3.6770   18.7680 C.3   194  LEU194      0.0284
    115  CG        -2.9430    5.0640   18.6640 C.3   194  LEU194      0.0019
    116  CD1       -2.0180    5.9600   17.8640 C.3   194  LEU194      0.0001
    117  CD2       -4.3100    4.9690   17.9680 C.3   194  LEU194      0.0001
    118  N         -2.6270    0.3630   18.9500 N.am  195  THR195     -0.1939
    119  CA        -1.9190   -0.9170   18.9460 C.3   195  THR195      0.2028
    120  C         -0.8870   -1.0690   17.8370 C.2   195  THR195      0.2643
    121  O         -0.3130   -2.1510   17.6740 O.2   195  THR195     -0.2714
    122  CB        -2.8620   -2.1000   18.8450 C.3   195  THR195      0.1808
    123  OG1       -3.5200   -2.0690   17.5680 O.3   195  THR195     -0.2208
    124  CG2       -3.8840   -2.0630   19.9900 C.3   195  THR195      0.0379
    125  N         -0.7070   -0.0230   17.0400 N.am  196  THR196     -0.1937
    126  CA         0.3700   -0.0100   16.0490 C.3   196  THR196      0.2013
    127  C          1.1750    1.2580   16.3060 C.2   196  THR196      0.2484
    128  O          0.6860    2.2080   16.9480 O.2   196  THR196     -0.2729
    129  CB        -0.0980    0.1460   14.5740 C.3   196  THR196      0.1807
    130  OG1       -0.6560    1.4630   14.3650 O.3   196  THR196     -0.2208
    131  CG2       -1.1080   -0.9090   14.2220 C.3   196  THR196      0.0379
    132  N          2.4310    1.2830   15.8360 N.am  197  PRO197     -0.2715
    133  CA         3.2370    2.4990   16.0190 C.3   197  PRO197      0.1521
    134  C          2.3540    3.6530   15.4940 C.2   197  PRO197      0.2440
    135  O          1.6190    3.4850   14.4980 O.2   197  PRO197     -0.2731
    136  CB         4.4260    2.2450   15.0980 C.3   197  PRO197      0.0310
    137  CG         4.7010    0.7650   15.3270 C.3   197  PRO197      0.0237
    138  CD         3.2430    0.1680   15.2950 C.3   197  PRO197      0.0939
    139  N          2.4600    4.8550   16.0670 N.am  198  PRO198     -0.2727
    140  CA         3.3050    5.3430   17.1590 C.3   198  PRO198      0.1402
    141  C          2.9450    4.8820   18.5800 C.2   198  PRO198      0.2269
    142  O          3.5570    5.3380   19.5420 O.2   198  PRO198     -0.2865
    143  CB         3.2340    6.8630   16.9820 C.3   198  PRO198      0.0296
    144  CG         1.8370    7.0830   16.4740 C.3   198  PRO198      0.0237
    145  CD         1.6910    5.9670   15.4580 C.3   198  PRO198      0.0939
    146  N        -10.3310    2.2880   25.5280 N.3   205  TRP205     -0.1241
    147  CA       -10.8010    1.1070   24.8180 C.3   205  TRP205      0.1605
    148  C        -12.1570    0.6460   25.3410 C.2   205  TRP205      0.2264
    149  O        -12.3820    0.6030   26.5530 O.2   205  TRP205     -0.2867
    150  CB        -9.7740   -0.0440   24.9610 C.3   205  TRP205      0.0550
    151  CG        -8.6790    0.0880   23.9720 C.ar  205  TRP205      0.0003
    152  CD1       -7.4470    0.6750   24.1460 C.ar  205  TRP205      0.0946
    153  CD2       -8.7440   -0.3290   22.6150 C.ar  205  TRP205      0.0152
    154  NE1       -6.7520    0.6470   22.9590 N.ar  205  TRP205     -0.2442
    155  CE2       -7.5280    0.0310   22.0070 C.ar  205  TRP205      0.0810
    156  CE3       -9.7270   -0.9800   21.8510 C.ar  205  TRP205      0.0012
    157  CZ2       -7.2580   -0.2370   20.6650 C.ar  205  TRP205      0.0191
    158  CZ3       -9.4650   -1.2570   20.5240 C.ar  205  TRP205      0.0001
    159  CH2       -8.2400   -0.8910   19.9380 C.ar  205  TRP205      0.0015
@<TRIPOS>BOND
     1    15    16    1
     2    16    17    1
     3    16    19    1
     4    17    18    2
     5    26    25    2
     6    19    20    1
     7    23    24    1
     8    25    24    1
     9    21    20    2
    10    24    27    1
    11    20    22   am
    12    27    28    1
    13    30    28   am
    14    28    29    2
    15    34    33    2
    16     4     3    2
    17    43    40    1
    18    43    44    1
    19    47    45   am
    20    52    49    1
    21    52    53    1
    22    49    48    1
    23    49    50    1
    24    40    41    1
    25    40    39    1
    26     1     2    1
    27     3     2    1
    28    33    39   am
    29    33    32    1
    30    45    44    1
    31    45    46    2
    32    36    38    1
    33    36    35    1
    34    50    51    2
    35    41    42    2
    36     2     5    1
    37    12    10   ar
    38    12    14   ar
    39     9    10   ar
    40     9     7   ar
    41    53    54   ar
    42    53    55   ar
    43    32    35    1
    44    32    31    1
    45    10     8   ar
    46    14    13   ar
    47     7     6   ar
    48     8     6   ar
    49     8    11   ar
    50    13    11   ar
    51    35    37    1
    52     6     5    1
    53    54    56   ar
    54    58    59    1
    55    60    59    1
    56    60    61    2
    57    55    57   ar
    58    59    62    1
    59    56    57   ar
    60    71    70    2
    61    89    90    1
    62    89    86    1
    63    62    63    1
    64    91    90   ar
    65    91    93   ar
    66    64    63   ar
    67    64    66   ar
    68    63    65   ar
    69    90    92   ar
    70    93    95   ar
    71   131   129    1
    72    66    67   ar
    73   130   129    1
    74    65    67   ar
    75   135   134    2
    76   129   126    1
    77    85    86    1
    78    68    69    1
    79    81    80    2
    80    70    69    1
    81    92    94   ar
    82    95    94   ar
    83    84    82    1
    84    82    83    1
    85    82    79    1
    86    86    87    1
    87   136   137    1
    88   136   133    1
    89    78    79    1
    90   138   137    1
    91   138   132    1
    92    87    88    2
    93   145   139    1
    94   145   144    1
    95    69    72    1
    96   134   133    1
    97   134   139   am
    98    72    73    1
    99    79    80    1
   100   132   133    1
   101   132   127   am
   102   126   127    1
   103   126   125    1
   104   139   140    1
   105   127   128    2
   106    74    73   ar
   107    74    76   ar
   108   144   143    1
   109    73    75   ar
   110   143   140    1
   111   125   120   am
   112   140   141    1
   113    76    77   ar
   114    75    77   ar
   115   101   100    1
   116   123   122    1
   117   102   100    1
   118   121   120    2
   119   120   119    1
   120   116   115    1
   121   117   115    1
   122   100    97    1
   123   108   107    1
   124   141   142    2
   125   115   114    1
   126   114   111    1
   127   122   119    1
   128   122   124    1
   129   119   118    1
   130   118   112   am
   131   109   107    1
   132    96    97    1
   133   107   104    1
   134    97    98    1
   135   111   112    1
   136   111   110    1
   137   112   113    2
   138   104   105    1
   139   104   103    1
   140   159   158   ar
   141   159   157   ar
   142   105   106    2
   143   158   156   ar
   144    98    99    2
   145   157   155   ar
   146   156   153   ar
   147   155   153   ar
   148   155   154   ar
   149   153   151   ar
   150   154   152   ar
   151   151   152   ar
   152   151   150    1
   153   147   150    1
   154   147   148    1
   155   147   146    1
   156   148   149    2
