@<TRIPOS>MOLECULE
tmp/5o09Q00.pdb
 198 185 0 0 0
SMALL
GASTEIGER

@<TRIPOS>ATOM
      1  N        147.6190  178.1620  262.1410 N.3     9  GLY9       -0.1210
      2  CA       147.3960  179.1880  261.1440 C.3     9  GLY9        0.1956
      3  C        148.6140  180.0460  260.9180 C.2     9  GLY9        0.2612
      4  O        149.4960  180.1080  261.7620 O.2     9  GLY9       -0.2717
      5  N        148.6660  180.7330  259.7830 N.am   10  GLN10      -0.1965
      6  CA       149.7910  181.6190  259.4710 C.3    10  GLN10       0.1733
      7  C        149.8530  182.7600  260.4480 C.2    10  GLN10       0.2616
      8  O        150.9600  183.1720  260.8170 O.2    10  GLN10      -0.2715
      9  CB       149.6690  182.1500  258.0390 C.3    10  GLN10       0.0408
     10  CG       150.7480  183.1270  257.6260 C.3    10  GLN10       0.0908
     11  CD       150.6250  183.5370  256.1930 C.2    10  GLN10       0.2608
     12  OE1      149.7220  183.0740  255.4780 O.2    10  GLN10      -0.2717
     13  NE2      151.5440  184.3880  255.7320 N.am   10  GLN10      -0.0878
     14  N        148.6860  183.2800  260.8720 N.am   11  CYS11      -0.1968
     15  CA       148.6440  184.3370  261.8940 C.3    11  CYS11       0.1712
     16  C        149.1860  183.8710  263.2600 C.2    11  CYS11       0.2296
     17  O        149.9580  184.5780  263.9280 O.2    11  CYS11      -0.2864
     18  CB       147.2780  184.8700  262.0680 C.3    11  CYS11       0.0983
     19  SG       147.2190  186.1010  263.3590 S.3    11  CYS11      -0.0798
     20  N        153.0820  183.0620  263.0080 N.3    14  GLN14      -0.1245
     21  CA       153.8760  184.2600  262.9520 C.3    14  GLN14       0.1566
     22  C        153.9420  184.9200  264.3140 C.2    14  GLN14       0.2260
     23  O        154.9210  185.6390  264.6010 O.2    14  GLN14      -0.2867
     24  CB       153.3820  185.2100  261.8800 C.3    14  GLN14       0.0367
     25  CG       153.7730  184.7270  260.4890 C.3    14  GLN14       0.0905
     26  CD       153.2450  185.6030  259.3700 C.2    14  GLN14       0.2608
     27  OE1      152.4290  186.5280  259.5690 O.2    14  GLN14      -0.2717
     28  NE2      153.6660  185.2730  258.1450 N.am   14  GLN14      -0.0878
     29  N        148.9640  174.5900  258.0830 N.3    60  LEU60      -0.1231
     30  CA       148.8650  174.2820  256.6660 C.3    60  LEU60       0.1693
     31  C        149.4740  175.4720  255.9180 C.2    60  LEU60       0.2591
     32  O        149.6260  176.5270  256.5310 O.2    60  LEU60      -0.2718
     33  CB       147.3870  174.0610  256.3000 C.3    60  LEU60       0.0284
     34  CG       146.7770  172.9620  257.2100 C.3    60  LEU60       0.0019
     35  CD1      145.2820  172.7760  257.0630 C.3    60  LEU60       0.0001
     36  CD2      147.5380  171.6420  257.0380 C.3    60  LEU60       0.0001
     37  N        149.7860  175.3160  254.6290 N.am   61  GLU61      -0.1979
     38  CA       150.7280  176.1670  253.8900 C.3    61  GLU61       0.1602
     39  C        152.0960  176.1740  254.5790 C.2    61  GLU61       0.2287
     40  O        152.4840  177.1680  255.1940 O.2    61  GLU61      -0.2864
     41  CB       150.2370  177.6290  253.7220 C.3    61  GLU61       0.0415
     42  CG       149.1520  177.8330  252.7030 C.3    61  GLU61       0.1163
     43  CD       149.6150  177.4900  251.2930 C.2    61  GLU61       0.3649
     44  OE1      150.7790  177.7880  250.9220 O.co2  61  GLU61      -0.2457
     45  OE2      148.8050  176.9070  250.5480 O.co2  61  GLU61      -0.2457
     46  N        146.5470  174.1750  251.7870 N.3    88  GLY88      -0.1210
     47  CA       146.7560  175.1240  252.8630 C.3    88  GLY88       0.1956
     48  C        145.5630  175.7080  253.5660 C.2    88  GLY88       0.2611
     49  O        145.7020  176.8360  254.0710 O.2    88  GLY88      -0.2717
     50  N        144.4570  174.9450  253.6730 N.am   89  ALA89      -0.1979
     51  CA       143.2010  175.4070  254.3320 C.3    89  ALA89       0.1597
     52  C        142.8000  176.7530  253.7700 C.2    89  ALA89       0.2287
     53  O        142.8200  177.7790  254.4840 O.2    89  ALA89      -0.2864
     54  CB       143.3300  175.5400  255.8570 C.3    89  ALA89       0.0319
     55  N        142.0340  179.6300  252.9480 N.3    91  ASN91      -0.1240
     56  CA       141.2050  180.6860  253.5380 C.3    91  ASN91       0.1653
     57  C        139.8010  180.3150  253.4460 C.2    91  ASN91       0.2266
     58  O        138.9850  181.0330  252.8750 O.2    91  ASN91      -0.2867
     59  CB       141.4530  182.0900  252.9560 C.3    91  ASN91       0.1155
     60  CG       142.7700  182.7040  253.4600 C.2    91  ASN91       0.2627
     61  OD1      143.6580  183.0850  252.6830 O.2    91  ASN91      -0.2716
     62  ND2      142.8960  182.7870  254.7670 N.am   91  ASN91      -0.0877
     63  N        144.2750  183.3450  264.4860 N.3   130  SER130     -0.1217
     64  CA       143.3220  184.3820  264.1260 C.3   130  SER130      0.1889
     65  C        141.9610  183.7810  263.9220 C.2   130  SER130      0.2288
     66  O        141.8230  182.5430  263.7770 O.2   130  SER130     -0.2866
     67  CB       143.7350  185.0450  262.8770 C.3   130  SER130      0.2089
     68  OG       142.7560  185.9940  262.4770 O.3   130  SER130     -0.2183
     69  N        140.3780  184.8880  261.3930 N.3   132  GLY132     -0.1210
     70  CA       140.1220  185.4270  260.0890 C.3   132  GLY132      0.1956
     71  C        140.2810  184.4660  258.9410 C.2   132  GLY132      0.2612
     72  O        139.5200  184.5010  258.0020 O.2   132  GLY132     -0.2717
     73  N        141.3000  183.6260  258.9910 N.am  133  GLY133     -0.1942
     74  CA       141.6660  182.8720  257.8130 C.3   133  GLY133      0.2014
     75  C        140.9240  181.5620  257.6930 C.2   133  GLY133      0.2639
     76  O        139.7480  181.4810  257.9930 O.2   133  GLY133     -0.2714
     77  N        141.6100  180.5510  257.1990 N.am  134  GLY134     -0.1939
     78  CA       141.0460  179.2320  257.0450 C.3   134  GLY134      0.2014
     79  C        141.8090  178.1790  257.7850 C.2   134  GLY134      0.2640
     80  O        141.3090  177.1260  258.0180 O.2   134  GLY134     -0.2714
     81  N        143.0410  178.4660  258.1290 N.am  135  SER135     -0.1935
     82  CA       143.8700  177.5930  258.9110 C.3   135  SER135      0.2055
     83  C        143.8200  177.9900  260.3780 C.2   135  SER135      0.2643
     84  O        143.6830  177.1530  261.2370 O.2   135  SER135     -0.2714
     85  CB       145.3390  177.6480  258.3800 C.3   135  SER135      0.2130
     86  OG       146.2000  176.8050  259.1400 O.3   135  SER135     -0.2179
     87  N        143.9420  179.2600  260.6610 N.am  136  GLY136     -0.1954
     88  CA       143.8670  179.7140  262.0520 C.3   136  GLY136      0.1869
     89  C        142.4890  179.7040  262.6090 C.2   136  GLY136      0.2309
     90  O        142.3000  179.5470  263.7960 O.2   136  GLY136     -0.2863
     91  N        143.0670  186.8340  266.5670 N.3   161  VAL161     -0.1231
     92  CA       143.2910  188.1170  265.9330 C.3   161  VAL161      0.1692
     93  C        142.0750  188.3260  265.0500 C.2   161  VAL161      0.2592
     94  O        141.8800  187.6150  264.0640 O.2   161  VAL161     -0.2718
     95  CB       144.6240  188.2070  265.1490 C.3   161  VAL161      0.0266
     96  CG1      144.6800  189.5170  264.4090 C.3   161  VAL161      0.0020
     97  CG2      145.8120  188.1900  266.1050 C.3   161  VAL161      0.0020
     98  N        141.2830  189.3330  265.3960 N.am  162  VAL162     -0.1966
     99  CA       140.0260  189.5950  264.7330 C.3   162  VAL162      0.1712
    100  C        140.3240  190.1480  263.3290 C.2   162  VAL162      0.2458
    101  O        141.3730  190.7740  263.1360 O.2   162  VAL162     -0.2730
    102  CB       139.2140  190.5700  265.6090 C.3   162  VAL162      0.0289
    103  CG1      137.8800  190.9690  264.9820 C.3   162  VAL162      0.0023
    104  CG2      138.9740  189.9180  266.9600 C.3   162  VAL162      0.0023
    105  N        139.4340  189.9030  262.3420 N.am  163  PRO163     -0.2716
    106  CA       139.4900  190.6770  261.1180 C.3   163  PRO163      0.1536
    107  C        139.3770  192.1550  261.3620 C.2   163  PRO163      0.2599
    108  O        138.6550  192.6000  262.2590 O.2   163  PRO163     -0.2715
    109  CB       138.2660  190.1940  260.3120 C.3   163  PRO163      0.0310
    110  CG       137.4880  189.3950  261.2650 C.3   163  PRO163      0.0237
    111  CD       138.4650  188.8210  262.2040 C.3   163  PRO163      0.0939
    112  N        140.0880  192.9110  260.5300 N.am  164  SER164     -0.1950
    113  CA       140.1660  194.3340  260.7180 C.3   164  SER164      0.1924
    114  C        138.8140  194.9820  260.3580 C.2   164  SER164      0.2314
    115  O        138.1540  194.5570  259.4140 O.2   164  SER164     -0.2863
    116  CB       141.2950  194.9210  259.8830 C.3   164  SER164      0.2116
    117  OG       141.3780  196.3030  260.0990 O.3   164  SER164     -0.2180
    118  N        138.8460  194.3360  254.6590 N.3   168  SER168     -0.1202
    119  CA       138.7820  192.9180  254.8110 C.3   168  SER168      0.2020
    120  C        140.1150  192.2550  255.1740 C.2   168  SER168      0.2619
    121  O        140.2630  191.7390  256.2780 O.2   168  SER168     -0.2717
    122  CB       138.2420  192.3210  253.5210 C.3   168  SER168      0.2103
    123  OG       139.1870  192.4520  252.4760 O.3   168  SER168     -0.2182
    124  N        141.0550  192.2490  254.2280 N.am  169  ASP169     -0.1959
    125  CA       142.2740  191.3790  254.1620 C.3   169  ASP169      0.1840
    126  C        142.0010  189.9170  253.7610 C.2   169  ASP169      0.2622
    127  O        142.9310  189.1530  253.5690 O.2   169  ASP169     -0.2715
    128  CB       143.1840  191.4410  255.3980 C.3   169  ASP169      0.1450
    129  CG       144.6850  191.2770  255.0240 C.2   169  ASP169      0.3671
    130  OD1      145.0250  191.0440  253.8380 O.co2 169  ASP169     -0.2456
    131  OD2      145.5300  191.3730  255.9230 O.co2 169  ASP169     -0.2456
    132  N        140.7210  189.5570  253.6990 N.am  170  SER170     -0.1950
    133  CA       140.2350  188.3330  253.0950 C.3   170  SER170      0.1924
    134  C        138.7610  188.4720  252.7920 C.2   170  SER170      0.2314
    135  O        138.0500  189.1080  253.5370 O.2   170  SER170     -0.2863
    136  CB       140.4700  187.1180  254.0200 C.3   170  SER170      0.2116
    137  OG       139.8660  185.9340  253.5140 O.3   170  SER170     -0.2180
    138  N        136.1740  186.4380  254.9700 N.3   173  GLU173     -0.1245
    139  CA       136.6470  186.5600  256.3630 C.3   173  GLU173      0.1567
    140  C        135.5760  186.7560  257.4390 C.2   173  GLU173      0.2260
    141  O        135.6900  186.1580  258.4890 O.2   173  GLU173     -0.2867
    142  CB       137.7430  187.6360  256.4590 C.3   173  GLU173      0.0388
    143  CG       138.5060  187.6270  257.7450 C.3   173  GLU173      0.1160
    144  CD       139.8080  188.4210  257.6890 C.2   173  GLU173      0.3649
    145  OE1      140.1280  188.9840  256.6250 O.co2 173  GLU173     -0.2457
    146  OE2      140.5570  188.4390  258.6920 O.co2 173  GLU173     -0.2457
    147  N        144.0880  193.8750  264.2160 N.3   196  ASN196     -0.1240
    148  CA       145.1810  194.4340  263.4630 C.3   196  ASN196      0.1653
    149  C        145.0210  195.9010  263.1160 C.2   196  ASN196      0.2266
    150  O        146.0160  196.5200  262.7000 O.2   196  ASN196     -0.2867
    151  CB       145.4400  193.6660  262.1700 C.3   196  ASN196      0.1155
    152  CG       146.0390  192.3090  262.4120 C.2   196  ASN196      0.2627
    153  OD1      146.8830  192.1120  263.2720 O.2   196  ASN196     -0.2716
    154  ND2      145.6110  191.3680  261.6460 N.am  196  ASN196     -0.0877
    155  N        146.4290  197.0400  266.3820 N.3   199  LEU199     -0.1245
    156  CA       147.8240  196.6340  266.4000 C.3   199  LEU199      0.1561
    157  C        148.6590  197.4520  265.4100 C.2   199  LEU199      0.2260
    158  O        149.8700  197.5000  265.5390 O.2   199  LEU199     -0.2867
    159  CB       147.9240  195.1370  266.0510 C.3   199  LEU199      0.0270
    160  CG       147.5020  194.2010  267.1670 C.3   199  LEU199      0.0019
    161  CD1      147.1740  192.8390  266.5810 C.3   199  LEU199      0.0001
    162  CD2      148.6590  194.1210  268.1610 C.3   199  LEU199      0.0001
    163  N        153.9200  192.8050  260.3120 N.3   213  TYR213     -0.1241
    164  CA       153.3380  191.8050  261.1840 C.3   213  TYR213      0.1605
    165  C        154.3510  191.0740  262.0200 C.2   213  TYR213      0.2264
    166  O        153.9390  190.1660  262.7480 O.2   213  TYR213     -0.2867
    167  CB       152.5340  190.7510  260.4130 C.3   213  TYR213      0.0534
    168  CG       151.2810  191.1930  259.7450 C.ar  213  TYR213     -0.0201
    169  CD1      150.7110  192.3740  260.1000 C.ar  213  TYR213     -0.0009
    170  CD2      150.6780  190.4350  258.7630 C.ar  213  TYR213     -0.0009
    171  CE1      149.5630  192.8350  259.5060 C.ar  213  TYR213      0.0417
    172  CE2      149.5210  190.8790  258.1350 C.ar  213  TYR213      0.0417
    173  CZ       148.9720  192.1000  258.5140 C.ar  213  TYR213      0.1957
    174  OH       147.8270  192.6160  257.9390 O.3   213  TYR213     -0.2866
    175  N        153.9860  194.0220  264.8170 N.3   216  LEU216     -0.1231
    176  CA       152.6390  193.9560  265.4410 C.3   216  LEU216      0.1693
    177  C        152.5430  192.8210  266.4450 C.2   216  LEU216      0.2592
    178  O        151.8700  192.9570  267.4430 O.2   216  LEU216     -0.2718
    179  CB       151.5440  193.7130  264.4170 C.3   216  LEU216      0.0284
    180  CG       150.8440  194.8220  263.7200 C.3   216  LEU216      0.0019
    181  CD1      151.7640  195.5320  262.7870 C.3   216  LEU216      0.0001
    182  CD2      149.6710  194.2660  262.9480 C.3   216  LEU216      0.0001
    183  N        153.2080  191.7010  266.1710 N.am  217  ASN217     -0.1974
    184  CA       153.0460  190.5460  267.0090 C.3   217  ASN217      0.1688
    185  C        153.7940  190.7020  268.3100 C.2   217  ASN217      0.2292
    186  O        153.4670  190.0290  269.2830 O.2   217  ASN217     -0.2864
    187  CB       153.4830  189.2840  266.2860 C.3   217  ASN217      0.1181
    188  CG       152.6050  188.9450  265.1320 C.2   217  ASN217      0.2629
    189  OD1      151.3820  189.1560  265.1900 O.2   217  ASN217     -0.2716
    190  ND2      153.2000  188.4150  264.0560 N.am  217  ASN217     -0.0877
    191  N        151.3970  191.5340  270.6880 N.3   220  ILE220     -0.1245
    192  CA       150.6390  190.3590  271.0310 C.3   220  ILE220      0.1561
    193  C        151.5280  189.4800  271.9000 C.2   220  ILE220      0.2260
    194  O        151.0740  188.9580  272.9150 O.2   220  ILE220     -0.2867
    195  CB       150.2090  189.6110  269.7780 C.3   220  ILE220      0.0252
    196  CG1      149.2780  190.4430  268.9810 C.3   220  ILE220      0.0019
    197  CG2      149.5610  188.2700  270.0450 C.3   220  ILE220      0.0019
    198  CD1      148.9410  189.7980  267.6270 C.3   220  ILE220      0.0001
@<TRIPOS>BOND
     1    45    43   ar
     2    44    43   ar
     3    43    42    1
     4    46    47    1
     5   123   122    1
     6    61    60    2
     7    42    41    1
     8   134   133    1
     9   134   135    2
    10    47    48    1
    11    58    57    2
    12    55    56    1
    13    59    60    1
    14    59    56    1
    15   133   132    1
    16   133   136    1
    17    57    56    1
    18    60    62   am
    19   137   136    1
    20   122   119    1
    21    48    50   am
    22    48    49    2
    23   127   126    2
    24    50    51    1
    25   132   126   am
    26    41    38    1
    27   126   125    1
    28    52    51    1
    29    52    53    2
    30   130   129   ar
    31    38    39    1
    32    38    37    1
    33   125   124    1
    34   125   128    1
    35   124   120   am
    36    51    54    1
    37    39    40    2
    38    37    31   am
    39   118   119    1
    40   119   120    1
    41   138   139    1
    42   129   128    1
    43   129   131   ar
    44   120   121    2
    45    12    11    2
    46    13    11   am
    47    31    32    2
    48    31    30    1
    49    11    10    1
    50    33    30    1
    51    33    34    1
    52   139   142    1
    53   139   140    1
    54   142   143    1
    55   145   144   ar
    56    30    29    1
    57    36    34    1
    58    78    77    1
    59    78    79    1
    60    35    34    1
    61    77    75   am
    62   140   141    2
    63    10     9    1
    64   144   143    1
    65   144   146   ar
    66    75    74    1
    67    75    76    2
    68    79    80    2
    69    79    81   am
    70    74    73    1
    71   174   173    1
    72    72    71    2
    73     9     6    1
    74    81    82    1
    75   172   173   ar
    76   172   170   ar
    77    28    26   am
    78    85    82    1
    79    85    86    1
    80   173   171   ar
    81   170   168   ar
    82    82    83    1
    83    71    73   am
    84    71    70    1
    85    26    27    2
    86    26    25    1
    87   115   114    2
    88     6     5    1
    89     6     7    1
    90   171   169   ar
    91   168   169   ar
    92   168   167    1
    93     5     3   am
    94   116   117    1
    95   116   113    1
    96    70    69    1
    97   163   164    1
    98   109   106    1
    99   109   110    1
   100   114   113    1
   101    83    87   am
   102    83    84    2
   103   167   164    1
   104     7     8    2
   105     7    14   am
   106    25    24    1
   107   112   113    1
   108   112   107   am
   109    87    88    1
   110    14    15    1
   111     3     2    1
   112     3     4    2
   113   106   107    1
   114   106   105    1
   115     2     1    1
   116   164   165    1
   117   110   111    1
   118   107   108    2
   119   154   152   am
   120    24    21    1
   121    15    18    1
   122    15    16    1
   123   165   166    2
   124    88    89    1
   125    18    19    1
   126   151   152    1
   127   151   148    1
   128   111   105    1
   129   105   100   am
   130   152   153    2
   131    68    67    1
   132    89    90    2
   133   150   149    2
   134   181   180    1
   135    67    64    1
   136   182   180    1
   137    21    20    1
   138    21    22    1
   139   149   148    1
   140   101   100    2
   141    16    17    2
   142   100    99    1
   143   148   147    1
   144   180   179    1
   145    66    65    2
   146    65    64    1
   147   190   188   am
   148    94    93    2
   149    64    63    1
   150    22    23    2
   151    96    95    1
   152   179   176    1
   153    99    98    1
   154    99   102    1
   155   175   176    1
   156   103   102    1
   157    93    98   am
   158    93    92    1
   159   188   189    2
   160   188   187    1
   161    95    92    1
   162    95    97    1
   163   157   158    2
   164   157   156    1
   165   176   177    1
   166   102   104    1
   167    92    91    1
   168   159   156    1
   169   159   160    1
   170   183   177   am
   171   183   184    1
   172   187   184    1
   173   155   156    1
   174   177   178    2
   175   161   160    1
   176   184   185    1
   177   160   162    1
   178   198   196    1
   179   185   186    2
   180   196   195    1
   181   195   197    1
   182   195   192    1
   183   191   192    1
   184   192   193    1
   185   193   194    2
