@<TRIPOS>MOLECULE
tmp/5o0aB00.pdb
 114 106 0 0 0
SMALL
GASTEIGER

@<TRIPOS>ATOM
      1  N        -21.5780  -25.4930  -40.5810 N.3     9  SER9       -0.1217
      2  CA       -22.9360  -24.9710  -40.4290 C.3     9  SER9        0.1889
      3  C        -23.2680  -23.9560  -41.5330 C.2     9  SER9        0.2288
      4  O        -24.4330  -23.8550  -41.9440 O.2     9  SER9       -0.2866
      5  CB       -23.1260  -24.3430  -39.0390 C.3     9  SER9        0.2089
      6  OG       -22.1210  -23.3800  -38.7680 O.3     9  SER9       -0.2183
      7  N        -19.3470  -18.0160  -46.2450 N.3    14  THR14      -0.1218
      8  CA       -18.5220  -16.8350  -46.4700 C.3    14  THR14       0.1862
      9  C        -17.5990  -17.0350  -47.6770 C.2    14  THR14       0.2287
     10  O        -17.5100  -18.1340  -48.2140 O.2    14  THR14      -0.2866
     11  CB       -17.6580  -16.5160  -45.2440 C.3    14  THR14       0.1770
     12  OG1      -16.5840  -17.4660  -45.1850 O.3    14  THR14      -0.2211
     13  CG2      -18.4950  -16.6130  -43.9690 C.3    14  THR14       0.0375
     14  N        -14.5360  -17.1120  -47.4100 N.3    16  GLY16      -0.1210
     15  CA       -13.5340  -18.0230  -46.8810 C.3    16  GLY16       0.1956
     16  C        -13.8990  -19.4750  -47.1510 C.2    16  GLY16       0.2611
     17  O        -13.0780  -20.2720  -47.6110 O.2    16  GLY16      -0.2717
     18  N        -15.1470  -19.8220  -46.8570 N.am   17  HIS17      -0.1975
     19  CA       -15.6650  -21.1550  -47.1410 C.3    17  HIS17       0.1656
     20  C        -15.5700  -21.4580  -48.6360 C.2    17  HIS17       0.2291
     21  O        -15.1710  -22.5360  -49.0390 O.2    17  HIS17      -0.2864
     22  CB       -17.1270  -21.2560  -46.7100 C.3    17  HIS17       0.0771
     23  CG       -17.3370  -21.1500  -45.2330 C.ar   17  HIS17       0.0820
     24  ND1      -18.3410  -20.3770  -44.6800 N.ar   17  HIS17      -0.2267
     25  CD2      -16.7270  -21.7700  -44.1970 C.ar   17  HIS17       0.1154
     26  CE1      -18.3200  -20.5050  -43.3670 C.ar   17  HIS17       0.1986
     27  NE2      -17.3470  -21.3420  -43.0440 N.ar   17  HIS17      -0.2212
     28  N        -13.6960  -20.2740  -50.9180 N.3    19  ASP19      -0.1225
     29  CA       -12.3140  -20.4800  -51.3350 C.3    19  ASP19       0.1805
     30  C        -11.9080  -21.9120  -51.0380 C.2    19  ASP19       0.2597
     31  O        -11.2800  -22.5680  -51.8560 O.2    19  ASP19      -0.2718
     32  CB       -11.3930  -19.4760  -50.6320 C.3    19  ASP19       0.1424
     33  CG        -9.9480  -19.6110  -51.0470 C.2    19  ASP19       0.3668
     34  OD1       -9.6480  -19.5220  -52.2520 O.co2  19  ASP19      -0.2456
     35  OD2       -9.1040  -19.7740  -50.1560 O.co2  19  ASP19      -0.2456
     36  N        -12.2820  -22.4130  -49.8680 N.am   20  VAL20      -0.1980
     37  CA       -11.9910  -23.7940  -49.5390 C.3    20  VAL20       0.1595
     38  C        -12.7280  -24.7560  -50.4840 C.2    20  VAL20       0.2287
     39  O        -12.1500  -25.7220  -50.9550 O.2    20  VAL20      -0.2864
     40  CB       -12.3530  -24.0890  -48.0780 C.3    20  VAL20       0.0276
     41  CG1      -12.2310  -25.5720  -47.7720 C.3    20  VAL20       0.0022
     42  CG2      -11.4360  -23.2450  -47.1530 C.3    20  VAL20       0.0022
     43  N        -11.0300  -25.6660  -43.9790 N.3    86  GLY86      -0.1225
     44  CA       -10.0840  -24.5640  -43.9190 C.3    86  GLY86       0.1811
     45  C         -9.6370  -24.3180  -42.4860 C.2    86  GLY86       0.2280
     46  O        -10.3680  -24.5730  -41.5290 O.2    86  GLY86      -0.2866
     47  N         -7.7190  -21.1390  -40.1870 N.3    88  ARG88      -0.1245
     48  CA        -7.2490  -19.7570  -40.1940 C.3    88  ARG88       0.1563
     49  C         -6.0030  -19.5500  -39.3290 C.2    88  ARG88       0.2260
     50  O         -5.1080  -18.7920  -39.7000 O.2    88  ARG88      -0.2867
     51  CB        -8.3700  -18.8190  -39.7380 C.3    88  ARG88       0.0307
     52  CG        -9.5470  -18.7790  -40.7120 C.3    88  ARG88       0.0489
     53  CD       -10.7080  -17.9530  -40.1600 C.3    88  ARG88       0.2205
     54  NE       -11.6820  -18.7620  -39.4270 N.pl3  88  ARG88      -0.0865
     55  CZ       -12.3540  -18.3480  -38.3540 C.cat  88  ARG88       0.5346
     56  NH1      -13.2250  -19.1540  -37.7610 N.pl3  88  ARG88       0.1354
     57  NH2      -12.1530  -17.1310  -37.8640 N.pl3  88  ARG88       0.1354
     58  N         -7.0310  -22.6940  -34.3600 N.3    92  ASP92      -0.1239
     59  CA        -7.8880  -23.4580  -35.2700 C.3    92  ASP92       0.1674
     60  C         -7.3470  -24.8890  -35.3750 C.2    92  ASP92       0.2266
     61  O         -8.0760  -25.8680  -35.1700 O.2    92  ASP92      -0.2867
     62  CB        -7.9340  -22.8280  -36.6630 C.3    92  ASP92       0.1410
     63  CG        -9.0060  -21.7740  -36.8100 C.2    92  ASP92       0.3668
     64  OD1       -9.6090  -21.3520  -35.7960 O.co2  92  ASP92      -0.2456
     65  OD2       -9.2290  -21.3500  -37.9650 O.co2  92  ASP92      -0.2456
     66  N         -6.3440  -20.8030  -44.9830 N.3   116  THR116     -0.1203
     67  CA        -7.1910  -19.7190  -45.4570 C.3   116  THR116      0.1994
     68  C         -6.4880  -18.8430  -46.5120 C.2   116  THR116      0.2617
     69  O         -5.2690  -18.7140  -46.4960 O.2   116  THR116     -0.2717
     70  CB        -7.6180  -18.8290  -44.2600 C.3   116  THR116      0.1784
     71  OG1       -8.5120  -17.8190  -44.7220 O.3   116  THR116     -0.2211
     72  CG2       -6.3730  -18.1410  -43.6150 C.3   116  THR116      0.0376
     73  N         -7.2300  -18.2960  -47.4700 N.am  117  ALA117     -0.1979
     74  CA        -6.6590  -17.2280  -48.2880 C.3   117  ALA117      0.1597
     75  C         -6.3900  -16.0640  -47.3260 C.2   117  ALA117      0.2287
     76  O         -7.1990  -15.8150  -46.4360 O.2   117  ALA117     -0.2864
     77  CB        -7.6010  -16.8110  -49.4110 C.3   117  ALA117      0.0319
     78  N         -9.1340  -13.5350  -46.1700 N.3   120  TYR120     -0.1241
     79  CA       -10.2990  -13.9630  -45.3880 C.3   120  TYR120      0.1605
     80  C         -9.9360  -14.5480  -44.0350 C.2   120  TYR120      0.2264
     81  O        -10.7490  -15.2080  -43.3910 O.2   120  TYR120     -0.2867
     82  CB       -11.1080  -14.9910  -46.1800 C.3   120  TYR120      0.0534
     83  CG       -11.4350  -14.5240  -47.5690 C.ar  120  TYR120     -0.0201
     84  CD1      -12.0150  -13.2790  -47.7820 C.ar  120  TYR120     -0.0009
     85  CD2      -11.1470  -15.3120  -48.6730 C.ar  120  TYR120     -0.0009
     86  CE1      -12.3130  -12.8360  -49.0590 C.ar  120  TYR120      0.0417
     87  CE2      -11.4370  -14.8790  -49.9560 C.ar  120  TYR120      0.0417
     88  CZ       -12.0190  -13.6430  -50.1420 C.ar  120  TYR120      0.1957
     89  OH       -12.2970  -13.2140  -51.4240 O.3   120  TYR120     -0.2866
     90  N        -12.3910  -13.4680  -41.3560 N.3   123  VAL123     -0.1231
     91  CA       -13.8320  -13.6060  -41.5430 C.3   123  VAL123      0.1692
     92  C        -14.3570  -14.8840  -40.8820 C.2   123  VAL123      0.2593
     93  O        -13.7440  -15.9560  -40.9550 O.2   123  VAL123     -0.2718
     94  CB       -14.2350  -13.5640  -43.0440 C.3   123  VAL123      0.0266
     95  CG1      -13.7260  -14.7690  -43.7810 C.3   123  VAL123      0.0020
     96  CG2      -15.7560  -13.4870  -43.1810 C.3   123  VAL123      0.0020
     97  N        -15.4750  -14.7390  -40.1800 N.am  124  SER124     -0.1938
     98  CA       -16.2510  -15.8820  -39.7160 C.3   124  SER124      0.2055
     99  C        -17.7240  -15.5580  -39.9000 C.2   124  SER124      0.2644
    100  O        -18.0920  -14.3850  -40.0190 O.2   124  SER124     -0.2714
    101  CB       -15.9770  -16.2030  -38.2610 C.3   124  SER124      0.2130
    102  OG       -16.4270  -15.1440  -37.4440 O.3   124  SER124     -0.2179
    103  N        -18.5470  -16.5970  -39.9390 N.am  125  SER125     -0.1935
    104  CA       -19.9880  -16.4180  -40.0810 C.3   125  SER125      0.2055
    105  C        -20.5150  -15.6120  -38.8960 C.2   125  SER125      0.2643
    106  O        -21.2830  -14.6680  -39.0700 O.2   125  SER125     -0.2714
    107  CB       -20.6880  -17.7660  -40.1660 C.3   125  SER125      0.2130
    108  OG       -20.3390  -18.4460  -41.3670 O.3   125  SER125     -0.2179
    109  N        -20.0590  -15.9750  -37.7020 N.am  126  SER126     -0.1949
    110  CA       -20.5130  -15.3360  -36.4580 C.3   126  SER126      0.1924
    111  C        -20.1910  -13.8570  -36.4360 C.2   126  SER126      0.2314
    112  O        -21.0530  -13.0300  -36.1390 O.2   126  SER126     -0.2863
    113  CB       -19.8760  -16.0050  -35.2360 C.3   126  SER126      0.2116
    114  OG       -20.3350  -17.3350  -35.1000 O.3   126  SER126     -0.2180
@<TRIPOS>BOND
     1    34    33   ar
     2    31    30    2
     3    89    88    1
     4    29    30    1
     5    29    28    1
     6    29    32    1
     7    33    32    1
     8    33    35   ar
     9    30    36   am
    10    39    38    2
    11    38    37    1
    12    88    87   ar
    13    88    86   ar
    14    87    85   ar
    15    36    37    1
    16    37    40    1
    17    77    74    1
    18    86    84   ar
    19    21    20    2
    20    85    83   ar
    21    20    19    1
    22    74    73    1
    23    74    75    1
    24    10     9    2
    25    40    41    1
    26    40    42    1
    27    84    83   ar
    28     9     8    1
    29    17    16    2
    30    83    82    1
    31    73    68   am
    32    14    15    1
    33    75    76    2
    34    16    15    1
    35    16    18   am
    36    19    18    1
    37    19    22    1
    38    22    23    1
    39    68    69    2
    40    68    67    1
    41     8     7    1
    42     8    11    1
    43    82    79    1
    44    78    79    1
    45    67    66    1
    46    67    70    1
    47    79    80    1
    48    11    12    1
    49    11    13    1
    50    23    24   ar
    51    23    25   ar
    52    71    70    1
    53    24    26   ar
    54    70    72    1
    55    25    27   ar
    56    80    81    2
    57    43    44    1
    58    44    45    1
    59    95    94    1
    60    26    27   ar
    61    96    94    1
    62    94    91    1
    63    45    46    2
    64     4     3    2
    65    91    90    1
    66    91    92    1
    67     3     2    1
    68   108   107    1
    69    93    92    2
    70    92    97   am
    71    52    53    1
    72    52    51    1
    73     1     2    1
    74     2     5    1
    75    48    47    1
    76    48    51    1
    77    48    49    1
    78    97    98    1
    79   107   104    1
    80    53    54    1
    81   104   103    1
    82   104   105    1
    83   100    99    2
    84   103    99   am
    85    99    98    1
    86    98   101    1
    87    50    49    2
    88    54    55    2
    89   106   105    2
    90     5     6    1
    91   105   109   am
    92    55    57    1
    93    55    56    1
    94   101   102    1
    95    65    63   ar
    96   109   110    1
    97    63    62    1
    98    63    64   ar
    99    62    59    1
   100   110   111    1
   101   110   113    1
   102   111   112    2
   103    60    59    1
   104    60    61    2
   105    59    58    1
   106   113   114    1
