@<TRIPOS>MOLECULE
tmp/5o0bC00.pdb
 95 91 0 0 0
SMALL
GASTEIGER

@<TRIPOS>ATOM
      1  N         10.0320   -2.5950  -25.1330 N.3     6  CYS6       -0.1221
      2  CA         9.7850   -1.3220  -24.4730 C.3     6  CYS6        0.1794
      3  C         11.1010   -0.6530  -24.0780 C.2     6  CYS6        0.2443
      4  O         11.7670   -1.0650  -23.1170 O.2     6  CYS6       -0.2733
      5  CB         8.9010   -1.5170  -23.2490 C.3     6  CYS6        0.0970
      6  SG         8.4420    0.0360  -22.5100 S.3     6  CYS6       -0.0800
      7  N         11.5050    0.3880  -24.8300 N.am    7  PRO7       -0.2718
      8  CA        12.8110    1.0250  -24.6370 C.3     7  PRO7        0.1535
      9  C         12.7710    2.2520  -23.7380 C.2     7  PRO7        0.2599
     10  O         11.7260    2.8950  -23.6180 O.2     7  PRO7       -0.2715
     11  CB        13.1930    1.4310  -26.0560 C.3     7  PRO7        0.0310
     12  CG        11.8820    1.8370  -26.6380 C.3     7  PRO7        0.0237
     13  CD        10.8360    0.9110  -26.0380 C.3     7  PRO7        0.0939
     14  N         13.9000    2.5670  -23.1120 N.am    8  GLY8       -0.1941
     15  CA        14.0110    3.7910  -22.3320 C.3     8  GLY8        0.2014
     16  C         15.2800    3.8000  -21.5190 C.2     8  GLY8        0.2640
     17  O         16.0050    2.8140  -21.5060 O.2     8  GLY8       -0.2714
     18  N         15.5590    4.9060  -20.8380 N.am    9  SER9       -0.1935
     19  CA        16.7050    4.9340  -19.9360 C.3     9  SER9        0.2055
     20  C         16.3040    4.4110  -18.5520 C.2     9  SER9        0.2643
     21  O         17.1210    3.7880  -17.8680 O.2     9  SER9       -0.2714
     22  CB        17.2940    6.3450  -19.8520 C.3     9  SER9        0.2130
     23  OG        16.3080    7.2790  -19.4480 O.3     9  SER9       -0.2179
     24  N         15.0440    4.6290  -18.1580 N.am   10  PHE10      -0.1959
     25  CA        14.5280    4.1480  -16.8700 C.3    10  PHE10       0.1771
     26  C         15.4830    4.4460  -15.7100 C.2    10  PHE10       0.2619
     27  O         15.9690    3.5350  -15.0310 O.2    10  PHE10      -0.2715
     28  CB        14.2330    2.6460  -16.9380 C.3    10  PHE10       0.0574
     29  CG        13.3620    2.2560  -18.1050 C.ar   10  PHE10      -0.0200
     30  CD1       12.0430    2.6680  -18.1580 C.ar   10  PHE10      -0.0042
     31  CD2       13.8680    1.4860  -19.1490 C.ar   10  PHE10      -0.0042
     32  CE1       11.2280    2.3300  -19.2260 C.ar   10  PHE10      -0.0003
     33  CE2       13.0590    1.1370  -20.2290 C.ar   10  PHE10      -0.0003
     34  CZ        11.7380    1.5590  -20.2680 C.ar   10  PHE10      -0.0000
     35  N         15.7380    5.7300  -15.4890 N.am   11  ASP11      -0.1971
     36  CA        16.7100    6.1570  -14.4940 C.3    11  ASP11       0.1709
     37  C         16.0900    7.0410  -13.3980 C.2    11  ASP11       0.2293
     38  O         16.3300    8.2440  -13.3690 O.2    11  ASP11      -0.2864
     39  CB        17.8460    6.9030  -15.1840 C.3    11  ASP11       0.1436
     40  CG        18.9640    7.2940  -14.2150 C.2    11  ASP11       0.3671
     41  OD1       19.2960    6.4710  -13.3410 O.co2  11  ASP11      -0.2456
     42  OD2       19.4950    8.4180  -14.3280 O.co2  11  ASP11      -0.2456
     43  N          6.1160    4.0030  -15.9790 N.3    17  HIS17      -0.1241
     44  CA         6.7410    3.0080  -16.8460 C.3    17  HIS17       0.1621
     45  C          6.1460    1.6370  -16.6120 C.2    17  HIS17       0.2264
     46  O          5.8490    0.8970  -17.5650 O.2    17  HIS17      -0.2867
     47  CB         8.2380    2.9290  -16.6130 C.3    17  HIS17       0.0745
     48  CG         8.9700    4.1890  -16.9310 C.ar   17  HIS17       0.0817
     49  ND1        9.8560    4.7710  -16.0490 N.ar   17  HIS17      -0.2268
     50  CD2        8.9540    4.9780  -18.0330 C.ar   17  HIS17       0.1154
     51  CE1       10.3590    5.8650  -16.5970 C.ar   17  HIS17       0.1986
     52  NE2        9.8220    6.0170  -17.7960 N.ar   17  HIS17      -0.2212
     53  N          2.9650    1.0050  -18.3270 N.3    20  VAL20      -0.1245
     54  CA         3.1700    0.6520  -19.7340 C.3    20  VAL20       0.1561
     55  C          3.6280   -0.8090  -19.8680 C.2    20  VAL20       0.2260
     56  O          3.0830   -1.5450  -20.6840 O.2    20  VAL20      -0.2867
     57  CB         4.1810    1.5830  -20.4100 C.3    20  VAL20       0.0252
     58  CG1        4.5050    1.0920  -21.8430 C.3    20  VAL20       0.0019
     59  CG2        3.6090    2.9890  -20.4410 C.3    20  VAL20       0.0019
     60  N          5.6440    2.1080  -26.5130 N.3    84  LYS84      -0.1231
     61  CA         6.1080    3.2800  -25.7690 C.3    84  LYS84       0.1693
     62  C          4.9060    3.9810  -25.1630 C.2    84  LYS84       0.2592
     63  O          3.8600    4.0170  -25.7840 O.2    84  LYS84      -0.2718
     64  CB         6.8360    4.2480  -26.6980 C.3    84  LYS84       0.0285
     65  CG         8.0890    4.8670  -26.1490 C.3    84  LYS84       0.0035
     66  CD         9.0840    5.0240  -27.2840 C.3    84  LYS84       0.0206
     67  CE        10.3610    5.7030  -26.8300 C.3    84  LYS84       0.1093
     68  NZ        11.2700    5.8950  -27.9950 N.3    84  LYS84      -0.1314
     69  N          5.0510    4.5710  -23.9790 N.am   85  GLY85      -0.1957
     70  CA         3.9510    5.3470  -23.4290 C.3    85  GLY85       0.1869
     71  C          3.9980    6.8030  -23.8760 C.2    85  GLY85       0.2309
     72  O          5.0670    7.3300  -24.1580 O.2    85  GLY85      -0.2863
     73  N          4.9160   14.9890  -26.6360 N.3    91  ASP91      -0.1239
     74  CA         5.4700   13.6360  -26.6220 C.3    91  ASP91       0.1674
     75  C          5.2340   12.9570  -27.9690 C.2    91  ASP91       0.2266
     76  O          6.1460   12.3780  -28.5670 O.2    91  ASP91      -0.2867
     77  CB         4.8210   12.7900  -25.5200 C.3    91  ASP91       0.1410
     78  CG         5.4420   13.0080  -24.1490 C.2    91  ASP91       0.3668
     79  OD1        6.1940   13.9930  -23.9680 O.co2  91  ASP91      -0.2456
     80  OD2        5.1580   12.1820  -23.2480 O.co2  91  ASP91      -0.2456
     81  N          8.0820   11.5850  -30.6980 N.3    95  GLU95      -0.1245
     82  CA         8.0910   10.1470  -30.9370 C.3    95  GLU95       0.1567
     83  C          7.6320    9.7730  -32.3390 C.2    95  GLU95       0.2260
     84  O          8.0670    8.7510  -32.8650 O.2    95  GLU95      -0.2867
     85  CB         7.2210    9.4290  -29.9100 C.3    95  GLU95       0.0388
     86  CG         7.7290    9.5760  -28.4810 C.3    95  GLU95       0.1160
     87  CD         9.0380    8.8410  -28.2270 C.2    95  GLU95       0.3649
     88  OE1        9.3480    7.8920  -28.9800 O.co2  95  GLU95      -0.2457
     89  OE2        9.7630    9.2170  -27.2790 O.co2  95  GLU95      -0.2457
     90  N         11.0090   10.3080  -14.7150 N.3   124  SER124     -0.1217
     91  CA        12.1850   10.0080  -13.9090 C.3   124  SER124      0.1889
     92  C         12.8790   11.2910  -13.4720 C.2   124  SER124      0.2288
     93  O         13.2540   11.4420  -12.3140 O.2   124  SER124     -0.2866
     94  CB        13.1780    9.1370  -14.6860 C.3   124  SER124      0.2089
     95  OG        12.6370    7.8480  -14.9520 O.3   124  SER124     -0.2183
@<TRIPOS>BOND
     1    84    83    2
     2    83    82    1
     3    82    81    1
     4    82    85    1
     5    85    86    1
     6    88    87   ar
     7    76    75    2
     8    86    87    1
     9    87    89   ar
    10    68    67    1
    11    75    74    1
    12    66    67    1
    13    66    65    1
    14    64    65    1
    15    64    61    1
    16    12    11    1
    17    12    13    1
    18    73    74    1
    19    74    77    1
    20    60    61    1
    21    11     8    1
    22    13     7    1
    23    63    62    2
    24    61    62    1
    25    77    78    1
    26    62    69   am
    27     1     2    1
    28     7     8    1
    29     7     3   am
    30     8     9    1
    31     2     3    1
    32     2     5    1
    33    72    71    2
    34    78    79   ar
    35    78    80   ar
    36     3     4    2
    37    69    70    1
    38    71    70    1
    39     9    10    2
    40     9    14   am
    41     5     6    1
    42    14    15    1
    43    15    16    1
    44    58    57    1
    45    16    17    2
    46    16    18   am
    47    18    19    1
    48    56    55    2
    49    59    57    1
    50    57    54    1
    51    34    33   ar
    52    34    32   ar
    53    33    31   ar
    54    19    22    1
    55    19    20    1
    56    55    54    1
    57    22    23    1
    58    54    53    1
    59    32    30   ar
    60    31    29   ar
    61    20    24   am
    62    20    21    2
    63    30    29   ar
    64    24    25    1
    65    29    28    1
    66    50    52   ar
    67    50    48   ar
    68    52    51   ar
    69    46    45    2
    70    28    25    1
    71    48    47    1
    72    48    49   ar
    73    25    26    1
    74    44    47    1
    75    44    45    1
    76    44    43    1
    77    51    49   ar
    78    26    35   am
    79    26    27    2
    80    35    36    1
    81    39    36    1
    82    39    40    1
    83    95    94    1
    84    90    91    1
    85    94    91    1
    86    36    37    1
    87    42    40   ar
    88    40    41   ar
    89    91    92    1
    90    92    93    2
    91    37    38    2
