@<TRIPOS>MOLECULE
tmp/5o0bC01.pdb
 91 85 0 0 0
SMALL
GASTEIGER

@<TRIPOS>ATOM
      1  N          9.6500    4.3210  -13.1050 N.3    14  THR14      -0.1218
      2  CA         8.5610    4.8920  -12.3200 C.3    14  THR14       0.1862
      3  C          7.3200    4.0270  -12.4530 C.2    14  THR14       0.2287
      4  O          7.3050    3.0670  -13.2310 O.2    14  THR14      -0.2866
      5  CB         8.1940    6.3100  -12.7860 C.3    14  THR14       0.1770
      6  OG1        7.4930    6.2360  -14.0390 O.3    14  THR14      -0.2211
      7  CG2        9.4350    7.1520  -12.9580 C.3    14  THR14       0.0375
      8  N          4.7010    5.0420  -13.8030 N.3    16  GLY16      -0.1210
      9  CA         4.2570    5.3260  -15.1560 C.3    16  GLY16       0.1956
     10  C          4.8280    4.3100  -16.1260 C.2    16  GLY16       0.2611
     11  O          4.1190    3.8060  -16.9960 O.2    16  GLY16      -0.2717
     12  N          6.1160    4.0030  -15.9790 N.am   17  HIS17      -0.1975
     13  CA         6.7410    3.0080  -16.8460 C.3    17  HIS17       0.1656
     14  C          6.1460    1.6370  -16.6120 C.2    17  HIS17       0.2291
     15  O          5.8490    0.8970  -17.5650 O.2    17  HIS17      -0.2864
     16  CB         8.2380    2.9290  -16.6130 C.3    17  HIS17       0.0771
     17  CG         8.9700    4.1890  -16.9310 C.ar   17  HIS17       0.0820
     18  ND1        9.8560    4.7710  -16.0490 N.ar   17  HIS17      -0.2267
     19  CD2        8.9540    4.9780  -18.0330 C.ar   17  HIS17       0.1154
     20  CE1       10.3590    5.8650  -16.5970 C.ar   17  HIS17       0.1986
     21  NE2        9.8220    6.0170  -17.7960 N.ar   17  HIS17      -0.2212
     22  N          2.9650    1.0050  -18.3270 N.3    20  VAL20      -0.1245
     23  CA         3.1700    0.6520  -19.7340 C.3    20  VAL20       0.1561
     24  C          3.6280   -0.8090  -19.8680 C.2    20  VAL20       0.2260
     25  O          3.0830   -1.5450  -20.6840 O.2    20  VAL20      -0.2867
     26  CB         4.1810    1.5830  -20.4100 C.3    20  VAL20       0.0252
     27  CG1        4.5050    1.0920  -21.8430 C.3    20  VAL20       0.0019
     28  CG2        3.6090    2.9890  -20.4410 C.3    20  VAL20       0.0019
     29  N          5.0510    4.5710  -23.9790 N.3    85  GLY85      -0.1210
     30  CA         3.9510    5.3470  -23.4290 C.3    85  GLY85       0.1956
     31  C          3.9980    6.8030  -23.8760 C.2    85  GLY85       0.2612
     32  O          5.0670    7.3300  -24.1580 O.2    85  GLY85      -0.2717
     33  N          2.8380    7.4560  -23.9350 N.am   86  LEU86      -0.1965
     34  CA         2.7620    8.8610  -24.3360 C.3    86  LEU86       0.1728
     35  C          1.9240    9.6620  -23.3530 C.2    86  LEU86       0.2616
     36  O          0.8260    9.2430  -22.9930 O.2    86  LEU86      -0.2715
     37  CB         2.1560    9.0090  -25.7270 C.3    86  LEU86       0.0311
     38  CG         2.9460    8.6030  -26.9640 C.3    86  LEU86       0.0022
     39  CD1        2.1360    8.9920  -28.2070 C.3    86  LEU86       0.0001
     40  CD2        4.3050    9.2640  -26.9780 C.3    86  LEU86       0.0001
     41  N          2.4330   10.8220  -22.9420 N.am   87  ARG87      -0.1977
     42  CA         1.7090   11.7090  -22.0360 C.3    87  ARG87       0.1597
     43  C          0.9890   12.8360  -22.7730 C.2    87  ARG87       0.2287
     44  O         -0.1600   13.1620  -22.4730 O.2    87  ARG87      -0.2864
     45  CB         2.6650   12.3060  -21.0050 C.3    87  ARG87       0.0334
     46  CG         2.9240   11.3850  -19.8140 C.3    87  ARG87       0.0492
     47  CD         4.4000   11.2510  -19.4780 C.3    87  ARG87       0.2205
     48  NE         5.0760   12.5420  -19.4520 N.pl3  87  ARG87      -0.0865
     49  CZ         6.2860   12.7400  -18.9390 C.cat  87  ARG87       0.5346
     50  NH1        6.8280   13.9500  -18.9680 N.pl3  87  ARG87       0.1354
     51  NH2        6.9540   11.7280  -18.3970 N.pl3  87  ARG87       0.1354
     52  N          4.9160   14.9890  -26.6360 N.3    91  ASP91      -0.1239
     53  CA         5.4700   13.6360  -26.6220 C.3    91  ASP91       0.1674
     54  C          5.2340   12.9570  -27.9690 C.2    91  ASP91       0.2266
     55  O          6.1460   12.3780  -28.5670 O.2    91  ASP91      -0.2867
     56  CB         4.8210   12.7900  -25.5200 C.3    91  ASP91       0.1410
     57  CG         5.4420   13.0080  -24.1490 C.2    91  ASP91       0.3668
     58  OD1        6.1940   13.9930  -23.9680 O.co2  91  ASP91      -0.2456
     59  OD2        5.1580   12.1820  -23.2480 O.co2  91  ASP91      -0.2456
     60  N         -0.7550    7.3560  -21.3250 N.3   115  THR115     -0.1218
     61  CA        -0.4760    7.3220  -19.8940 C.3   115  THR115      0.1862
     62  C         -1.7460    7.1130  -19.0770 C.2   115  THR115      0.2287
     63  O         -2.8300    7.5450  -19.4750 O.2   115  THR115     -0.2866
     64  CB         0.1950    8.6320  -19.4140 C.3   115  THR115      0.1770
     65  OG1        0.2860    8.6330  -17.9810 O.3   115  THR115     -0.2211
     66  CG2       -0.6340    9.8350  -19.8510 C.3   115  THR115      0.0375
     67  N          4.3000   12.3560  -14.0000 N.3   122  VAL122     -0.1231
     68  CA         5.5120   11.7620  -13.4380 C.3   122  VAL122      0.1692
     69  C          6.5190   11.4560  -14.5420 C.2   122  VAL122      0.2593
     70  O          6.1630   11.0300  -15.6420 O.2   122  VAL122     -0.2718
     71  CB         5.2210   10.4780  -12.6160 C.3   122  VAL122      0.0266
     72  CG1        4.6560    9.3860  -13.4770 C.3   122  VAL122      0.0020
     73  CG2        6.4910    9.9850  -11.9270 C.3   122  VAL122      0.0020
     74  N          7.7830   11.7380  -14.2550 N.am  123  SER123     -0.1938
     75  CA         8.8790   11.4170  -15.1550 C.3   123  SER123      0.2055
     76  C         10.0610   11.1110  -14.2440 C.2   123  SER123      0.2644
     77  O         10.0810   11.5770  -13.1120 O.2   123  SER123     -0.2714
     78  CB         9.2040   12.5660  -16.1090 C.3   123  SER123      0.2130
     79  OG         9.6820   13.7030  -15.4000 O.3   123  SER123     -0.2179
     80  N         11.0090   10.3080  -14.7150 N.am  124  SER124     -0.1935
     81  CA        12.1850   10.0080  -13.9090 C.3   124  SER124      0.2055
     82  C         12.8790   11.2910  -13.4720 C.2   124  SER124      0.2643
     83  O         13.2540   11.4420  -12.3140 O.2   124  SER124     -0.2714
     84  CB        13.1780    9.1370  -14.6860 C.3   124  SER124      0.2130
     85  OG        12.6370    7.8480  -14.9520 O.3   124  SER124     -0.2179
     86  N         13.0430   12.2170  -14.4070 N.am  125  SER125     -0.1949
     87  CA        13.7940   13.4360  -14.1410 C.3   125  SER125      0.1924
     88  C         13.1270   14.3180  -13.0910 C.2   125  SER125      0.2314
     89  O         13.7950   14.8340  -12.1920 O.2   125  SER125     -0.2863
     90  CB        13.9960   14.2210  -15.4340 C.3   125  SER125      0.2116
     91  OG        14.7640   13.4620  -16.3500 O.3   125  SER125     -0.2180
@<TRIPOS>BOND
     1    55    54    2
     2    39    38    1
     3    54    53    1
     4    40    38    1
     5    38    37    1
     6    52    53    1
     7    53    56    1
     8    37    34    1
     9    56    57    1
    10    34    33    1
    11    34    35    1
    12    32    31    2
    13    57    58   ar
    14    57    59   ar
    15    29    30    1
    16    33    31   am
    17    31    30    1
    18    35    36    2
    19    35    41   am
    20    41    42    1
    21    43    44    2
    22    43    42    1
    23    42    45    1
    24    27    26    1
    25    60    61    1
    26    45    46    1
    27    25    24    2
    28    28    26    1
    29    26    23    1
    30    61    64    1
    31    61    62    1
    32    24    23    1
    33    66    64    1
    34    46    47    1
    35    23    22    1
    36    47    48    1
    37    63    62    2
    38    48    49    2
    39    64    65    1
    40    50    49    1
    41    49    51    1
    42    19    21   ar
    43    19    17   ar
    44    21    20   ar
    45    15    14    2
    46    11    10    2
    47    17    16    1
    48    17    18   ar
    49    13    16    1
    50    13    14    1
    51    13    12    1
    52    20    18   ar
    53    91    90    1
    54    10    12   am
    55    10     9    1
    56    78    79    1
    57    78    75    1
    58    70    69    2
    59    90    87    1
    60     9     8    1
    61    75    74    1
    62    75    76    1
    63    85    84    1
    64    80    76   am
    65    80    81    1
    66    84    81    1
    67    69    74   am
    68    69    68    1
    69    86    87    1
    70    86    82   am
    71    76    77    2
    72    87    88    1
    73     6     5    1
    74    67    68    1
    75    81    82    1
    76    72    71    1
    77    82    83    2
    78    68    71    1
    79     4     3    2
    80     1     2    1
    81    88    89    2
    82     7     5    1
    83     5     2    1
    84    71    73    1
    85     3     2    1
