@<TRIPOS>MOLECULE
tmp/5o0cB00.pdb
 134 130 0 0 0
SMALL
GASTEIGER

@<TRIPOS>ATOM
      1  N        -16.3970  -31.6930  -46.9530 N.3     6  CYS6       -0.1221
      2  CA       -16.1500  -30.3970  -46.3020 C.3     6  CYS6        0.1794
      3  C        -17.3130  -30.0580  -45.3690 C.2     6  CYS6        0.2443
      4  O        -18.3590  -29.5920  -45.8280 O.2     6  CYS6       -0.2733
      5  CB       -15.9900  -29.2700  -47.3330 C.3     6  CYS6        0.0970
      6  SG       -14.5290  -29.3610  -48.3920 S.3     6  CYS6       -0.0800
      7  N        -17.1340  -30.2680  -44.0540 N.am    7  PRO7       -0.2718
      8  CA       -18.2270  -30.1360  -43.0850 C.3     7  PRO7        0.1535
      9  C        -18.2640  -28.7770  -42.3930 C.2     7  PRO7        0.2599
     10  O        -17.2260  -28.1530  -42.1660 O.2     7  PRO7       -0.2715
     11  CB       -17.9060  -31.2410  -42.0800 C.3     7  PRO7        0.0310
     12  CG       -16.4200  -31.2000  -42.0110 C.3     7  PRO7        0.0237
     13  CD       -15.9430  -30.8810  -43.4340 C.3     7  PRO7        0.0939
     14  N        -19.4590  -28.3170  -42.0530 N.am    8  GLY8       -0.1941
     15  CA       -19.5770  -27.1090  -41.2620 C.3     8  GLY8        0.2014
     16  C        -21.0280  -26.7560  -41.0690 C.2     8  GLY8        0.2640
     17  O        -21.9040  -27.4650  -41.5610 O.2     8  GLY8       -0.2714
     18  N        -21.2930  -25.6630  -40.3630 N.am    9  SER9       -0.1935
     19  CA       -22.6710  -25.2100  -40.2310 C.3     9  SER9        0.2055
     20  C        -23.0150  -24.2150  -41.3420 C.2     9  SER9        0.2643
     21  O        -24.1690  -24.1490  -41.7610 O.2     9  SER9       -0.2714
     22  CB       -22.9220  -24.6210  -38.8340 C.3     9  SER9        0.2130
     23  OG       -21.9320  -23.6780  -38.4800 O.3     9  SER9       -0.2179
     24  N        -22.0170  -23.4710  -41.8300 N.am   10  PHE10      -0.1973
     25  CA       -22.1900  -22.5450  -42.9610 C.3    10  PHE10       0.1639
     26  C        -23.4410  -21.6630  -42.8350 C.2    10  PHE10       0.2290
     27  O        -24.3340  -21.6810  -43.6950 O.2    10  PHE10      -0.2864
     28  CB       -22.2100  -23.3440  -44.2820 C.3    10  PHE10       0.0560
     29  CG       -21.0440  -24.2950  -44.4300 C.ar   10  PHE10      -0.0200
     30  CD1      -19.7440  -23.8110  -44.4740 C.ar   10  PHE10      -0.0042
     31  CD2      -21.2450  -25.6660  -44.5100 C.ar   10  PHE10      -0.0042
     32  CE1      -18.6620  -24.6840  -44.5980 C.ar   10  PHE10      -0.0003
     33  CE2      -20.1690  -26.5470  -44.6290 C.ar   10  PHE10      -0.0003
     34  CZ       -18.8750  -26.0480  -44.6710 C.ar   10  PHE10      -0.0000
     35  N        -14.4950  -17.2820  -47.2270 N.3    16  GLY16      -0.1210
     36  CA       -13.4810  -18.1430  -46.6350 C.3    16  GLY16       0.1956
     37  C        -13.8070  -19.6040  -46.8890 C.2    16  GLY16       0.2611
     38  O        -12.9400  -20.3950  -47.2850 O.2    16  GLY16      -0.2717
     39  N        -15.0680  -19.9690  -46.6600 N.am   17  HIS17      -0.1975
     40  CA       -15.5420  -21.3060  -46.9760 C.3    17  HIS17       0.1656
     41  C        -15.3930  -21.6010  -48.4580 C.2    17  HIS17       0.2291
     42  O        -14.9020  -22.6600  -48.8210 O.2    17  HIS17      -0.2864
     43  CB       -17.0110  -21.4740  -46.6010 C.3    17  HIS17       0.0771
     44  CG       -17.2850  -21.2480  -45.1540 C.ar   17  HIS17       0.0820
     45  ND1      -18.3550  -20.4990  -44.7130 N.ar   17  HIS17      -0.2267
     46  CD2      -16.6430  -21.6850  -44.0440 C.ar   17  HIS17       0.1154
     47  CE1      -18.3530  -20.4740  -43.3940 C.ar   17  HIS17       0.1986
     48  NE2      -17.3270  -21.1890  -42.9600 N.ar   17  HIS17      -0.2212
     49  N        -11.9300  -22.5170  -49.7220 N.3    20  VAL20      -0.1231
     50  CA       -11.5650  -23.8910  -49.4000 C.3    20  VAL20       0.1692
     51  C        -12.3460  -24.9100  -50.2460 C.2    20  VAL20       0.2592
     52  O        -11.7700  -25.8850  -50.7210 O.2    20  VAL20      -0.2718
     53  CB       -11.7560  -24.1680  -47.8970 C.3    20  VAL20       0.0266
     54  CG1      -11.5760  -25.6500  -47.5840 C.3    20  VAL20       0.0020
     55  CG2      -10.7510  -23.3320  -47.1140 C.3    20  VAL20       0.0020
     56  N        -13.6430  -24.6700  -50.4570 N.am   21  PHE21      -0.1976
     57  CA       -14.4270  -25.5310  -51.3500 C.3    21  PHE21       0.1639
     58  C        -13.7750  -25.6700  -52.7240 C.2    21  PHE21       0.2290
     59  O        -13.6780  -26.7670  -53.2800 O.2    21  PHE21      -0.2864
     60  CB       -15.8450  -24.9860  -51.5730 C.3    21  PHE21       0.0560
     61  CG       -16.7140  -24.9570  -50.3420 C.ar   21  PHE21      -0.0200
     62  CD1      -16.3920  -25.6690  -49.1920 C.ar   21  PHE21      -0.0042
     63  CD2      -17.8700  -24.2010  -50.3590 C.ar   21  PHE21      -0.0042
     64  CE1      -17.2220  -25.6030  -48.0730 C.ar   21  PHE21      -0.0003
     65  CE2      -18.7130  -24.1430  -49.2710 C.ar   21  PHE21      -0.0003
     66  CZ       -18.3930  -24.8350  -48.1160 C.ar   21  PHE21      -0.0000
     67  N        -11.9230  -32.4690  -45.5610 N.3    84  VAL84      -0.1231
     68  CA       -11.1060  -31.2700  -45.7810 C.3    84  VAL84       0.1692
     69  C        -11.7200  -30.1380  -44.9750 C.2    84  VAL84       0.2592
     70  O        -12.9000  -29.8170  -45.1410 O.2    84  VAL84      -0.2718
     71  CB       -10.9970  -30.8810  -47.2850 C.3    84  VAL84       0.0266
     72  CG1      -10.4400  -29.4540  -47.4470 C.3    84  VAL84       0.0020
     73  CG2      -10.1080  -31.8730  -48.0150 C.3    84  VAL84       0.0020
     74  N        -10.9210  -29.5690  -44.0700 N.am   85  LYS85      -0.1966
     75  CA       -11.3480  -28.4890  -43.1700 C.3    85  LYS85       0.1728
     76  C        -10.5000  -27.2410  -43.4000 C.2    85  LYS85       0.2617
     77  O         -9.2820  -27.3390  -43.5030 O.2    85  LYS85      -0.2715
     78  CB       -11.2120  -28.8990  -41.6910 C.3    85  LYS85       0.0311
     79  CG       -12.1330  -30.0140  -41.2000 C.3    85  LYS85       0.0038
     80  CD       -13.5680  -29.5370  -41.0330 C.3    85  LYS85       0.0206
     81  CE       -13.7880  -28.7010  -39.7670 C.3    85  LYS85       0.1093
     82  NZ       -13.8950  -29.5030  -38.4940 N.3    85  LYS85      -0.1314
     83  N        -11.1240  -26.0700  -43.4440 N.am   86  GLY86      -0.1940
     84  CA       -10.3740  -24.8400  -43.6050 C.3    86  GLY86       0.2014
     85  C         -9.8600  -24.2860  -42.2850 C.2    86  GLY86       0.2639
     86  O        -10.4160  -24.5630  -41.2100 O.2    86  GLY86      -0.2714
     87  N         -8.7960  -23.4940  -42.3840 N.am   87  LEU87      -0.1963
     88  CA        -8.2320  -22.7790  -41.2390 C.3    87  LEU87       0.1728
     89  C         -8.3210  -21.2720  -41.4670 C.2    87  LEU87       0.2616
     90  O         -7.9870  -20.7690  -42.5410 O.2    87  LEU87      -0.2715
     91  CB        -6.7770  -23.1830  -41.0160 C.3    87  LEU87       0.0311
     92  CG        -6.4770  -24.6590  -40.7550 C.3    87  LEU87       0.0022
     93  CD1       -4.9640  -24.8500  -40.6430 C.3    87  LEU87       0.0001
     94  CD2       -7.1940  -25.1550  -39.5110 C.3    87  LEU87       0.0001
     95  N         -8.7450  -20.5380  -40.4430 N.am   88  ARG88      -0.1977
     96  CA        -8.8160  -19.0850  -40.5330 C.3    88  ARG88       0.1597
     97  C         -8.3150  -18.5050  -39.2240 C.2    88  ARG88       0.2287
     98  O         -8.0510  -19.2530  -38.2770 O.2    88  ARG88      -0.2864
     99  CB       -10.2560  -18.6270  -40.8180 C.3    88  ARG88       0.0334
    100  CG       -11.2700  -19.2920  -39.9000 C.3    88  ARG88       0.0492
    101  CD       -12.3380  -18.3250  -39.4640 C.3    88  ARG88       0.2205
    102  NE       -13.3100  -18.9600  -38.5780 N.pl3  88  ARG88      -0.0865
    103  CZ       -13.4390  -18.6950  -37.2840 C.cat  88  ARG88       0.5346
    104  NH1      -14.3640  -19.3290  -36.5740 N.pl3  88  ARG88       0.1354
    105  NH2      -12.6540  -17.8020  -36.6940 N.pl3  88  ARG88       0.1354
    106  N         -9.6090  -19.8230  -35.7150 N.3    91  THR91      -0.1218
    107  CA        -9.9010  -21.2460  -35.6500 C.3    91  THR91       0.1862
    108  C         -9.2880  -21.8320  -34.3820 C.2    91  THR91       0.2287
    109  O         -8.1460  -21.5210  -34.0460 O.2    91  THR91      -0.2866
    110  CB        -9.3480  -22.0030  -36.8680 C.3    91  THR91       0.1770
    111  OG1      -10.0510  -21.5780  -38.0430 O.3    91  THR91      -0.2211
    112  CG2       -9.5250  -23.5070  -36.6950 C.3    91  THR91       0.0375
    113  N         -9.5240  -28.7070  -33.3990 N.3    96  GLU96      -0.1245
    114  CA        -9.5640  -29.3830  -34.6940 C.3    96  GLU96       0.1567
    115  C         -8.6100  -30.5770  -34.7230 C.2    96  GLU96       0.2260
    116  O         -8.9500  -31.6320  -35.2630 O.2    96  GLU96      -0.2867
    117  CB        -9.2210  -28.4130  -35.8350 C.3    96  GLU96       0.0388
    118  CG       -10.2750  -27.3370  -36.0670 C.3    96  GLU96       0.1160
    119  CD       -11.5950  -27.9080  -36.5770 C.2    96  GLU96       0.3649
    120  OE1      -11.5660  -28.9610  -37.2390 O.co2  96  GLU96      -0.2457
    121  OE2      -12.6650  -27.3170  -36.2960 O.co2  96  GLU96      -0.2457
    122  N         -7.3680  -20.7500  -45.4890 N.3   116  THR116     -0.1218
    123  CA        -8.0120  -19.9070  -46.4660 C.3   116  THR116      0.1862
    124  C         -7.0860  -18.7310  -46.8180 C.2   116  THR116      0.2287
    125  O         -6.1190  -18.4250  -46.1010 O.2   116  THR116     -0.2866
    126  CB        -9.3860  -19.4250  -45.9620 C.3   116  THR116      0.1770
    127  OG1      -10.1780  -18.9980  -47.0910 O.3   116  THR116     -0.2211
    128  CG2       -9.2160  -18.3070  -44.9590 C.3   116  THR116      0.0375
    129  N        -18.6260  -17.0090  -40.0630 N.3   125  SER125     -0.1217
    130  CA       -20.0810  -16.8820  -40.1530 C.3   125  SER125      0.1889
    131  C        -20.6040  -16.0410  -38.9900 C.2   125  SER125      0.2288
    132  O        -21.3690  -15.0980  -39.1820 O.2   125  SER125     -0.2866
    133  CB       -20.7410  -18.2580  -40.1570 C.3   125  SER125      0.2089
    134  OG       -20.4760  -18.9480  -41.3710 O.3   125  SER125     -0.2183
@<TRIPOS>BOND
     1    59    58    2
     2    58    57    1
     3    60    57    1
     4    60    61    1
     5    57    56    1
     6    52    51    2
     7    56    51   am
     8    63    61   ar
     9    63    65   ar
    10    61    62   ar
    11    51    50    1
    12    49    50    1
    13    50    53    1
    14    65    66   ar
    15    62    64   ar
    16    42    41    2
    17    41    40    1
    18     6     5    1
    19    66    64   ar
    20    73    71    1
    21    53    54    1
    22    53    55    1
    23    72    71    1
    24     5     2    1
    25    71    68    1
    26    38    37    2
    27    35    36    1
    28   127   126    1
    29    40    39    1
    30    40    43    1
    31     1     2    1
    32    37    39   am
    33    37    36    1
    34   124   123    1
    35   124   125    2
    36    43    44    1
    37   123   126    1
    38   123   122    1
    39     2     3    1
    40   126   128    1
    41     4     3    2
    42    68    67    1
    43    68    69    1
    44     3     7   am
    45    44    45   ar
    46    44    46   ar
    47    70    69    2
    48    69    74   am
    49    45    47   ar
    50    34    33   ar
    51    34    32   ar
    52    33    31   ar
    53    32    30   ar
    54    31    29   ar
    55    30    29   ar
    56    29    28    1
    57    28    25    1
    58    74    75    1
    59     7    13    1
    60     7     8    1
    61    46    48   ar
    62    27    26    2
    63    84    83    1
    64    84    85    1
    65    77    76    2
    66    83    76   am
    67    13    12    1
    68    76    75    1
    69    47    48   ar
    70    75    78    1
    71     8     9    1
    72     8    11    1
    73    25    26    1
    74    25    24    1
    75    90    89    2
    76     9    10    2
    77     9    14   am
    78    87    85   am
    79    87    88    1
    80    85    86    2
    81    11    12    1
    82    14    15    1
    83    24    20   am
    84    21    20    2
    85    78    79    1
    86    17    16    2
    87    89    88    1
    88    89    95   am
    89   134   133    1
    90    20    19    1
    91    15    16    1
    92    88    91    1
    93    79    80    1
    94    16    18   am
    95    80    81    1
    96    91    92    1
    97    99    96    1
    98    99   100    1
    99    92    93    1
   100    92    94    1
   101    96    95    1
   102    96    97    1
   103    18    19    1
   104    19    22    1
   105   133   130    1
   106   130   129    1
   107   130   131    1
   108   100   101    1
   109    81    82    1
   110   101   102    1
   111    97    98    2
   112   132   131    2
   113    22    23    1
   114   102   103    2
   115   111   110    1
   116   103   105    1
   117   103   104    1
   118   120   119   ar
   119   110   112    1
   120   110   107    1
   121   119   121   ar
   122   119   118    1
   123   118   117    1
   124   117   114    1
   125   106   107    1
   126   107   108    1
   127   116   115    2
   128   115   114    1
   129   114   113    1
   130   108   109    2
