@<TRIPOS>MOLECULE
tmp/5o0dB00.pdb
 92 85 0 0 0
SMALL
GASTEIGER

@<TRIPOS>ATOM
      1  N        -17.5070  -30.2290  -44.3460 N.3     7  PRO7       -0.2102
      2  CA       -18.6180  -30.0770  -43.4030 C.3     7  PRO7        0.1504
      3  C        -18.6840  -28.7200  -42.7310 C.2     7  PRO7        0.2576
      4  O        -17.6760  -28.0260  -42.5760 O.2     7  PRO7       -0.2718
      5  CB       -18.3110  -31.1470  -42.3660 C.3     7  PRO7        0.0282
      6  CG       -16.8110  -31.0360  -42.2440 C.3     7  PRO7        0.0208
      7  CD       -16.3170  -30.7890  -43.6820 C.3     7  PRO7        0.0893
      8  N        -19.8800  -28.3270  -42.3240 N.am    8  GLY8       -0.1943
      9  CA       -20.0020  -27.1090  -41.5510 C.3     8  GLY8        0.2014
     10  C        -21.4400  -26.7060  -41.3690 C.2     8  GLY8        0.2639
     11  O        -22.3250  -27.3050  -41.9690 O.2     8  GLY8       -0.2714
     12  N        -21.6740  -25.6830  -40.5530 N.am    9  SER9       -0.1949
     13  CA       -23.0120  -25.1160  -40.4460 C.3     9  SER9        0.1924
     14  C        -23.3000  -24.1050  -41.5650 C.2     9  SER9        0.2314
     15  O        -24.4380  -23.9930  -42.0080 O.2     9  SER9       -0.2863
     16  CB       -23.2060  -24.4620  -39.0780 C.3     9  SER9        0.2116
     17  OG       -22.1620  -23.5480  -38.7870 O.3     9  SER9       -0.2180
     18  N        -21.2890  -30.7450  -46.7200 N.3    34  ALA34      -0.1245
     19  CA       -22.2890  -31.2660  -45.7960 C.3    34  ALA34       0.1562
     20  C        -22.7460  -30.1560  -44.8470 C.2    34  ALA34       0.2260
     21  O        -21.9620  -29.6470  -44.0440 O.2    34  ALA34      -0.2867
     22  CB       -21.7250  -32.4560  -45.0210 C.3    34  ALA34       0.0290
     23  N        -24.7860  -28.9220  -41.7760 N.3    36  LEU36      -0.1245
     24  CA       -25.2830  -29.5140  -40.5400 C.3    36  LEU36       0.1561
     25  C        -26.7020  -29.0750  -40.2090 C.2    36  LEU36       0.2260
     26  O        -27.0130  -27.8850  -40.2150 O.2    36  LEU36      -0.2867
     27  CB       -24.3620  -29.1620  -39.3730 C.3    36  LEU36       0.0270
     28  CG       -24.8540  -29.6350  -38.0020 C.3    36  LEU36       0.0019
     29  CD1      -24.8760  -31.1540  -37.9500 C.3    36  LEU36       0.0001
     30  CD2      -23.9750  -29.0700  -36.8910 C.3    36  LEU36       0.0001
     31  N        -26.8530  -32.8460  -43.5030 N.3    69  GLY69      -0.1210
     32  CA       -26.3680  -33.9730  -42.7380 C.3    69  GLY69       0.1956
     33  C        -26.6610  -33.7690  -41.2690 C.2    69  GLY69       0.2612
     34  O        -26.8520  -32.6420  -40.8120 O.2    69  GLY69      -0.2717
     35  N        -26.6800  -34.8730  -40.5380 N.am   70  GLN70      -0.1965
     36  CA       -26.9990  -34.8710  -39.1230 C.3    70  GLN70       0.1733
     37  C        -26.1770  -35.9320  -38.4120 C.2    70  GLN70       0.2616
     38  O        -25.8040  -36.9320  -39.0220 O.2    70  GLN70      -0.2715
     39  CB       -28.4960  -35.1340  -38.9190 C.3    70  GLN70       0.0408
     40  CG       -29.0220  -34.7520  -37.5560 C.3    70  GLN70       0.0908
     41  CD       -30.5300  -34.5680  -37.5540 C.2    70  GLN70       0.2608
     42  OE1      -31.1880  -34.6780  -38.5970 O.2    70  GLN70      -0.2717
     43  NE2      -31.0830  -34.2650  -36.3880 N.am   70  GLN70      -0.0878
     44  N        -25.8910  -35.7100  -37.1300 N.am   71  GLY71      -0.1955
     45  CA       -25.2760  -36.7380  -36.3120 C.3    71  GLY71       0.1869
     46  C        -23.7780  -36.8430  -36.5010 C.2    71  GLY71       0.2309
     47  O        -23.1010  -35.8410  -36.6990 O.2    71  GLY71      -0.2863
     48  N        -20.3370  -37.1540  -38.0540 N.3    73  LEU73      -0.1245
     49  CA       -19.8220  -36.8010  -39.3730 C.3    73  LEU73       0.1561
     50  C        -19.2210  -38.0030  -40.1040 C.2    73  LEU73       0.2260
     51  O        -19.4490  -38.1630  -41.3010 O.2    73  LEU73      -0.2867
     52  CB       -18.7800  -35.6800  -39.2630 C.3    73  LEU73       0.0270
     53  CG       -18.0770  -35.2840  -40.5700 C.3    73  LEU73       0.0019
     54  CD1      -19.0770  -34.8550  -41.6240 C.3    73  LEU73       0.0001
     55  CD2      -17.0510  -34.1730  -40.3100 C.3    73  LEU73       0.0001
     56  N        -21.7540  -39.9570  -42.0080 N.3    76  PHE76      -0.1241
     57  CA       -22.1050  -39.2520  -43.2370 C.3    76  PHE76       0.1605
     58  C        -21.0770  -39.5450  -44.3320 C.2    76  PHE76       0.2264
     59  O        -21.4260  -39.8150  -45.4970 O.2    76  PHE76      -0.2867
     60  CB       -22.2030  -37.7420  -42.9730 C.3    76  PHE76       0.0534
     61  CG       -22.5780  -36.9220  -44.1800 C.ar   76  PHE76      -0.0203
     62  CD1      -21.6260  -36.5640  -45.1180 C.ar   76  PHE76      -0.0042
     63  CD2      -23.8790  -36.4680  -44.3540 C.ar   76  PHE76      -0.0042
     64  CE1      -21.9580  -35.8030  -46.2210 C.ar   76  PHE76      -0.0003
     65  CE2      -24.2180  -35.7000  -45.4590 C.ar   76  PHE76      -0.0003
     66  CZ       -23.2520  -35.3700  -46.3930 C.ar   76  PHE76      -0.0000
     67  N        -11.2220  -29.3680  -44.4950 N.3    87  LYS87      -0.1245
     68  CA       -11.6180  -28.2140  -43.6940 C.3    87  LYS87       0.1561
     69  C        -10.6210  -27.0700  -43.8370 C.2    87  LYS87       0.2260
     70  O         -9.4210  -27.2950  -44.0050 O.2    87  LYS87      -0.2867
     71  CB       -11.7400  -28.6110  -42.2230 C.3    87  LYS87       0.0271
     72  CG       -12.5950  -29.8340  -41.9960 C.3    87  LYS87       0.0035
     73  CD       -12.7290  -30.1520  -40.5280 C.3    87  LYS87       0.0206
     74  CE       -13.6250  -29.1470  -39.8460 C.3    87  LYS87       0.1093
     75  NZ       -14.1150  -29.6710  -38.5520 N.3    87  LYS87      -0.1314
     76  N         -9.0600  -28.6690  -33.9270 N.3    98  GLU98      -0.1245
     77  CA        -9.3930  -29.5030  -35.0720 C.3    98  GLU98       0.1567
     78  C         -8.5310  -30.7500  -35.1160 C.2    98  GLU98       0.2260
     79  O         -8.9660  -31.7770  -35.6370 O.2    98  GLU98      -0.2867
     80  CB        -9.2400  -28.7250  -36.3800 C.3    98  GLU98       0.0388
     81  CG       -10.2680  -27.6080  -36.5570 C.3    98  GLU98       0.1160
     82  CD       -11.6830  -28.1230  -36.7650 C.2    98  GLU98       0.3649
     83  OE1      -11.8520  -29.2940  -37.1700 O.co2  98  GLU98      -0.2457
     84  OE2      -12.6320  -27.3480  -36.5250 O.co2  98  GLU98      -0.2457
     85  N        -10.1880  -33.4640  -33.0500 N.3   101  MET101     -0.1245
     86  CA       -11.3030  -34.0080  -33.8200 C.3   101  MET101      0.1570
     87  C        -10.8400  -34.9050  -34.9560 C.2   101  MET101      0.2261
     88  O        -11.4280  -35.9430  -35.2330 O.2   101  MET101     -0.2867
     89  CB       -12.1520  -32.8680  -34.3820 C.3   101  MET101      0.0387
     90  CG       -12.3670  -31.7640  -33.3880 C.3   101  MET101      0.0595
     91  SD       -13.9470  -31.9650  -32.5930 S.3   101  MET101     -0.1393
     92  CE       -14.9660  -31.4540  -33.9620 C.3   101  MET101      0.0692
@<TRIPOS>BOND
     1    18    19    1
     2    66    64   ar
     3    66    65   ar
     4    64    62   ar
     5    19    22    1
     6    19    20    1
     7    59    58    2
     8    65    63   ar
     9    62    61   ar
    10    20    21    2
    11    67    68    1
    12    63    61   ar
    13     1     7    1
    14     1     2    1
    15    58    57    1
    16    61    60    1
    17    70    69    2
    18    69    68    1
    19    68    71    1
    20     7     6    1
    21    31    32    1
    22     2     3    1
    23     2     5    1
    24    57    60    1
    25    57    56    1
    26    32    33    1
    27     3     4    2
    28     3     8   am
    29     5     6    1
    30     8     9    1
    31    71    72    1
    32    15    14    2
    33    72    73    1
    34    11    10    2
    35    23    24    1
    36    54    53    1
    37    14    13    1
    38     9    10    1
    39    10    12   am
    40    51    50    2
    41    33    34    2
    42    33    35   am
    43    53    55    1
    44    53    52    1
    45    12    13    1
    46    24    25    1
    47    24    27    1
    48    35    36    1
    49    73    74    1
    50    13    16    1
    51    26    25    2
    52    50    49    1
    53    74    75    1
    54    49    52    1
    55    49    48    1
    56    27    28    1
    57    36    39    1
    58    36    37    1
    59    16    17    1
    60    38    37    2
    61    39    40    1
    62    42    41    2
    63    37    44   am
    64    28    29    1
    65    28    30    1
    66    40    41    1
    67    41    43   am
    68    83    82   ar
    69    44    45    1
    70    82    81    1
    71    82    84   ar
    72    47    46    2
    73    81    80    1
    74    46    45    1
    75    80    77    1
    76    79    78    2
    77    88    87    2
    78    78    77    1
    79    77    76    1
    80    87    86    1
    81    89    86    1
    82    89    90    1
    83    92    91    1
    84    86    85    1
    85    90    91    1
