@<TRIPOS>MOLECULE
tmp/5o0fC00.pdb
 100 94 0 0 0
SMALL
GASTEIGER

@<TRIPOS>ATOM
      1  N        -11.2770   -0.7080  -24.4820 N.3     7  PRO7       -0.2102
      2  CA       -12.6050   -1.2970  -24.3450 C.3     7  PRO7        0.1504
      3  C        -12.6540   -2.4670  -23.3820 C.2     7  PRO7        0.2576
      4  O        -11.6430   -3.1290  -23.1630 O.2     7  PRO7       -0.2718
      5  CB       -12.8950   -1.7940  -25.7520 C.3     7  PRO7        0.0282
      6  CG       -11.5500   -2.2830  -26.1910 C.3     7  PRO7        0.0208
      7  CD       -10.5490   -1.2980  -25.6250 C.3     7  PRO7        0.0893
      8  N        -13.8360   -2.7390  -22.8440 N.am    8  GLY8       -0.1943
      9  CA       -14.0250   -3.9580  -22.0790 C.3     8  GLY8        0.2014
     10  C        -15.3350   -3.9540  -21.3290 C.2     8  GLY8        0.2639
     11  O        -16.1080   -3.0030  -21.4220 O.2     8  GLY8       -0.2714
     12  N        -15.5990   -5.0350  -20.6050 N.am    9  SER9       -0.1949
     13  CA       -16.7630   -5.0820  -19.7280 C.3     9  SER9        0.1924
     14  C        -16.3990   -4.5830  -18.3400 C.2     9  SER9        0.2314
     15  O        -17.2250   -3.9700  -17.6670 O.2     9  SER9       -0.2863
     16  CB       -17.3340   -6.4950  -19.6490 C.3     9  SER9        0.2116
     17  OG       -18.1050   -6.7870  -20.7990 O.3     9  SER9       -0.2180
     18  N        -13.9230    2.4910  -22.6450 N.3    34  ALA34      -0.1245
     19  CA       -15.2390    2.1640  -23.1650 C.3    34  ALA34       0.1562
     20  C        -15.8170    0.9720  -22.4380 C.2    34  ALA34       0.2260
     21  O        -15.3130   -0.1390  -22.5600 O.2    34  ALA34      -0.2867
     22  CB       -15.1690    1.8860  -24.6650 C.3    34  ALA34       0.0290
     23  N        -18.6860   -1.6710  -21.9010 N.3    36  LEU36      -0.1245
     24  CA       -19.7430   -2.2980  -22.6720 C.3    36  LEU36       0.1561
     25  C        -20.9750   -2.5340  -21.8140 C.2    36  LEU36       0.2260
     26  O        -20.8680   -2.9810  -20.6680 O.2    36  LEU36      -0.2867
     27  CB       -19.2600   -3.6180  -23.2630 C.3    36  LEU36       0.0270
     28  CG       -20.3320   -4.4810  -23.9270 C.3    36  LEU36       0.0019
     29  CD1      -20.8530   -3.7990  -25.1860 C.3    36  LEU36       0.0001
     30  CD2      -19.7900   -5.8770  -24.2320 C.3    36  LEU36       0.0001
     31  N        -21.0560    2.2780  -23.5710 N.3    65  GLY65      -0.1210
     32  CA       -21.4570    2.1690  -24.9540 C.3    65  GLY65       0.1956
     33  C        -22.0690    0.8290  -25.2840 C.2    65  GLY65       0.2612
     34  O        -22.0130   -0.1140  -24.4930 O.2    65  GLY65      -0.2717
     35  N        -22.6390    0.7530  -26.4790 N.am   66  GLN66      -0.1965
     36  CA       -23.3630   -0.4140  -26.9500 C.3    66  GLN66       0.1733
     37  C        -23.0470   -0.6080  -28.4300 C.2    66  GLN66       0.2617
     38  O        -22.5340    0.3060  -29.0710 O.2    66  GLN66      -0.2715
     39  CB       -24.8640   -0.2180  -26.7380 C.3    66  GLN66       0.0408
     40  CG       -25.5920   -1.3920  -26.1380 C.3    66  GLN66       0.0908
     41  CD       -26.9960   -1.0190  -25.6980 C.2    66  GLN66       0.2608
     42  OE1      -27.2230    0.0620  -25.1500 O.2    66  GLN66      -0.2717
     43  NE2      -27.9470   -1.9080  -25.9420 N.am   66  GLN66      -0.0878
     44  N        -23.3570   -1.7800  -28.9760 N.am   67  GLY67      -0.1940
     45  CA       -23.1580   -2.0210  -30.3970 C.3    67  GLY67       0.2014
     46  C        -21.7000   -2.1950  -30.7950 C.2    67  GLY67       0.2639
     47  O        -20.8850   -2.6460  -29.9920 O.2    67  GLY67      -0.2714
     48  N        -21.3700   -1.8370  -32.0350 N.am   68  LEU68      -0.1963
     49  CA       -20.0050   -1.9970  -32.5450 C.3    68  LEU68       0.1728
     50  C        -19.0260   -1.0610  -31.8620 C.2    68  LEU68       0.2616
     51  O        -19.2500    0.1420  -31.8050 O.2    68  LEU68      -0.2715
     52  CB       -19.9480   -1.7530  -34.0560 C.3    68  LEU68       0.0311
     53  CG       -20.6370   -2.7390  -34.9940 C.3    68  LEU68       0.0022
     54  CD1      -20.4050   -2.3350  -36.4370 C.3    68  LEU68       0.0001
     55  CD2      -20.1540   -4.1580  -34.7420 C.3    68  LEU68       0.0001
     56  N        -17.9290   -1.6140  -31.3610 N.am   69  LEU69      -0.1977
     57  CA       -16.8750   -0.7960  -30.7850 C.3    69  LEU69       0.1596
     58  C        -16.3550    0.2320  -31.7840 C.2    69  LEU69       0.2287
     59  O        -16.0520    1.3550  -31.4030 O.2    69  LEU69      -0.2864
     60  CB       -15.7180   -1.6690  -30.2860 C.3    69  LEU69       0.0297
     61  CG       -14.5240   -0.9110  -29.7080 C.3    69  LEU69       0.0022
     62  CD1      -14.9510   -0.0500  -28.5300 C.3    69  LEU69       0.0001
     63  CD2      -13.4160   -1.8770  -29.2970 C.3    69  LEU69       0.0001
     64  N        -18.3970    3.3690  -31.6100 N.3    72  PHE72      -0.1241
     65  CA       -18.0620    4.1050  -30.4020 C.3    72  PHE72       0.1605
     66  C        -16.7780    4.8950  -30.6090 C.2    72  PHE72       0.2264
     67  O        -16.6710    6.0530  -30.2020 O.2    72  PHE72      -0.2867
     68  CB       -17.9150    3.1430  -29.2120 C.3    72  PHE72       0.0534
     69  CG       -17.5480    3.8160  -27.9120 C.ar   72  PHE72      -0.0203
     70  CD1      -16.2340    4.1700  -27.6360 C.ar   72  PHE72      -0.0042
     71  CD2      -18.5150    4.0550  -26.9450 C.ar   72  PHE72      -0.0042
     72  CE1      -15.9010    4.7850  -26.4430 C.ar   72  PHE72      -0.0003
     73  CE2      -18.1780    4.6630  -25.7410 C.ar   72  PHE72      -0.0003
     74  CZ       -16.8790    5.0230  -25.4910 C.ar   72  PHE72      -0.0000
     75  N         -5.5820   -2.4840  -26.3360 N.3    83  LYS83      -0.1245
     76  CA        -6.0570   -3.5850  -25.5080 C.3    83  LYS83       0.1561
     77  C         -4.9160   -4.4060  -24.9410 C.2    83  LYS83       0.2260
     78  O         -3.9150   -4.6250  -25.6070 O.2    83  LYS83      -0.2867
     79  CB        -6.9900   -4.4900  -26.3000 C.3    83  LYS83       0.0271
     80  CG        -8.2130   -4.8840  -25.4910 C.3    83  LYS83       0.0035
     81  CD        -9.0300   -5.9220  -26.2090 C.3    83  LYS83       0.0206
     82  CE        -9.4310   -5.4290  -27.5770 C.3    83  LYS83       0.1093
     83  NZ       -10.6810   -6.1010  -28.0210 N.3    83  LYS83      -0.1314
     84  N         -8.0700  -12.1920  -30.6390 N.3    94  GLU94      -0.1245
     85  CA        -8.1330  -10.7320  -30.7350 C.3    94  GLU94       0.1567
     86  C         -7.6740  -10.2640  -32.1050 C.2    94  GLU94       0.2260
     87  O         -8.1340   -9.2260  -32.5940 O.2    94  GLU94      -0.2867
     88  CB        -7.2800  -10.0570  -29.6590 C.3    94  GLU94       0.0388
     89  CG        -7.8340  -10.1960  -28.2560 C.3    94  GLU94       0.1160
     90  CD        -9.1500   -9.4620  -28.0640 C.2    94  GLU94       0.3649
     91  OE1       -9.4040   -8.4790  -28.7930 O.co2  94  GLU94      -0.2457
     92  OE2       -9.9380   -9.8790  -27.1920 O.co2  94  GLU94      -0.2457
     93  N        -10.5950  -10.0880  -34.5080 N.3    97  MET97      -0.1245
     94  CA       -11.4500   -8.9240  -34.3390 C.3    97  MET97       0.1570
     95  C        -10.7350   -7.6400  -34.7410 C.2    97  MET97       0.2261
     96  O        -11.3710   -6.7060  -35.2310 O.2    97  MET97      -0.2867
     97  CB       -11.9540   -8.8370  -32.8990 C.3    97  MET97       0.0387
     98  CG       -13.0740   -9.8590  -32.6090 C.3    97  MET97       0.0595
     99  SD       -13.6930   -9.6580  -30.9360 S.3    97  MET97      -0.1393
    100  CE       -12.1650   -9.8210  -30.0260 C.3    97  MET97       0.0692
@<TRIPOS>BOND
     1    54    53    1
     2    96    95    2
     3    53    55    1
     4    53    52    1
     5    95    94    1
     6    93    94    1
     7    94    97    1
     8    52    49    1
     9    97    98    1
    10    98    99    1
    11    87    86    2
    12    49    48    1
    13    49    50    1
    14    86    85    1
    15    48    46   am
    16    50    51    2
    17    50    56   am
    18    58    59    2
    19    58    57    1
    20    64    65    1
    21    56    57    1
    22    99   100    1
    23    46    45    1
    24    46    47    2
    25    57    60    1
    26    85    84    1
    27    85    88    1
    28    66    65    1
    29    66    67    2
    30    65    68    1
    31    45    44    1
    32    60    61    1
    33    61    63    1
    34    61    62    1
    35    88    89    1
    36    68    69    1
    37    38    37    2
    38    44    37   am
    39    91    90   ar
    40    37    36    1
    41    89    90    1
    42    90    92   ar
    43    83    82    1
    44    69    70   ar
    45    69    71   ar
    46    70    72   ar
    47    82    81    1
    48    36    39    1
    49    36    35    1
    50    71    73   ar
    51    39    40    1
    52    35    33   am
    53    72    74   ar
    54    75    76    1
    55    79    76    1
    56    79    80    1
    57    81    80    1
    58     6     5    1
    59     6     7    1
    60    40    41    1
    61    43    41   am
    62     5     2    1
    63    73    74   ar
    64    41    42    2
    65     7     1    1
    66    78    77    2
    67    76    77    1
    68    33    32    1
    69    33    34    2
    70    29    28    1
    71    32    31    1
    72    22    19    1
    73     1     2    1
    74     2     3    1
    75    30    28    1
    76    28    27    1
    77     3     4    2
    78     3     8   am
    79    27    24    1
    80    19    18    1
    81    19    20    1
    82     8     9    1
    83    24    23    1
    84    24    25    1
    85    21    20    2
    86     9    10    1
    87    25    26    2
    88    11    10    2
    89    10    12   am
    90    17    16    1
    91    12    13    1
    92    13    16    1
    93    13    14    1
    94    14    15    2
