@<TRIPOS>MOLECULE
tmp/5o0hC00.pdb
 98 94 0 0 0
SMALL
GASTEIGER

@<TRIPOS>ATOM
      1  N        -11.3800    0.0110  -24.8310 N.3     8  PRO8       -0.2102
      2  CA       -12.6640   -0.6580  -24.6050 C.3     8  PRO8        0.1504
      3  C        -12.5770   -1.8860  -23.7140 C.2     8  PRO8        0.2576
      4  O        -11.5220   -2.5100  -23.6340 O.2     8  PRO8       -0.2718
      5  CB       -13.0710   -1.0950  -26.0090 C.3     8  PRO8        0.0282
      6  CG       -11.7490   -1.4470  -26.6400 C.3     8  PRO8        0.0208
      7  CD       -10.7650   -0.4250  -26.1000 C.3     8  PRO8        0.0893
      8  N        -13.6870   -2.2310  -23.0810 N.am    9  GLY9       -0.1957
      9  CA       -13.8060   -3.4940  -22.3670 C.3     9  GLY9        0.1869
     10  C        -15.0460   -3.5000  -21.5000 C.2     9  GLY9        0.2309
     11  O        -15.7440   -2.4940  -21.4110 O.2     9  GLY9       -0.2863
     12  N        -13.9120    3.0990  -22.7130 N.3    35  ALA35      -0.1231
     13  CA       -15.2700    2.7650  -23.1250 C.3    35  ALA35       0.1694
     14  C        -15.7510    1.5270  -22.4000 C.2    35  ALA35       0.2592
     15  O        -15.2870    0.4150  -22.6500 O.2    35  ALA35      -0.2718
     16  CB       -15.3520    2.5650  -24.6530 C.3    35  ALA35       0.0304
     17  N        -16.6800    1.7340  -21.4720 N.am   36  VAL36      -0.1966
     18  CA       -17.2390    0.6390  -20.6880 C.3    36  VAL36       0.1727
     19  C        -18.4500    0.0590  -21.3980 C.2    36  VAL36       0.2616
     20  O        -19.4460    0.7520  -21.6220 O.2    36  VAL36      -0.2715
     21  CB       -17.6530    1.0990  -19.2810 C.3    36  VAL36       0.0290
     22  CG1      -18.1530   -0.0770  -18.4770 C.3    36  VAL36       0.0023
     23  CG2      -16.4880    1.7590  -18.5870 C.3    36  VAL36       0.0023
     24  N        -18.3670   -1.2140  -21.7550 N.am   37  LEU37      -0.1977
     25  CA       -19.4060   -1.8490  -22.5460 C.3    37  LEU37       0.1596
     26  C        -20.7070   -2.0490  -21.7640 C.2    37  LEU37       0.2287
     27  O        -20.6920   -2.5230  -20.6310 O.2    37  LEU37      -0.2864
     28  CB       -18.9110   -3.1920  -23.0770 C.3    37  LEU37       0.0297
     29  CG       -19.9840   -4.0540  -23.7390 C.3    37  LEU37       0.0022
     30  CD1      -20.5090   -3.3870  -25.0030 C.3    37  LEU37       0.0001
     31  CD2      -19.4550   -5.4430  -24.0370 C.3    37  LEU37       0.0001
     32  N        -20.5300    2.7280  -23.5370 N.3    68  GLY68      -0.1210
     33  CA       -20.7180    2.5940  -24.9670 C.3    68  GLY68       0.1956
     34  C        -21.5940    1.3980  -25.2710 C.2    68  GLY68       0.2612
     35  O        -21.7170    0.4830  -24.4490 O.2    68  GLY68      -0.2717
     36  N        -22.1990    1.4110  -26.4550 N.am   69  GLN69      -0.1965
     37  CA       -23.0590    0.3310  -26.9090 C.3    69  GLN69       0.1733
     38  C        -22.9740    0.2430  -28.4260 C.2    69  GLN69       0.2617
     39  O        -22.6510    1.2270  -29.0840 O.2    69  GLN69      -0.2715
     40  CB       -24.5070    0.5660  -26.4700 C.3    69  GLN69       0.0408
     41  CG       -25.3660   -0.6830  -26.4550 C.3    69  GLN69       0.0908
     42  CD       -26.7140   -0.4490  -25.7970 C.2    69  GLN69       0.2608
     43  OE1      -26.7940   -0.1380  -24.6090 O.2    69  GLN69      -0.2717
     44  NE2      -27.7830   -0.6010  -26.5700 N.am   69  GLN69      -0.0878
     45  N        -23.2660   -0.9290  -28.9790 N.am   70  GLY70      -0.1940
     46  CA       -23.2560   -1.1040  -30.4210 C.3    70  GLY70       0.2014
     47  C        -21.8580   -1.3510  -30.9570 C.2    70  GLY70       0.2639
     48  O        -20.9670   -1.7340  -30.2040 O.2    70  GLY70      -0.2714
     49  N        -21.6720   -1.1420  -32.2580 N.am   71  LEU71      -0.1963
     50  CA       -20.3650   -1.3100  -32.8870 C.3    71  LEU71       0.1728
     51  C        -19.3190   -0.4270  -32.2260 C.2    71  LEU71       0.2616
     52  O        -19.4910    0.7770  -32.1430 O.2    71  LEU71      -0.2715
     53  CB       -20.4240   -0.9690  -34.3800 C.3    71  LEU71       0.0311
     54  CG       -20.6340   -2.0580  -35.4270 C.3    71  LEU71       0.0022
     55  CD1      -20.3190   -1.4980  -36.8030 C.3    71  LEU71       0.0001
     56  CD2      -19.7880   -3.2770  -35.1200 C.3    71  LEU71       0.0001
     57  N        -18.2190   -1.0220  -31.7880 N.am   72  LEU72      -0.1963
     58  CA       -17.1190   -0.2400  -31.2450 C.3    72  LEU72       0.1728
     59  C        -16.5950    0.8180  -32.2190 C.2    72  LEU72       0.2616
     60  O        -16.2910    1.9310  -31.8090 O.2    72  LEU72      -0.2715
     61  CB       -15.9870   -1.1680  -30.8230 C.3    72  LEU72       0.0311
     62  CG       -14.7380   -0.4670  -30.3150 C.3    72  LEU72       0.0022
     63  CD1      -15.0630    0.4530  -29.1410 C.3    72  LEU72       0.0001
     64  CD2      -13.6960   -1.5350  -29.9530 C.3    72  LEU72       0.0001
     65  N        -16.4970    0.4990  -33.5040 N.am   73  VAL73      -0.1977
     66  CA       -15.9290    1.4680  -34.4400 C.3    73  VAL73       0.1596
     67  C        -16.8430    2.6900  -34.5790 C.2    73  VAL73       0.2287
     68  O        -16.3630    3.7740  -34.8920 O.2    73  VAL73      -0.2864
     69  CB       -15.6560    0.8680  -35.8330 C.3    73  VAL73       0.0276
     70  CG1      -14.4130   -0.0490  -35.7960 C.3    73  VAL73       0.0022
     71  CG2      -16.8880    0.1470  -36.3620 C.3    73  VAL73       0.0022
     72  N        -18.5380    3.9680  -31.9900 N.3    75  PHE75      -0.1241
     73  CA       -18.2020    4.7130  -30.7720 C.3    75  PHE75       0.1605
     74  C        -16.9410    5.5410  -31.0050 C.2    75  PHE75       0.2264
     75  O        -16.8480    6.7110  -30.6450 O.2    75  PHE75      -0.2867
     76  CB       -18.0010    3.7380  -29.5990 C.3    75  PHE75       0.0534
     77  CG       -17.6020    4.3930  -28.3100 C.ar   75  PHE75      -0.0203
     78  CD1      -16.2880    4.7610  -28.0720 C.ar   75  PHE75      -0.0042
     79  CD2      -18.5470    4.6130  -27.3070 C.ar   75  PHE75      -0.0042
     80  CE1      -15.9100    5.3620  -26.8610 C.ar   75  PHE75      -0.0003
     81  CE2      -18.1830    5.2040  -26.1090 C.ar   75  PHE75      -0.0003
     82  CZ       -16.8620    5.5810  -25.8860 C.ar   75  PHE75      -0.0000
     83  N        -10.6940   -9.3790  -34.9440 N.3   100  MET100     -0.1245
     84  CA       -11.4900   -8.1840  -34.6740 C.3   100  MET100      0.1570
     85  C        -10.7740   -6.9320  -35.1410 C.2   100  MET100      0.2261
     86  O        -11.3980   -6.0240  -35.6950 O.2   100  MET100     -0.2867
     87  CB       -11.7960   -8.0610  -33.1800 C.3   100  MET100      0.0387
     88  CG       -12.7470   -9.1190  -32.6530 C.3   100  MET100      0.0595
     89  SD       -13.6400   -8.4970  -31.2190 S.3   100  MET100     -0.1393
     90  CE       -12.2890   -7.9250  -30.1930 C.3   100  MET100      0.0692
     91  N        -12.1660   -4.4270  -37.8860 N.3   104  ASN104     -0.1240
     92  CA       -12.3990   -3.0170  -37.5550 C.3   104  ASN104      0.1653
     93  C        -11.6840   -2.0530  -38.4910 C.2   104  ASN104      0.2266
     94  O        -12.2260   -0.9920  -38.8510 O.2   104  ASN104     -0.2867
     95  CB       -11.9930   -2.7530  -36.0980 C.3   104  ASN104      0.1155
     96  CG       -13.0150   -3.2890  -35.1280 C.2   104  ASN104      0.2627
     97  OD1      -14.1650   -3.5240  -35.5090 O.2   104  ASN104     -0.2716
     98  ND2      -12.6230   -3.4820  -33.8870 N.am  104  ASN104     -0.0877
@<TRIPOS>BOND
     1    94    93    2
     2    93    92    1
     3    91    92    1
     4    92    95    1
     5    55    54    1
     6    71    69    1
     7    95    96    1
     8    69    70    1
     9    69    66    1
    10    86    85    2
    11    97    96    2
    12    54    56    1
    13    54    53    1
    14    85    84    1
    15    96    98   am
    16    83    84    1
    17    68    67    2
    18    84    87    1
    19    67    66    1
    20    66    65    1
    21    53    50    1
    22    65    59   am
    23    87    88    1
    24    50    49    1
    25    50    51    1
    26    88    89    1
    27    49    47   am
    28    51    52    2
    29    51    57   am
    30    59    60    2
    31    59    58    1
    32    72    73    1
    33    57    58    1
    34    58    61    1
    35    89    90    1
    36    74    73    1
    37    74    75    2
    38    47    46    1
    39    47    48    2
    40    61    62    1
    41    73    76    1
    42    46    45    1
    43    62    64    1
    44    62    63    1
    45    76    77    1
    46    39    38    2
    47    45    38   am
    48    38    37    1
    49    77    78   ar
    50    77    79   ar
    51    78    80   ar
    52    79    81   ar
    53    37    40    1
    54    37    36    1
    55    80    82   ar
    56     6     7    1
    57     6     5    1
    58    44    42   am
    59    40    41    1
    60    36    34   am
    61    41    42    1
    62    81    82   ar
    63     7     1    1
    64     5     2    1
    65    42    43    2
    66    34    33    1
    67    34    35    2
    68    30    29    1
    69    33    32    1
    70     1     2    1
    71    16    13    1
    72     2     3    1
    73    31    29    1
    74    29    28    1
    75     3     4    2
    76     3     8   am
    77    13    12    1
    78    13    14    1
    79     8     9    1
    80    28    25    1
    81    15    14    2
    82    25    26    1
    83    25    24    1
    84    14    17   am
    85     9    10    1
    86    26    27    2
    87    24    19   am
    88    20    19    2
    89    10    11    2
    90    17    18    1
    91    19    18    1
    92    18    21    1
    93    21    23    1
    94    21    22    1
