@<TRIPOS>MOLECULE
tmp/5o0jA01.pdb
 126 121 0 0 0
SMALL
GASTEIGER

@<TRIPOS>ATOM
      1  N         35.3180   15.5720   31.7570 N.3    62  LEU62      -0.1231
      2  CA        34.0840   16.0660   31.1480 C.3    62  LEU62       0.1678
      3  C         33.4370   17.1360   32.0250 C.2    62  LEU62       0.2434
      4  O         33.1710   16.8830   33.2060 O.2    62  LEU62      -0.2733
      5  CB        33.0930   14.9200   30.9350 C.3    62  LEU62       0.0284
      6  CG        33.1120   14.1430   29.6210 C.3    62  LEU62       0.0019
      7  CD1       34.5400   13.9510   29.1880 C.3    62  LEU62       0.0001
      8  CD2       32.4040   12.7870   29.7990 C.3    62  LEU62       0.0001
      9  N         33.1660   18.3240   31.4970 N.am   63  PRO63      -0.2729
     10  CA        32.4610   19.3350   32.2950 C.3    63  PRO63       0.1401
     11  C         31.0860   18.8470   32.7470 C.2    63  PRO63       0.2269
     12  O         30.2970   18.3240   31.9550 O.2    63  PRO63      -0.2865
     13  CB        32.3560   20.5300   31.3380 C.3    63  PRO63       0.0296
     14  CG        32.5650   19.9630   29.9580 C.3    63  PRO63       0.0237
     15  CD        33.4980   18.8070   30.1460 C.3    63  PRO63       0.0939
     16  N         39.2430   24.0250   30.3440 N.3    78  TRP78      -0.1241
     17  CA        38.7790   23.0280   29.3790 C.3    78  TRP78       0.1605
     18  C         38.4760   23.6790   28.0350 C.2    78  TRP78       0.2264
     19  O         38.8880   23.1820   26.9790 O.2    78  TRP78      -0.2867
     20  CB        37.5340   22.3160   29.9210 C.3    78  TRP78       0.0550
     21  CG        37.0430   21.1720   29.0550 C.ar   78  TRP78       0.0003
     22  CD1       37.3010   19.8480   29.2370 C.ar   78  TRP78       0.0946
     23  CD2       36.2110   21.2600   27.8880 C.ar   78  TRP78       0.0152
     24  NE1       36.6900   19.1020   28.2600 N.ar   78  TRP78      -0.2442
     25  CE2       36.0120   19.9430   27.4200 C.ar   78  TRP78       0.0810
     26  CE3       35.6040   22.3180   27.2020 C.ar   78  TRP78       0.0012
     27  CZ2       35.2330   19.6560   26.2950 C.ar   78  TRP78       0.0191
     28  CZ3       34.8360   22.0300   26.0790 C.ar   78  TRP78       0.0001
     29  CH2       34.6620   20.7070   25.6390 C.ar   78  TRP78       0.0015
     30  N         40.8180   23.6140   24.1980 N.3    82  ARG82      -0.1245
     31  CA        40.1980   23.0380   23.0130 C.3    82  ARG82       0.1563
     32  C         39.6530   24.0800   22.0480 C.2    82  ARG82       0.2260
     33  O         39.2070   23.7140   20.9580 O.2    82  ARG82      -0.2867
     34  CB        39.0720   22.0860   23.4370 C.3    82  ARG82       0.0307
     35  CG        39.5610   20.8960   24.2400 C.3    82  ARG82       0.0489
     36  CD        38.4540   20.2840   25.0720 C.3    82  ARG82       0.2205
     37  NE        38.8820   19.0540   25.7220 N.pl3  82  ARG82      -0.0865
     38  CZ        39.5610   19.0050   26.8640 C.cat  82  ARG82       0.5346
     39  NH1       39.8970   20.1270   27.4930 N.pl3  82  ARG82       0.1354
     40  NH2       39.9070   17.8310   27.3770 N.pl3  82  ARG82       0.1354
     41  N         36.8620   25.5630   22.4020 N.3    84  LYS84      -0.1231
     42  CA        35.4610   25.1740   22.3160 C.3    84  LYS84       0.1693
     43  C         34.6530   25.9100   23.3780 C.2    84  LYS84       0.2592
     44  O         35.1770   26.3110   24.4190 O.2    84  LYS84      -0.2718
     45  CB        35.2930   23.6540   22.4880 C.3    84  LYS84       0.0285
     46  CG        35.9310   22.8440   21.3860 C.3    84  LYS84       0.0035
     47  CD        35.5500   21.3690   21.4860 C.3    84  LYS84       0.0206
     48  CE        36.3230   20.5340   20.4690 C.3    84  LYS84       0.1093
     49  NZ        35.9940   19.0790   20.5710 N.3    84  LYS84      -0.1314
     50  N         33.3580   26.0790   23.1060 N.am   85  ALA85      -0.1966
     51  CA        32.4590   26.8330   23.9800 C.3    85  ALA85       0.1728
     52  C         31.7200   25.8690   24.9030 C.2    85  ALA85       0.2616
     53  O         30.7870   25.1800   24.4830 O.2    85  ALA85      -0.2715
     54  CB        31.4810   27.6600   23.1530 C.3    85  ALA85       0.0334
     55  N         32.1260   25.8240   26.1640 N.am   86  ALA86      -0.1963
     56  CA        31.3540   25.1100   27.1660 C.3    86  ALA86       0.1728
     57  C         30.4110   26.0770   27.8720 C.2    86  ALA86       0.2616
     58  O         30.7140   27.2600   28.0410 O.2    86  ALA86      -0.2715
     59  CB        32.2580   24.4250   28.1920 C.3    86  ALA86       0.0334
     60  N         29.2580   25.5570   28.2760 N.am   87  GLU87      -0.1963
     61  CA        28.2630   26.3220   29.0190 C.3    87  GLU87       0.1733
     62  C         27.7260   25.4000   30.0990 C.2    87  GLU87       0.2616
     63  O         27.0870   24.3960   29.7870 O.2    87  GLU87      -0.2715
     64  CB        27.1380   26.8190   28.1060 C.3    87  GLU87       0.0429
     65  CG        25.9780   27.4510   28.8680 C.3    87  GLU87       0.1163
     66  CD        25.0100   28.2360   27.9900 C.2    87  GLU87       0.3649
     67  OE1       25.3020   28.4800   26.7930 O.co2  87  GLU87      -0.2457
     68  OE2       23.9550   28.6300   28.5190 O.co2  87  GLU87      -0.2457
     69  N         27.9930   25.7230   31.3560 N.am   88  LEU88      -0.1977
     70  CA        27.5440   24.8930   32.4620 C.3    88  LEU88       0.1596
     71  C         26.7460   25.7290   33.4440 C.2    88  LEU88       0.2287
     72  O         26.9880   26.9290   33.6140 O.2    88  LEU88      -0.2864
     73  CB        28.7100   24.2440   33.2090 C.3    88  LEU88       0.0297
     74  CG        29.7060   23.4560   32.3570 C.3    88  LEU88       0.0022
     75  CD1       30.9250   23.1160   33.2050 C.3    88  LEU88       0.0001
     76  CD2       29.0840   22.1960   31.7690 C.3    88  LEU88       0.0001
     77  N         24.9970   23.1990   22.2040 N.3   268  PHE268     -0.1241
     78  CA        25.5070   21.9400   22.7300 C.3   268  PHE268      0.1605
     79  C         24.6720   21.5220   23.9370 C.2   268  PHE268      0.2264
     80  O         24.4820   22.2930   24.8770 O.2   268  PHE268     -0.2867
     81  CB        26.9800   22.0200   23.1170 C.3   268  PHE268      0.0534
     82  CG        27.5860   20.6570   23.3170 C.ar  268  PHE268     -0.0203
     83  CD1       27.4210   19.9840   24.5130 C.ar  268  PHE268     -0.0042
     84  CD2       28.2450   20.0170   22.2780 C.ar  268  PHE268     -0.0042
     85  CE1       27.9290   18.6980   24.6870 C.ar  268  PHE268     -0.0003
     86  CE2       28.7590   18.7510   22.4480 C.ar  268  PHE268     -0.0003
     87  CZ        28.5880   18.0870   23.6560 C.ar  268  PHE268     -0.0000
     88  N         24.4710   18.6850   26.6610 N.3   270  PRO270     -0.2116
     89  CA        25.2580   17.5710   27.2250 C.3   270  PRO270      0.1372
     90  C         24.4270   16.3410   27.5470 C.2   270  PRO270      0.2244
     91  O         24.9160   15.2150   27.4030 O.2   270  PRO270     -0.2868
     92  CB        25.8840   18.1720   28.4940 C.3   270  PRO270      0.0268
     93  CG        25.7320   19.6460   28.3990 C.3   270  PRO270      0.0207
     94  CD        24.7350   19.9790   27.3140 C.3   270  PRO270      0.0892
     95  N         19.2520   15.3260   24.2830 N.3   275  ARG275     -0.1245
     96  CA        19.7730   15.5830   22.9380 C.3   275  ARG275      0.1563
     97  C         19.0190   14.7700   21.8970 C.2   275  ARG275      0.2260
     98  O         18.6740   15.2850   20.8290 O.2   275  ARG275     -0.2867
     99  CB        21.2720   15.2830   22.8510 C.3   275  ARG275      0.0307
    100  CG        21.9060   15.7960   21.5320 C.3   275  ARG275      0.0489
    101  CD        23.3710   15.3840   21.3970 C.3   275  ARG275      0.2205
    102  NE        24.0630   15.5910   22.6600 N.pl3 275  ARG275     -0.0865
    103  CZ        25.1000   14.8830   23.0890 C.cat 275  ARG275      0.5346
    104  NH1       25.6050   13.9130   22.3440 N.pl3 275  ARG275      0.1354
    105  NH2       25.6270   15.1470   24.2780 N.pl3 275  ARG275      0.1354
    106  N         30.7340   21.1070   16.4950 N.3   293  VAL293     -0.1245
    107  CA        30.6810   20.2600   17.6870 C.3   293  VAL293      0.1561
    108  C         29.2560   19.7920   17.9530 C.2   293  VAL293      0.2260
    109  O         29.0480   18.6660   18.4170 O.2   293  VAL293     -0.2867
    110  CB        31.2760   20.9710   18.9210 C.3   293  VAL293      0.0252
    111  CG1       32.7480   21.2860   18.6940 C.3   293  VAL293      0.0019
    112  CG2       30.4910   22.2270   19.2750 C.3   293  VAL293      0.0019
    113  N         27.9680   15.9140   17.9990 N.3   297  SER297     -0.1217
    114  CA        27.2900   15.3550   19.1630 C.3   297  SER297      0.1889
    115  C         25.9580   14.7260   18.7750 C.2   297  SER297      0.2288
    116  O         25.5240   13.7550   19.4090 O.2   297  SER297     -0.2866
    117  CB        27.0860   16.4320   20.2310 C.3   297  SER297      0.2089
    118  OG        26.0210   17.2980   19.8750 O.3   297  SER297     -0.2183
    119  N         34.9350   16.4910   14.0860 N.3   312  ILE312     -0.1245
    120  CA        35.6070   17.4310   14.9820 C.3   312  ILE312      0.1561
    121  C         37.1210   17.2760   14.9870 C.2   312  ILE312      0.2260
    122  O         37.8060   18.0600   15.6600 O.2   312  ILE312     -0.2867
    123  CB        35.0720   17.3260   16.4230 C.3   312  ILE312      0.0252
    124  CG1       35.2080   15.8960   16.9570 C.3   312  ILE312      0.0019
    125  CG2       33.6370   17.8560   16.5050 C.3   312  ILE312      0.0019
    126  CD1       34.7790   15.7450   18.4090 C.3   312  ILE312      0.0001
@<TRIPOS>BOND
     1   119   120    1
     2   120   121    1
     3   120   123    1
     4   121   122    2
     5   123   125    1
     6   123   124    1
     7   106   107    1
     8   124   126    1
     9   107   108    1
    10   107   110    1
    11   108   109    2
    12   113   114    1
    13   111   110    1
    14   115   114    1
    15   115   116    2
    16   110   112    1
    17   114   117    1
    18   118   117    1
    19    48    49    1
    20    48    47    1
    21    98    97    2
    22    33    32    2
    23    46    47    1
    24    46    45    1
    25   101   100    1
    26   101   102    1
    27   100    99    1
    28    97    96    1
    29    32    31    1
    30    77    78    1
    31    84    86   ar
    32    84    82   ar
    33    42    41    1
    34    42    45    1
    35    42    43    1
    36   104   103    1
    37    86    87   ar
    38   102   103    2
    39    78    81    1
    40    78    79    1
    41    99    96    1
    42    96    95    1
    43    31    34    1
    44    31    30    1
    45   103   105    1
    46    50    43   am
    47    50    51    1
    48    81    82    1
    49    54    51    1
    50    82    83   ar
    51    43    44    2
    52    34    35    1
    53    87    85   ar
    54    79    80    2
    55    51    52    1
    56    35    36    1
    57    53    52    2
    58    83    85   ar
    59    52    55   am
    60    36    37    1
    61    29    28   ar
    62    29    27   ar
    63    37    38    2
    64    28    26   ar
    65    55    56    1
    66    27    25   ar
    67    88    89    1
    68    88    94    1
    69    67    66   ar
    70    38    40    1
    71    38    39    1
    72    19    18    2
    73    56    57    1
    74    56    59    1
    75    26    23   ar
    76    89    90    1
    77    89    92    1
    78    94    93    1
    79    91    90    2
    80    25    23   ar
    81    25    24   ar
    82    57    58    2
    83    57    60   am
    84    23    21   ar
    85    66    68   ar
    86    66    65    1
    87    18    17    1
    88    64    65    1
    89    64    61    1
    90    24    22   ar
    91    60    61    1
    92    93    92    1
    93    61    62    1
    94    21    22   ar
    95    21    20    1
    96     7     6    1
    97    17    20    1
    98    17    16    1
    99     6     8    1
   100     6     5    1
   101    63    62    2
   102    14    15    1
   103    14    13    1
   104    62    69   am
   105    15     9    1
   106     5     2    1
   107     2     1    1
   108     2     3    1
   109    13    10    1
   110    69    70    1
   111     9     3   am
   112     9    10    1
   113    76    74    1
   114    12    11    2
   115     3     4    2
   116    10    11    1
   117    74    75    1
   118    74    73    1
   119    70    73    1
   120    70    71    1
   121    71    72    2
