@<TRIPOS>MOLECULE
tmp/5o0jA00.pdb
 183 174 0 0 0
SMALL
GASTEIGER

@<TRIPOS>ATOM
      1  N         33.3580   26.0790   23.1060 N.3    85  ALA85      -0.1245
      2  CA        32.4590   26.8330   23.9800 C.3    85  ALA85       0.1562
      3  C         31.7200   25.8690   24.9030 C.2    85  ALA85       0.2260
      4  O         30.7870   25.1800   24.4830 O.2    85  ALA85      -0.2867
      5  CB        31.4810   27.6600   23.1530 C.3    85  ALA85       0.0290
      6  N         39.6950   31.6180   18.9710 N.3   194  GLU194     -0.1231
      7  CA        38.9560   32.4930   19.8780 C.3   194  GLU194      0.1699
      8  C         37.6310   31.8480   20.2580 C.2   194  GLU194      0.2592
      9  O         36.9590   31.2440   19.4200 O.2   194  GLU194     -0.2718
     10  CB        38.7120   33.8610   19.2370 C.3   194  GLU194      0.0402
     11  CG        37.9340   33.8500   17.9200 C.3   194  GLU194      0.1161
     12  CD        38.8410   33.7530   16.6850 C.2   194  GLU194      0.3649
     13  OE1       39.7270   32.8800   16.6490 O.co2 194  GLU194     -0.2457
     14  OE2       38.6680   34.5660   15.7540 O.co2 194  GLU194     -0.2457
     15  N         37.2520   31.9760   21.5320 N.am  195  ASN195     -0.1960
     16  CA        36.0010   31.3900   22.0010 C.3   195  ASN195      0.1819
     17  C         35.6620   31.8760   23.4120 C.2   195  ASN195      0.2621
     18  O         36.2090   32.8880   23.8760 O.2   195  ASN195     -0.2715
     19  CB        36.0620   29.8550   21.9590 C.3   195  ASN195      0.1195
     20  CG        34.7490   29.2370   21.4930 C.2   195  ASN195      0.2630
     21  OD1       33.6720   29.5970   21.9820 O.2   195  ASN195     -0.2716
     22  ND2       34.8280   28.3320   20.5240 N.am  195  ASN195     -0.0877
     23  N         34.7590   31.1780   24.1030 N.am  196  ARG196     -0.1977
     24  CA        34.3950   31.6010   25.4510 C.3   196  ARG196      0.1597
     25  C         33.8640   30.4210   26.2510 C.2   196  ARG196      0.2287
     26  O         33.4470   29.4050   25.6950 O.2   196  ARG196     -0.2864
     27  CB        33.3480   32.7350   25.4650 C.3   196  ARG196      0.0334
     28  CG        31.9310   32.3300   25.0880 C.3   196  ARG196      0.0492
     29  CD        31.8090   32.2820   23.6120 C.3   196  ARG196      0.2205
     30  NE        30.6640   31.5250   23.1480 N.pl3 196  ARG196     -0.0865
     31  CZ        30.5180   31.1870   21.8740 C.cat 196  ARG196      0.5346
     32  NH1       31.4400   31.5610   20.9890 N.pl3 196  ARG196      0.1354
     33  NH2       29.4640   30.4890   21.4810 N.pl3 196  ARG196      0.1354
     34  N         26.5290   24.0070   14.6230 N.3   291  ASN291     -0.1225
     35  CA        27.9410   24.1270   14.3090 C.3   291  ASN291      0.1785
     36  C         28.5860   22.7300   14.2720 C.2   291  ASN291      0.2597
     37  O         27.9050   21.6970   14.2990 O.2   291  ASN291     -0.2718
     38  CB        28.6240   25.0720   15.3070 C.3   291  ASN291      0.1169
     39  CG        28.6360   24.5340   16.7420 C.2   291  ASN291      0.2627
     40  OD1       28.3930   23.3540   16.9860 O.2   291  ASN291     -0.2716
     41  ND2       28.9520   25.4050   17.6900 N.am  291  ASN291     -0.0877
     42  N         29.9180   22.7080   14.2340 N.am  292  GLU292     -0.1979
     43  CA        30.6310   21.4430   14.0570 C.3   292  GLU292      0.1602
     44  C         30.5340   20.5470   15.2990 C.2   292  GLU292      0.2287
     45  O         30.2710   19.3420   15.1810 O.2   292  GLU292     -0.2864
     46  CB        32.0890   21.7260   13.6510 C.3   292  GLU292      0.0415
     47  CG        32.9930   22.4210   14.6880 C.3   292  GLU292      0.1163
     48  CD        32.4550   23.7710   15.1560 C.2   292  GLU292      0.3649
     49  OE1       32.2800   24.6950   14.3240 O.co2 292  GLU292     -0.2457
     50  OE2       32.1790   23.8820   16.3730 O.co2 292  GLU292     -0.2457
     51  N         28.2560   20.6310   17.6610 N.3   294  GLU294     -0.1245
     52  CA        26.8670   20.2100   17.8200 C.3   294  GLU294      0.1567
     53  C         26.5090   19.1200   16.8140 C.2   294  GLU294      0.2260
     54  O         25.8800   18.1180   17.1690 O.2   294  GLU294     -0.2867
     55  CB        25.9380   21.4220   17.6880 C.3   294  GLU294      0.0388
     56  CG        26.0760   22.3970   18.8580 C.3   294  GLU294      0.1160
     57  CD        25.7780   23.8400   18.4770 C.2   294  GLU294      0.3649
     58  OE1       25.2770   24.0830   17.3600 O.co2 294  GLU294     -0.2457
     59  OE2       26.0420   24.7340   19.3060 O.co2 294  GLU294     -0.2457
     60  N         27.2110   26.1380   10.3470 N.3   341  HIS341     -0.1226
     61  CA        28.2390   27.1720   10.3630 C.3   341  HIS341      0.1752
     62  C         29.4270   26.6610   11.1600 C.2   341  HIS341      0.2597
     63  O         29.2630   25.9410   12.1520 O.2   341  HIS341     -0.2718
     64  CB        27.7160   28.5160   10.9640 C.3   341  HIS341      0.0759
     65  CG        27.2900   28.4180   12.3980 C.ar  341  HIS341      0.0818
     66  ND1       25.9860   28.1640   12.7750 N.ar  341  HIS341     -0.2268
     67  CD2       28.0000   28.5190   13.5480 C.ar  341  HIS341      0.1154
     68  CE1       25.9140   28.1060   14.0950 C.ar  341  HIS341      0.1986
     69  NE2       27.1200   28.3280   14.5890 N.ar  341  HIS341     -0.2212
     70  N         30.6270   26.9980   10.7010 N.am  342  THR342     -0.1939
     71  CA        31.8280   26.6500   11.4490 C.3   342  THR342      0.2028
     72  C         32.8780   27.7070   11.1500 C.2   342  THR342      0.2642
     73  O         32.6180   28.6760   10.4300 O.2   342  THR342     -0.2714
     74  CB        32.3220   25.2380   11.1040 C.3   342  THR342      0.1808
     75  OG1       33.3040   24.8370   12.0620 O.3   342  THR342     -0.2208
     76  CG2       32.9340   25.1950    9.7080 C.3   342  THR342      0.0379
     77  N         34.0560   27.5320   11.7480 N.am  343  TYR343     -0.1959
     78  CA        35.1820   28.4200   11.4970 C.3   343  TYR343      0.1771
     79  C         35.6470   28.2100   10.0590 C.2   343  TYR343      0.2620
     80  O         36.1700   27.1400    9.7230 O.2   343  TYR343     -0.2715
     81  CB        36.3150   28.1400   12.4840 C.3   343  TYR343      0.0574
     82  CG        35.9970   28.4210   13.9410 C.ar  343  TYR343     -0.0198
     83  CD1       35.2420   27.5280   14.7000 C.ar  343  TYR343     -0.0009
     84  CD2       36.4810   29.5640   14.5690 C.ar  343  TYR343     -0.0009
     85  CE1       34.9580   27.7810   16.0320 C.ar  343  TYR343      0.0417
     86  CE2       36.2080   29.8200   15.9060 C.ar  343  TYR343      0.0417
     87  CZ        35.4460   28.9260   16.6290 C.ar  343  TYR343      0.1957
     88  OH        35.1760   29.1810   17.9550 O.3   343  TYR343     -0.2866
     89  N         35.4090   29.2060    9.2010 N.am  344  GLY344     -0.1954
     90  CA        35.9140   29.2190    7.8410 C.3   344  GLY344      0.1869
     91  C         34.8570   29.1240    6.7520 C.2   344  GLY344      0.2309
     92  O         35.1260   29.5450    5.6220 O.2   344  GLY344     -0.2863
     93  N         30.2600   28.2750    5.8570 N.3   346  TYR346     -0.1241
     94  CA        28.9390   27.7400    6.1620 C.3   346  TYR346      0.1605
     95  C         28.5370   26.7520    5.0780 C.2   346  TYR346      0.2264
     96  O         29.0120   26.8140    3.9420 O.2   346  TYR346     -0.2867
     97  CB        27.8430   28.8240    6.2480 C.3   346  TYR346      0.0534
     98  CG        28.1640   30.0560    7.0720 C.ar  346  TYR346     -0.0201
     99  CD1       29.1150   30.0210    8.0890 C.ar  346  TYR346     -0.0009
    100  CD2       27.5020   31.2620    6.8240 C.ar  346  TYR346     -0.0009
    101  CE1       29.4160   31.1660    8.8300 C.ar  346  TYR346      0.0417
    102  CE2       27.8080   32.4190    7.5470 C.ar  346  TYR346      0.0417
    103  CZ        28.7680   32.3610    8.5400 C.ar  346  TYR346      0.1957
    104  OH        29.0790   33.4920    9.2460 O.3   346  TYR346     -0.2866
    105  N         27.9360   38.3770   10.6200 N.3   368  ALA368     -0.1231
    106  CA        28.8970   37.7620   11.5390 C.3   368  ALA368      0.1694
    107  C         30.2000   38.5490   11.6070 C.2   368  ALA368      0.2591
    108  O         30.7410   38.7840   12.6940 O.2   368  ALA368     -0.2718
    109  CB        29.1890   36.3240   11.1210 C.3   368  ALA368      0.0304
    110  N         30.7420   38.9260   10.4480 N.am  369  ALA369     -0.1980
    111  CA        31.9990   39.6600   10.4270 C.3   369  ALA369      0.1597
    112  C         31.8620   41.0030   11.1360 C.2   369  ALA369      0.2287
    113  O         32.7720   41.4270   11.8560 O.2   369  ALA369     -0.2864
    114  CB        32.4630   39.8500    8.9840 C.3   369  ALA369      0.0319
    115  N         31.7240   40.3570   14.8900 N.3   372  ALA372     -0.1245
    116  CA        33.0500   40.0080   15.3950 C.3   372  ALA372      0.1562
    117  C         33.9340   41.2410   15.5220 C.2   372  ALA372      0.2260
    118  O         34.6800   41.3910   16.5000 O.2   372  ALA372     -0.2867
    119  CB        33.7000   38.9740   14.4710 C.3   372  ALA372      0.0290
    120  N         33.7740   32.1490    4.6430 N.3   425  THR425     -0.1203
    121  CA        33.4740   33.2840    5.5100 C.3   425  THR425      0.1994
    122  C         34.5280   34.3810    5.3910 C.2   425  THR425      0.2618
    123  O         35.6610   34.1610    4.9610 O.2   425  THR425     -0.2717
    124  CB        33.3570   32.8720    6.9840 C.3   425  THR425      0.1784
    125  OG1       34.5560   32.2250    7.4340 O.3   425  THR425     -0.2211
    126  CG2       32.1820   31.9440    7.1830 C.3   425  THR425      0.0376
    127  N         34.1190   35.5850    5.7750 N.am  426  LYS426     -0.1965
    128  CA        35.0310   36.7030    5.9620 C.3   426  LYS426      0.1728
    129  C         35.4540   36.7190    7.4290 C.2   426  LYS426      0.2616
    130  O         34.6180   36.9230    8.3230 O.2   426  LYS426     -0.2715
    131  CB        34.3450   38.0080    5.5600 C.3   426  LYS426      0.0311
    132  CG        34.0830   38.1440    4.0390 C.3   426  LYS426      0.0038
    133  CD        33.3040   39.4280    3.6950 C.3   426  LYS426      0.0206
    134  CE        33.5240   39.8540    2.2310 C.3   426  LYS426      0.1093
    135  NZ        34.8360   40.5180    2.0410 N.3   426  LYS426     -0.1314
    136  N         36.7430   36.5210    7.6840 N.am  427  VAL427     -0.1963
    137  CA        37.2380   36.2660    9.0310 C.3   427  VAL427      0.1727
    138  C         37.9450   37.5100    9.5590 C.2   427  VAL427      0.2616
    139  O         38.9110   37.9930    8.9520 O.2   427  VAL427     -0.2715
    140  CB        38.1600   35.0400    9.0570 C.3   427  VAL427      0.0290
    141  CG1       38.6720   34.7990   10.4660 C.3   427  VAL427      0.0023
    142  CG2       37.4020   33.8170    8.5350 C.3   427  VAL427      0.0023
    143  N         37.4710   38.0160   10.6990 N.am  428  VAL428     -0.1977
    144  CA        38.1040   39.1510   11.3630 C.3   428  VAL428      0.1596
    145  C         39.3510   38.6570   12.0800 C.2   428  VAL428      0.2287
    146  O         39.3110   37.6560   12.8080 O.2   428  VAL428     -0.2864
    147  CB        37.1260   39.8340   12.3350 C.3   428  VAL428      0.0276
    148  CG1       37.8450   40.8850   13.1680 C.3   428  VAL428      0.0022
    149  CG2       35.9840   40.4640   11.5550 C.3   428  VAL428      0.0022
    150  N         39.0050   39.7310   16.4830 N.3   431  PRO431     -0.2116
    151  CA        37.6480   40.0880   16.8960 C.3   431  PRO431      0.1372
    152  C         37.6250   40.5830   18.3330 C.2   431  PRO431      0.2244
    153  O         38.5250   40.3220   19.1340 O.2   431  PRO431     -0.2868
    154  CB        36.8860   38.7690   16.7540 C.3   431  PRO431      0.0268
    155  CG        37.9320   37.7480   17.0230 C.3   431  PRO431      0.0207
    156  CD        39.1470   38.2690   16.3330 C.3   431  PRO431      0.0892
    157  N         33.3140   36.7570   20.8660 N.3   434  THR434     -0.1218
    158  CA        32.6240   35.7710   20.0460 C.3   434  THR434      0.1862
    159  C         31.1790   35.5040   20.4530 C.2   434  THR434      0.2287
    160  O         30.4140   35.0020   19.6180 O.2   434  THR434     -0.2866
    161  CB        33.3790   34.4300   20.0580 C.3   434  THR434      0.1770
    162  OG1       33.4570   33.9210   21.3950 O.3   434  THR434     -0.2211
    163  CG2       34.7820   34.6080   19.5090 C.3   434  THR434      0.0375
    164  N         27.8040   35.5690   17.9660 N.3   437  ILE437     -0.1231
    165  CA        27.9950   35.4990   16.5190 C.3   437  ILE437      0.1692
    166  C         27.1650   34.3650   15.9210 C.2   437  ILE437      0.2592
    167  O         26.5400   34.5310   14.8640 O.2   437  ILE437     -0.2718
    168  CB        29.4820   35.3620   16.1400 C.3   437  ILE437      0.0266
    169  CG1       30.3130   36.5300   16.6980 C.3   437  ILE437      0.0019
    170  CG2       29.6180   35.3540   14.5920 C.3   437  ILE437      0.0020
    171  CD1       31.8080   36.3800   16.4360 C.3   437  ILE437      0.0001
    172  N         27.1510   33.1960   16.5720 N.am  438  GLY438     -0.1957
    173  CA        26.3170   32.1010   16.0820 C.3   438  GLY438      0.1869
    174  C         24.8620   32.5020   15.9030 C.2   438  GLY438      0.2309
    175  O         24.2450   32.2220   14.8690 O.2   438  GLY438     -0.2863
    176  N         24.4780   34.7200   12.8870 N.3   441  ILE441     -0.1245
    177  CA        24.5400   33.9300   11.6600 C.3   441  ILE441      0.1561
    178  C         23.2020   33.2380   11.3880 C.2   441  ILE441      0.2260
    179  O         22.5920   33.4020   10.3190 O.2   441  ILE441     -0.2867
    180  CB        25.6920   32.9110   11.7580 C.3   441  ILE441      0.0252
    181  CG1       27.0550   33.6290   11.7310 C.3   441  ILE441      0.0019
    182  CG2       25.5620   31.8110   10.6770 C.3   441  ILE441      0.0019
    183  CD1       28.2510   32.7850   12.2170 C.3   441  ILE441      0.0001
@<TRIPOS>BOND
     1   135   134    1
     2   134   133    1
     3   133   132    1
     4    96    95    2
     5   132   131    1
     6   120   121    1
     7   123   122    2
     8    95    94    1
     9   122   121    1
    10   122   127   am
    11   121   124    1
    12   131   128    1
    13    92    91    2
    14   127   128    1
    15    93    94    1
    16   128   129    1
    17    94    97    1
    18    97    98    1
    19    91    90    1
    20   100    98   ar
    21   100   102   ar
    22   124   126    1
    23   124   125    1
    24    98    99   ar
    25   129   136   am
    26   129   130    2
    27   102   103   ar
    28   136   137    1
    29    90    89    1
    30    99   101   ar
    31   142   140    1
    32   103   101   ar
    33   103   104    1
    34   139   138    2
    35   114   111    1
    36   137   140    1
    37   137   138    1
    38   140   141    1
    39    89    79   am
    40   138   143   am
    41    76    74    1
    42    80    79    2
    43    79    78    1
    44   179   178    2
    45    60    61    1
    46    61    64    1
    47    61    62    1
    48   111   110    1
    49   111   112    1
    50    73    72    2
    51   110   107   am
    52   105   106    1
    53   182   180    1
    54   143   144    1
    55    70    62   am
    56    70    71    1
    57    64    65    1
    58    74    71    1
    59    74    75    1
    60   109   106    1
    61   112   113    2
    62    72    71    1
    63    72    77   am
    64    62    63    2
    65   144   145    1
    66   144   147    1
    67   178   177    1
    68    78    77    1
    69    78    81    1
    70   106   107    1
    71   149   147    1
    72   107   108    2
    73   177   180    1
    74   177   176    1
    75   181   180    1
    76   181   183    1
    77   145   146    2
    78   147   148    1
    79    65    66   ar
    80    65    67   ar
    81    81    82    1
    82    66    68   ar
    83    67    69   ar
    84    46    43    1
    85    46    47    1
    86    82    84   ar
    87    82    83   ar
    88    43    42    1
    89    43    44    1
    90    68    69   ar
    91    42    36   am
    92    36    37    2
    93    36    35    1
    94    35    34    1
    95    35    38    1
    96    49    48   ar
    97   119   116    1
    98    84    86   ar
    99   170   168    1
   100    47    48    1
   101    83    85   ar
   102   167   166    2
   103   175   174    2
   104   115   116    1
   105    48    50   ar
   106    45    44    2
   107    38    39    1
   108   116   117    1
   109   117   118    2
   110    14    12   ar
   111   174   173    1
   112    86    87   ar
   113   166   165    1
   114   166   172   am
   115    85    87   ar
   116   173   172    1
   117   168   165    1
   118   168   169    1
   119   156   150    1
   120   156   155    1
   121   171   169    1
   122   150   151    1
   123   165   164    1
   124    87    88    1
   125    13    12   ar
   126    12    11    1
   127    39    40    2
   128    39    41   am
   129   154   151    1
   130   154   155    1
   131    53    54    2
   132    53    52    1
   133   151   152    1
   134    58    57   ar
   135    51    52    1
   136    55    52    1
   137    55    56    1
   138    11    10    1
   139   152   153    2
   140    57    56    1
   141    57    59   ar
   142     6     7    1
   143    10     7    1
   144     9     8    2
   145   163   161    1
   146   160   159    2
   147     7     8    1
   148   158   161    1
   149   158   159    1
   150   158   157    1
   151   161   162    1
   152     8    15   am
   153    22    20   am
   154    32    31    1
   155    33    31    1
   156    20    19    1
   157    20    21    2
   158    15    16    1
   159    31    30    2
   160    19    16    1
   161    16    17    1
   162     1     2    1
   163    30    29    1
   164     5     2    1
   165    17    18    2
   166    17    23   am
   167    29    28    1
   168     2     3    1
   169    23    24    1
   170     4     3    2
   171    28    27    1
   172    24    27    1
   173    24    25    1
   174    26    25    2
