@<TRIPOS>MOLECULE
tmp/5o0jA02.pdb
 129 117 0 0 0
SMALL
GASTEIGER

@<TRIPOS>ATOM
      1  N         14.6660   31.5900   25.7900 N.3    29  ASN29      -0.1240
      2  CA        15.6730   32.0280   26.7610 C.3    29  ASN29       0.1653
      3  C         16.1850   33.4360   26.4570 C.2    29  ASN29       0.2266
      4  O         16.7830   33.6730   25.4030 O.2    29  ASN29      -0.2867
      5  CB        16.8400   31.0380   26.8050 C.3    29  ASN29       0.1155
      6  CG        17.4180   30.7630   25.4190 C.2    29  ASN29       0.2627
      7  OD1       16.6750   30.6280   24.4390 O.2    29  ASN29      -0.2716
      8  ND2       18.7430   30.6920   25.3310 N.am   29  ASN29      -0.0877
      9  N         18.4460   36.4620   28.7530 N.3    31  ASN31      -0.1240
     10  CA        19.1500   36.7090   30.0070 C.3    31  ASN31       0.1653
     11  C         20.0490   37.9290   29.8340 C.2    31  ASN31       0.2266
     12  O         20.0490   38.5740   28.7890 O.2    31  ASN31      -0.2867
     13  CB        19.9440   35.4680   30.4530 C.3    31  ASN31       0.1155
     14  CG        20.9510   35.0030   29.4130 C.2    31  ASN31       0.2627
     15  OD1       20.6470   34.1440   28.5820 O.2    31  ASN31      -0.2716
     16  ND2       22.1640   35.5480   29.4710 N.am   31  ASN31      -0.0877
     17  N         24.0600   39.0250   29.8710 N.3    33  ASP33      -0.1239
     18  CA        25.4140   38.4900   29.7710 C.3    33  ASP33       0.1674
     19  C         26.3920   39.4660   30.4230 C.2    33  ASP33       0.2266
     20  O         26.4380   40.6480   30.0590 O.2    33  ASP33      -0.2867
     21  CB        25.8320   38.2480   28.3110 C.3    33  ASP33       0.1410
     22  CG        25.3340   36.9150   27.7370 C.2    33  ASP33       0.3668
     23  OD1       24.6960   36.1020   28.4520 O.co2  33  ASP33      -0.2456
     24  OD2       25.6160   36.6650   26.5360 O.co2  33  ASP33      -0.2456
     25  N         29.2580   25.5570   28.2760 N.3    87  GLU87      -0.1245
     26  CA        28.2630   26.3220   29.0190 C.3    87  GLU87       0.1567
     27  C         27.7260   25.4000   30.0990 C.2    87  GLU87       0.2260
     28  O         27.0870   24.3960   29.7870 O.2    87  GLU87      -0.2867
     29  CB        27.1380   26.8190   28.1060 C.3    87  GLU87       0.0388
     30  CG        25.9780   27.4510   28.8680 C.3    87  GLU87       0.1160
     31  CD        25.0100   28.2360   27.9900 C.2    87  GLU87       0.3649
     32  OE1       25.3020   28.4800   26.7930 O.co2  87  GLU87      -0.2457
     33  OE2       23.9550   28.6300   28.5190 O.co2  87  GLU87      -0.2457
     34  N         21.6940   39.1250   26.5480 N.3   110  GLY110     -0.1210
     35  CA        22.1050   37.7420   26.4400 C.3   110  GLY110      0.1956
     36  C         20.9460   36.8250   26.0800 C.2   110  GLY110      0.2612
     37  O         19.7690   37.1930   26.1700 O.2   110  GLY110     -0.2717
     38  N         21.3130   35.5990   25.7010 N.am  111  GLY111     -0.1942
     39  CA        20.3800   34.5680   25.2910 C.3   111  GLY111      0.2014
     40  C         19.9830   34.6610   23.8310 C.2   111  GLY111      0.2638
     41  O         19.9540   35.7600   23.2640 O.2   111  GLY111     -0.2714
     42  N         19.6740   33.5170   23.2060 N.am  112  GLN112     -0.1977
     43  CA        19.2600   33.5310   21.8010 C.3   112  GLN112      0.1601
     44  C         18.1090   34.4980   21.5610 C.2   112  GLN112      0.2287
     45  O         18.1100   35.2330   20.5690 O.2   112  GLN112     -0.2864
     46  CB        18.8460   32.1430   21.3090 C.3   112  GLN112      0.0394
     47  CG        19.9430   31.1730   20.8520 C.3   112  GLN112      0.0908
     48  CD        20.9140   30.7980   21.9420 C.2   112  GLN112      0.2608
     49  OE1       20.5200   30.4430   23.0560 O.2   112  GLN112     -0.2717
     50  NE2       22.1940   30.8080   21.6110 N.am  112  GLN112     -0.0878
     51  N         19.4080   38.3170   21.9130 N.3   115  ILE115     -0.1245
     52  CA        20.3420   38.7000   20.8660 C.3   115  ILE115      0.1561
     53  C         19.6300   38.7540   19.5230 C.2   115  ILE115      0.2260
     54  O         19.7990   39.7140   18.7560 O.2   115  ILE115     -0.2867
     55  CB        21.5470   37.7470   20.8580 C.3   115  ILE115      0.0252
     56  CG1       22.3520   37.9710   22.1640 C.3   115  ILE115      0.0019
     57  CG2       22.4080   37.9620   19.5860 C.3   115  ILE115      0.0019
     58  CD1       23.3830   36.8980   22.4570 C.3   115  ILE115      0.0001
     59  N         24.2850   35.4480   33.2090 N.3   175  HIS175     -0.1241
     60  CA        25.2200   34.4640   32.6790 C.3   175  HIS175      0.1621
     61  C         26.5720   35.1420   32.5650 C.2   175  HIS175      0.2264
     62  O         26.6600   36.2440   32.0220 O.2   175  HIS175     -0.2867
     63  CB        24.7870   33.9460   31.3030 C.3   175  HIS175      0.0745
     64  CG        23.5600   33.0860   31.3480 C.ar  175  HIS175      0.0817
     65  ND1       23.1310   32.3300   30.2760 N.ar  175  HIS175     -0.2268
     66  CD2       22.6490   32.8940   32.3310 C.ar  175  HIS175      0.1154
     67  CE1       22.0190   31.6930   30.6060 C.ar  175  HIS175      0.1986
     68  NE2       21.7020   32.0250   31.8460 N.ar  175  HIS175     -0.2212
     69  N         30.2300   35.3730   30.9480 N.3   177  ILE177     -0.1245
     70  CA        30.8560   35.0280   29.6780 C.3   177  ILE177      0.1561
     71  C         32.3460   35.3020   29.8180 C.2   177  ILE177      0.2260
     72  O         32.7520   36.4510   30.0120 O.2   177  ILE177     -0.2867
     73  CB        30.2560   35.8450   28.5200 C.3   177  ILE177      0.0252
     74  CG1       28.7250   35.8880   28.6220 C.3   177  ILE177      0.0019
     75  CG2       30.7160   35.2980   27.1740 C.3   177  ILE177      0.0019
     76  CD1       28.0490   34.5270   28.5240 C.3   177  ILE177      0.0001
     77  N         34.7590   31.1780   24.1030 N.3   196  ARG196     -0.1245
     78  CA        34.3950   31.6010   25.4510 C.3   196  ARG196      0.1563
     79  C         33.8640   30.4210   26.2510 C.2   196  ARG196      0.2260
     80  O         33.4470   29.4050   25.6950 O.2   196  ARG196     -0.2867
     81  CB        33.3480   32.7350   25.4650 C.3   196  ARG196      0.0307
     82  CG        31.9310   32.3300   25.0880 C.3   196  ARG196      0.0489
     83  CD        31.8090   32.2820   23.6120 C.3   196  ARG196      0.2205
     84  NE        30.6640   31.5250   23.1480 N.pl3 196  ARG196     -0.0865
     85  CZ        30.5180   31.1870   21.8740 C.cat 196  ARG196      0.5346
     86  NH1       31.4400   31.5610   20.9890 N.pl3 196  ARG196      0.1354
     87  NH2       29.4640   30.4890   21.4810 N.pl3 196  ARG196      0.1354
     88  N         30.8910   29.7620   29.2900 N.3   198  ILE198     -0.1245
     89  CA        29.6930   30.4310   29.8170 C.3   198  ILE198      0.1561
     90  C         29.2910   29.7290   31.1050 C.2   198  ILE198      0.2260
     91  O         29.0220   28.5180   31.0970 O.2   198  ILE198     -0.2867
     92  CB        28.5300   30.4270   28.8050 C.3   198  ILE198      0.0252
     93  CG1       28.9200   31.1550   27.5080 C.3   198  ILE198      0.0019
     94  CG2       27.2500   31.0370   29.4420 C.3   198  ILE198      0.0019
     95  CD1       27.7410   31.4170   26.5450 C.3   198  ILE198      0.0001
     96  N         18.9760   23.5030   25.5090 N.3   234  HIS234     -0.1241
     97  CA        20.2530   22.8620   25.8200 C.3   234  HIS234      0.1621
     98  C         20.5470   22.5730   27.2990 C.2   234  HIS234      0.2264
     99  O         21.3010   21.6160   27.5480 O.2   234  HIS234     -0.2867
    100  CB        21.4030   23.6980   25.2150 C.3   234  HIS234      0.0745
    101  CG        21.5320   25.0670   25.8070 C.ar  234  HIS234      0.0817
    102  ND1       20.7360   26.1190   25.4110 N.ar  234  HIS234     -0.2268
    103  CD2       22.3450   25.5540   26.7770 C.ar  234  HIS234      0.1154
    104  CE1       21.0550   27.1970   26.1050 C.ar  234  HIS234      0.1986
    105  NE2       22.0240   26.8800   26.9460 N.ar  234  HIS234     -0.2212
    106  N         22.0560   24.2500   20.4420 N.3   267  ALA267     -0.1245
    107  CA        23.2350   24.5510   21.2310 C.3   267  ALA267      0.1562
    108  C         23.7460   23.2260   21.7590 C.2   267  ALA267      0.2260
    109  O         23.0140   22.2330   21.7620 O.2   267  ALA267     -0.2867
    110  CB        22.9270   25.5240   22.3740 C.3   267  ALA267      0.0290
    111  N         30.7780   35.8320   21.6830 N.3   435  VAL435     -0.1231
    112  CA        29.4240   35.5020   22.1200 C.3   435  VAL435      0.1692
    113  C         28.4080   36.1930   21.2160 C.2   435  VAL435      0.2592
    114  O         28.5470   37.3750   20.8540 O.2   435  VAL435     -0.2718
    115  CB        29.2340   35.8530   23.6070 C.3   435  VAL435      0.0266
    116  CG1       29.3630   37.3510   23.8800 C.3   435  VAL435      0.0020
    117  CG2       27.8920   35.3170   24.1080 C.3   435  VAL435      0.0020
    118  N         27.4180   35.4290   20.7750 N.am  436  GLY436     -0.1957
    119  CA        26.3740   35.9750   19.9390 C.3   436  GLY436      0.1869
    120  C         26.5910   35.8840   18.4440 C.2   436  GLY436      0.2309
    121  O         25.6380   36.1190   17.6960 O.2   436  GLY436     -0.2863
    122  N         24.2860   33.1440   16.9240 N.3   439  ASP439     -0.1239
    123  CA        22.9040   33.6220   16.8320 C.3   439  ASP439      0.1674
    124  C         22.7220   34.5840   15.6680 C.2   439  ASP439      0.2266
    125  O         21.7020   34.5450   14.9690 O.2   439  ASP439     -0.2867
    126  CB        22.4940   34.3230   18.1230 C.3   439  ASP439      0.1410
    127  CG        22.5270   33.4120   19.3330 C.2   439  ASP439      0.3668
    128  OD1       22.6290   32.1700   19.1820 O.co2 439  ASP439     -0.2456
    129  OD2       22.4550   33.9700   20.4430 O.co2 439  ASP439     -0.2456
@<TRIPOS>BOND
     1   125   124    2
     2   124   123    1
     3   123   122    1
     4   123   126    1
     5   121   120    2
     6   126   127    1
     7   120   119    1
     8    54    53    2
     9   128   127   ar
    10   127   129   ar
    11    53    52    1
    12    57    55    1
    13   119   118    1
    14   106   107    1
    15    45    44    2
    16   118   113   am
    17    47    46    1
    18    47    48    1
    19   114   113    2
    20    55    52    1
    21    55    56    1
    22    52    51    1
    23    86    85    1
    24   113   112    1
    25   107   108    1
    26   107   110    1
    27    46    43    1
    28    87    85    1
    29    44    43    1
    30    50    48   am
    31   111   112    1
    32   108   109    2
    33    43    42    1
    34    85    84    2
    35    48    49    2
    36   112   115    1
    37    56    58    1
    38    84    83    1
    39    42    40   am
    40    41    40    2
    41   115   116    1
    42   115   117    1
    43    83    82    1
    44    40    39    1
    45    77    78    1
    46     7     6    2
    47    82    81    1
    48   100   101    1
    49   100    97    1
    50    39    38    1
    51     8     6   am
    52     4     3    2
    53   102   101   ar
    54   102   104   ar
    55     6     5    1
    56    78    81    1
    57    78    79    1
    58    96    97    1
    59    80    79    2
    60    38    36   am
    61     1     2    1
    62   101   103   ar
    63    97    98    1
    64    36    37    2
    65    36    35    1
    66   104   105   ar
    67    35    34    1
    68     3     2    1
    69    24    22   ar
    70    95    93    1
    71     2     5    1
    72   103   105   ar
    73    32    31   ar
    74    75    73    1
    75    98    99    2
    76    93    92    1
    77    22    21    1
    78    22    23   ar
    79    31    33   ar
    80    31    30    1
    81    29    30    1
    82    29    26    1
    83    25    26    1
    84    21    18    1
    85    73    74    1
    86    73    70    1
    87    76    74    1
    88    15    14    2
    89     9    10    1
    90    12    11    2
    91    92    94    1
    92    92    89    1
    93    26    27    1
    94    88    89    1
    95    14    16   am
    96    14    13    1
    97    70    71    1
    98    70    69    1
    99    18    17    1
   100    18    19    1
   101    28    27    2
   102    89    90    1
   103    71    72    2
   104    11    10    1
   105    10    13    1
   106    20    19    2
   107    65    67   ar
   108    65    64   ar
   109    67    68   ar
   110    91    90    2
   111    63    64    1
   112    63    60    1
   113    64    66   ar
   114    68    66   ar
   115    62    61    2
   116    61    60    1
   117    60    59    1
