@<TRIPOS>MOLECULE
tmp/5o0sA00.pdb
 191 186 0 0 0
SMALL
GASTEIGER

@<TRIPOS>ATOM
      1  N         57.0710   75.8950   72.1520 N.3    32  TYR32      -0.1241
      2  CA        55.9220   75.0190   72.4300 C.3    32  TYR32       0.1605
      3  C         56.2900   73.8000   73.3100 C.2    32  TYR32       0.2264
      4  O         57.4210   73.3680   73.2690 O.2    32  TYR32      -0.2867
      5  CB        55.2700   74.5750   71.1030 C.3    32  TYR32       0.0534
      6  CG        56.1650   73.8340   70.0490 C.ar   32  TYR32      -0.0201
      7  CD1       56.2740   72.4360   70.0800 C.ar   32  TYR32      -0.0009
      8  CD2       56.8350   74.5300   68.9870 C.ar   32  TYR32      -0.0009
      9  CE1       57.0020   71.7420   69.1240 C.ar   32  TYR32       0.0417
     10  CE2       57.6180   73.8320   68.0480 C.ar   32  TYR32       0.0417
     11  CZ        57.7290   72.4190   68.1310 C.ar   32  TYR32       0.1957
     12  OH        58.4540   71.6250   67.2180 O.3    32  TYR32      -0.2866
     13  N         57.7570   58.3400   63.5560 N.3   408  GLU408     -0.1245
     14  CA        58.7100   59.4320   63.3230 C.3   408  GLU408      0.1567
     15  C         59.4150   59.7990   64.6390 C.2   408  GLU408      0.2260
     16  O         60.6120   59.9550   64.7080 O.2   408  GLU408     -0.2867
     17  CB        57.9600   60.6400   62.7470 C.3   408  GLU408      0.0388
     18  CG        58.8190   61.7730   62.3680 C.3   408  GLU408      0.1160
     19  CD        58.0610   62.9800   61.9140 C.2   408  GLU408      0.3649
     20  OE1       56.9580   62.8240   61.3050 O.co2 408  GLU408     -0.2457
     21  OE2       58.6060   64.0750   62.1300 O.co2 408  GLU408     -0.2457
     22  N         55.8360   64.1820   67.3910 N.3   412  TYR412     -0.1241
     23  CA        55.1870   64.2550   66.0720 C.3   412  TYR412      0.1605
     24  C         54.7640   62.8040   65.7850 C.2   412  TYR412      0.2264
     25  O         55.5250   62.0260   65.1830 O.2   412  TYR412     -0.2867
     26  CB        56.1410   64.7970   64.9940 C.3   412  TYR412      0.0534
     27  CG        57.0010   65.9910   65.3740 C.ar  412  TYR412     -0.0201
     28  CD1       56.5340   67.0420   66.1200 C.ar  412  TYR412     -0.0009
     29  CD2       58.2960   66.0680   64.9410 C.ar  412  TYR412     -0.0009
     30  CE1       57.3450   68.1290   66.4330 C.ar  412  TYR412      0.0417
     31  CE2       59.1020   67.1420   65.2350 C.ar  412  TYR412      0.0417
     32  CZ        58.6390   68.1970   65.9630 C.ar  412  TYR412      0.1957
     33  OH        59.4760   69.2620   66.2320 O.3   412  TYR412     -0.2866
     34  N         53.4900   60.2080   64.2650 N.3   414  TYR414     -0.1241
     35  CA        53.0960   59.7930   62.9010 C.3   414  TYR414      0.1605
     36  C         53.8610   58.5390   62.5250 C.2   414  TYR414      0.2264
     37  O         55.0810   58.5100   62.6450 O.2   414  TYR414     -0.2867
     38  CB        53.3700   60.8940   61.8890 C.3   414  TYR414      0.0534
     39  CG        52.7950   62.2140   62.2700 C.ar  414  TYR414     -0.0201
     40  CD1       51.4280   62.3430   62.5380 C.ar  414  TYR414     -0.0009
     41  CD2       53.6080   63.3180   62.4350 C.ar  414  TYR414     -0.0009
     42  CE1       50.9100   63.5640   62.9430 C.ar  414  TYR414      0.0417
     43  CE2       53.1090   64.5240   62.8440 C.ar  414  TYR414      0.0417
     44  CZ        51.7730   64.6550   63.1030 C.ar  414  TYR414      0.1957
     45  OH        51.2830   65.8930   63.4810 O.3   414  TYR414     -0.2866
     46  N         59.0380   61.0960   54.2130 N.3   419  ASP419     -0.1225
     47  CA        60.1430   62.0330   53.9930 C.3   419  ASP419      0.1805
     48  C         61.2980   61.8410   54.9910 C.2   419  ASP419      0.2597
     49  O         62.4430   62.2420   54.7010 O.2   419  ASP419     -0.2718
     50  CB        59.6840   63.4720   53.9700 C.3   419  ASP419      0.1424
     51  CG        58.8510   63.8570   55.2060 C.2   419  ASP419      0.3668
     52  OD1       57.7250   63.2810   55.2860 O.co2 419  ASP419     -0.2456
     53  OD2       59.2920   64.6630   56.0440 O.co2 419  ASP419     -0.2456
     54  N         60.9500   61.2760   56.1620 N.am  420  VAL420     -0.1980
     55  CA        61.9250   60.9290   57.2100 C.3   420  VAL420      0.1595
     56  C         62.4690   59.5230   57.0270 C.2   420  VAL420      0.2287
     57  O         63.6760   59.3090   57.1920 O.2   420  VAL420     -0.2864
     58  CB        61.2720   61.0900   58.6180 C.3   420  VAL420      0.0276
     59  CG1       62.2500   60.7220   59.7280 C.3   420  VAL420      0.0022
     60  CG2       60.7910   62.5100   58.7830 C.3   420  VAL420      0.0022
     61  N         52.1720   61.5390   53.4650 N.3   474  HIS474     -0.1241
     62  CA        53.2170   61.8550   54.4400 C.3   474  HIS474      0.1621
     63  C         53.4610   60.7170   55.4640 C.2   474  HIS474      0.2264
     64  O         54.5830   60.4250   55.8080 O.2   474  HIS474     -0.2867
     65  CB        52.8200   63.1340   55.1490 C.3   474  HIS474      0.0745
     66  CG        53.7280   63.5440   56.2730 C.ar  474  HIS474      0.0817
     67  ND1       53.4860   63.2410   57.5980 N.ar  474  HIS474     -0.2268
     68  CD2       54.8310   64.3470   56.2620 C.ar  474  HIS474      0.1154
     69  CE1       54.4340   63.8160   58.3350 C.ar  474  HIS474      0.1986
     70  NE2       55.2720   64.4880   57.5530 N.ar  474  HIS474     -0.2212
     71  N         49.3100   63.8060   59.8280 N.3   490  TYR490     -0.1241
     72  CA        50.0010   65.0840   59.8980 C.3   490  TYR490      0.1605
     73  C         49.1840   66.1680   59.2280 C.2   490  TYR490      0.2264
     74  O         48.7800   66.0140   58.0680 O.2   490  TYR490     -0.2867
     75  CB        51.3360   64.9610   59.1620 C.3   490  TYR490      0.0534
     76  CG        52.1570   66.1850   58.9750 C.ar  490  TYR490     -0.0201
     77  CD1       52.9010   66.7350   60.0180 C.ar  490  TYR490     -0.0009
     78  CD2       52.3050   66.7620   57.7110 C.ar  490  TYR490     -0.0009
     79  CE1       53.7170   67.8190   59.8250 C.ar  490  TYR490      0.0417
     80  CE2       53.1280   67.8530   57.5150 C.ar  490  TYR490      0.0417
     81  CZ        53.8520   68.3690   58.5810 C.ar  490  TYR490      0.1957
     82  OH        54.6830   69.4340   58.3430 O.3   490  TYR490     -0.2866
     83  N         49.9380   69.7830   60.1840 N.3   492  TRP492     -0.1241
     84  CA        50.5700   71.0650   60.4180 C.3   492  TRP492      0.1605
     85  C         50.8440   71.7430   59.0810 C.2   492  TRP492      0.2264
     86  O         50.7560   72.9750   58.9730 O.2   492  TRP492     -0.2867
     87  CB        51.8560   70.9020   61.2010 C.3   492  TRP492      0.0550
     88  CG        52.4640   72.2270   61.5120 C.ar  492  TRP492      0.0003
     89  CD1       53.5390   72.7720   60.9020 C.ar  492  TRP492      0.0946
     90  CD2       51.9450   73.2300   62.4070 C.ar  492  TRP492      0.0152
     91  NE1       53.7810   74.0250   61.4100 N.ar  492  TRP492     -0.2442
     92  CE2       52.8190   74.3320   62.3340 C.ar  492  TRP492      0.0810
     93  CE3       50.8720   73.2710   63.3140 C.ar  492  TRP492      0.0012
     94  CZ2       52.6400   75.4840   63.0910 C.ar  492  TRP492      0.0191
     95  CZ3       50.6910   74.4290   64.0900 C.ar  492  TRP492      0.0001
     96  CH2       51.5770   75.5180   63.9690 C.ar  492  TRP492      0.0015
     97  N         53.6310   68.3660   48.6160 N.3   498  TRP498     -0.1241
     98  CA        55.0630   68.2270   48.8000 C.3   498  TRP498      0.1605
     99  C         55.7310   67.7080   47.5190 C.2   498  TRP498      0.2264
    100  O         55.1730   66.9020   46.7670 O.2   498  TRP498     -0.2867
    101  CB        55.3940   67.4030   50.0220 C.3   498  TRP498      0.0550
    102  CG        55.1760   68.1260   51.3150 C.ar  498  TRP498      0.0003
    103  CD1       54.3720   69.2020   51.5380 C.ar  498  TRP498      0.0946
    104  CD2       55.7520   67.8060   52.5870 C.ar  498  TRP498      0.0152
    105  NE1       54.3920   69.5820   52.8510 N.ar  498  TRP498     -0.2442
    106  CE2       55.2650   68.7650   53.5370 C.ar  498  TRP498      0.0810
    107  CE3       56.6550   66.8330   53.0420 C.ar  498  TRP498      0.0012
    108  CZ2       55.6320   68.7420   54.8760 C.ar  498  TRP498      0.0191
    109  CZ3       57.0020   66.8040   54.3430 C.ar  498  TRP498      0.0001
    110  CH2       56.5160   67.7620   55.2720 C.ar  498  TRP498      0.0015
    111  N         60.4170   68.0990   53.2830 N.3   558  THR558     -0.1218
    112  CA        60.7370   67.7080   54.6660 C.3   558  THR558      0.1862
    113  C         61.2160   68.8490   55.5350 C.2   558  THR558      0.2287
    114  O         60.9890   68.8220   56.7560 O.2   558  THR558     -0.2866
    115  CB        61.7360   66.5070   54.6370 C.3   558  THR558      0.1770
    116  OG1       61.7000   65.7830   55.8910 O.3   558  THR558     -0.2211
    117  CG2       63.1690   66.9180   54.3730 C.3   558  THR558      0.0375
    118  N         60.1770   71.6400   56.5090 N.3   560  ASP560     -0.1239
    119  CA        58.8480   72.1920   56.2280 C.3   560  ASP560      0.1674
    120  C         58.7930   73.7320   56.3330 C.2   560  ASP560      0.2266
    121  O         58.0580   74.3970   55.5480 O.2   560  ASP560     -0.2867
    122  CB        57.7450   71.4720   57.0080 C.3   560  ASP560      0.1410
    123  CG        57.7700   71.7960   58.4710 C.2   560  ASP560      0.3668
    124  OD1       58.7880   71.4780   59.1130 O.co2 560  ASP560     -0.2456
    125  OD2       56.7500   72.3480   58.9980 O.co2 560  ASP560     -0.2456
    126  N         65.2670   76.0860   60.6360 N.3   694  GLN694     -0.1245
    127  CA        65.7870   74.8330   60.1630 C.3   694  GLN694      0.1566
    128  C         67.1530   74.9590   59.4920 C.2   694  GLN694      0.2260
    129  O         67.9480   74.0330   59.5470 O.2   694  GLN694     -0.2867
    130  CB        64.8060   74.0870   59.2650 C.3   694  GLN694      0.0367
    131  CG        63.5550   73.6510   60.0240 C.3   694  GLN694      0.0905
    132  CD        62.4720   73.0440   59.1310 C.2   694  GLN694      0.2608
    133  OE1       62.4350   73.2570   57.9030 O.2   694  GLN694     -0.2717
    134  NE2       61.5790   72.2590   59.7520 N.am  694  GLN694     -0.0878
    135  N         70.7090   68.5820   61.5250 N.3   699  TRP699     -0.1241
    136  CA        69.8130   67.3920   61.5470 C.3   699  TRP699      0.1605
    137  C         70.6670   66.1540   61.6370 C.2   699  TRP699      0.2264
    138  O         71.4950   65.8870   60.7610 O.2   699  TRP699     -0.2867
    139  CB        68.8390   67.3750   60.3610 C.3   699  TRP699      0.0550
    140  CG        67.7580   68.3910   60.4740 C.ar  699  TRP699      0.0003
    141  CD1       67.6790   69.4550   61.3100 C.ar  699  TRP699      0.0946
    142  CD2       66.5680   68.4300   59.6960 C.ar  699  TRP699      0.0152
    143  NE1       66.5390   70.1650   61.0930 N.ar  699  TRP699     -0.2442
    144  CE2       65.8190   69.5340   60.1170 C.ar  699  TRP699      0.0810
    145  CE3       66.0390   67.6190   58.7020 C.ar  699  TRP699      0.0012
    146  CZ2       64.5470   69.8320   59.5730 C.ar  699  TRP699      0.0191
    147  CZ3       64.8080   67.9200   58.1400 C.ar  699  TRP699      0.0001
    148  CH2       64.0860   69.0470   58.5580 C.ar  699  TRP699      0.0015
    149  N         65.9630   64.8350   66.4120 N.3   744  GLU744     -0.1245
    150  CA        66.0250   65.3450   65.0230 C.3   744  GLU744      0.1567
    151  C         67.2040   66.3090   64.9210 C.2   744  GLU744      0.2260
    152  O         68.0250   66.1670   64.0020 O.2   744  GLU744     -0.2867
    153  CB        64.7260   66.0660   64.6710 C.3   744  GLU744      0.0388
    154  CG        64.7890   66.8910   63.3790 C.3   744  GLU744      0.1160
    155  CD        64.5010   66.1440   62.1160 C.2   744  GLU744      0.3649
    156  OE1       65.3470   65.3370   61.7130 O.co2 744  GLU744     -0.2457
    157  OE2       63.4330   66.4040   61.4750 O.co2 744  GLU744     -0.2457
    158  N         65.6740   69.7300   69.2830 N.3   753  ARG753     -0.1245
    159  CA        64.2810   69.5990   68.9050 C.3   753  ARG753      0.1563
    160  C         63.9640   68.1440   68.5720 C.2   753  ARG753      0.2260
    161  O         64.6710   67.5470   67.7590 O.2   753  ARG753     -0.2867
    162  CB        63.9620   70.5270   67.7370 C.3   753  ARG753      0.0307
    163  CG        62.4980   70.4850   67.3050 C.3   753  ARG753      0.0489
    164  CD        62.2020   71.5460   66.2420 C.3   753  ARG753      0.2205
    165  NE        62.9590   71.3930   65.0230 N.pl3 753  ARG753     -0.0865
    166  CZ        62.6020   70.6040   64.0340 C.cat 753  ARG753      0.5346
    167  NH1       61.5440   69.8230   64.1170 N.pl3 753  ARG753      0.1354
    168  NH2       63.3540   70.5620   62.9220 N.pl3 753  ARG753      0.1354
    169  N         64.0750   60.2160   67.8160 N.3   757  TYR757     -0.1241
    170  CA        63.7520   60.5430   66.4110 C.3   757  TYR757      0.1605
    171  C         64.2180   59.4300   65.4590 C.2   757  TYR757      0.2264
    172  O         65.2630   58.9000   65.5980 O.2   757  TYR757     -0.2867
    173  CB        64.3490   61.9150   66.0730 C.3   757  TYR757      0.0534
    174  CG        63.5460   62.6180   64.9460 C.ar  757  TYR757     -0.0201
    175  CD1       62.3170   63.1750   65.2200 C.ar  757  TYR757     -0.0009
    176  CD2       63.9640   62.6590   63.6180 C.ar  757  TYR757     -0.0009
    177  CE1       61.5140   63.7300   64.2430 C.ar  757  TYR757      0.0417
    178  CE2       63.1660   63.2150   62.6410 C.ar  757  TYR757      0.0417
    179  CZ        61.9350   63.7310   62.9300 C.ar  757  TYR757      0.1957
    180  OH        61.1910   64.2010   61.8710 O.3   757  TYR757     -0.2866
    181  N         65.0210   59.7370   62.1160 N.3   759  ARG759     -0.1245
    182  CA        65.9960   60.1060   61.0370 C.3   759  ARG759      0.1563
    183  C         67.4310   59.6420   61.3130 C.2   759  ARG759      0.2260
    184  O         68.0610   59.1480   60.3640 O.2   759  ARG759     -0.2867
    185  CB        65.9380   61.5800   60.7110 C.3   759  ARG759      0.0307
    186  CG        66.1060   61.9190   59.2070 C.3   759  ARG759      0.0489
    187  CD        66.1570   63.4110   58.9410 C.3   759  ARG759      0.2205
    188  NE        64.9510   64.1450   59.2740 N.pl3 759  ARG759     -0.0865
    189  CZ        63.9410   64.5080   58.4880 C.cat 759  ARG759      0.5346
    190  NH1       63.8690   64.1430   57.1870 N.pl3 759  ARG759      0.1354
    191  NH2       62.9850   65.2600   58.9870 N.pl3 759  ARG759      0.1354
@<TRIPOS>BOND
     1   100    99    2
     2    99    98    1
     3    97    98    1
     4    98   101    1
     5   101   102    1
     6   102   103   ar
     7   102   104   ar
     8   103   105   ar
     9   104   107   ar
    10   104   106   ar
    11   105   106   ar
    12   107   109   ar
    13   111   112    1
    14    61    62    1
    15   106   108   ar
    16    50    47    1
    17    50    51    1
    18    47    46    1
    19    47    48    1
    20   109   110   ar
    21   117   115    1
    22    62    65    1
    23    62    63    1
    24   115   112    1
    25   115   116    1
    26   112   113    1
    27    49    48    2
    28   108   110   ar
    29    48    54   am
    30    65    66    1
    31    51    52   ar
    32    51    53   ar
    33    63    64    2
    34   113   114    2
    35   121   120    2
    36    54    55    1
    37   119   120    1
    38   119   118    1
    39   119   122    1
    40    68    66   ar
    41    68    70   ar
    42    66    67   ar
    43   122   123    1
    44    56    57    2
    45    56    55    1
    46   190   189    1
    47    55    58    1
    48    80    78   ar
    49    80    81   ar
    50    70    69   ar
    51    67    69   ar
    52    78    76   ar
    53   133   132    2
    54    74    73    2
    55   147   148   ar
    56   147   145   ar
    57    82    81    1
    58   123   125   ar
    59   123   124   ar
    60   189   191    1
    61   189   188    2
    62   148   146   ar
    63    81    79   ar
    64    58    60    1
    65    58    59    1
    66   145   142   ar
    67   187   186    1
    68   187   188    1
    69    86    85    2
    70    76    75    1
    71    76    77   ar
    72    85    84    1
    73   132   134   am
    74   132   131    1
    75    75    72    1
    76   186   185    1
    77    73    72    1
    78   130   131    1
    79   130   127    1
    80   128   129    2
    81   128   127    1
    82   146   144   ar
    83   142   144   ar
    84   142   140   ar
    85    79    77   ar
    86    71    72    1
    87   144   143   ar
    88   127   126    1
    89    83    84    1
    90   139   140    1
    91   139   136    1
    92   184   183    2
    93    84    87    1
    94   140   141   ar
    95   185   182    1
    96   138   137    2
    97    89    91   ar
    98    89    88   ar
    99   182   183    1
   100   182   181    1
   101   143   141   ar
   102    87    88    1
   103    20    19   ar
   104    91    92   ar
   105   157   155   ar
   106    88    90   ar
   107   135   136    1
   108   136   137    1
   109   156   155   ar
   110   180   179    1
   111    38    39    1
   112    38    35    1
   113    19    21   ar
   114    19    18    1
   115   155   154    1
   116    39    41   ar
   117    39    40   ar
   118    92    90   ar
   119    92    94   ar
   120    18    17    1
   121    90    93   ar
   122    41    43   ar
   123    36    37    2
   124    36    35    1
   125    40    42   ar
   126   178   179   ar
   127   178   176   ar
   128    17    14    1
   129    43    44   ar
   130    35    34    1
   131   168   166    1
   132   179   177   ar
   133    42    44   ar
   134    94    96   ar
   135    44    45    1
   136    93    95   ar
   137    14    13    1
   138    14    15    1
   139   154   153    1
   140   176   174   ar
   141    96    95   ar
   142   152   151    2
   143   166   167    1
   144   166   165    2
   145   177   175   ar
   146    15    16    2
   147   153   150    1
   148   151   150    1
   149    29    31   ar
   150    29    27   ar
   151   174   175   ar
   152   174   173    1
   153    26    27    1
   154    26    23    1
   155   150   149    1
   156   165   164    1
   157    25    24    2
   158    31    32   ar
   159    27    28   ar
   160   171   172    2
   161   171   170    1
   162    24    23    1
   163    32    33    1
   164    32    30   ar
   165    23    22    1
   166   173   170    1
   167    28    30   ar
   168   164   163    1
   169   170   169    1
   170    12    11    1
   171   163   162    1
   172   162   159    1
   173   161   160    2
   174    10    11   ar
   175    10     8   ar
   176    11     9   ar
   177   160   159    1
   178   159   158    1
   179     8     6   ar
   180     9     7   ar
   181     6     7   ar
   182     6     5    1
   183     5     2    1
   184     1     2    1
   185     2     3    1
   186     4     3    2
