@<TRIPOS>MOLECULE
tmp/5o0tA02.pdb
 227 224 0 0 0
SMALL
GASTEIGER

@<TRIPOS>ATOM
      1  N          5.3230   -3.9390  -11.6030 N.3    49  ALA49      -0.1231
      2  CA         5.2100   -2.5330  -11.2880 C.3    49  ALA49       0.1694
      3  C          3.7480   -2.1330  -11.1810 C.2    49  ALA49       0.2591
      4  O          3.3640   -1.4080  -10.2470 O.2    49  ALA49      -0.2718
      5  CB         5.9170   -1.6810  -12.3350 C.3    49  ALA49       0.0304
      6  N          2.9570   -2.6190  -12.1260 N.am   50  ARG50      -0.1980
      7  CA         1.4970   -2.3470  -12.0950 C.3    50  ARG50       0.1597
      8  C          0.7380   -3.0300  -10.9760 C.2    50  ARG50       0.2287
      9  O         -0.2510   -2.4960  -10.4330 O.2    50  ARG50      -0.2864
     10  CB         0.8410   -2.6400  -13.4420 C.3    50  ARG50       0.0334
     11  CG         1.3280   -1.7890  -14.5740 C.3    50  ARG50       0.0492
     12  CD         0.7500   -0.3910  -14.5120 C.3    50  ARG50       0.2205
     13  NE         1.0800    0.3640  -15.7030 N.pl3  50  ARG50      -0.0865
     14  CZ         0.6400    1.5840  -16.0090 C.cat  50  ARG50       0.5346
     15  NH1       -0.1050    2.2580  -15.1930 N.pl3  50  ARG50       0.1354
     16  NH2        0.9860    2.1450  -17.1580 N.pl3  50  ARG50       0.1354
     17  N          1.4740   -0.9700   -8.0020 N.3    53  GLY53      -0.1210
     18  CA         0.6880    0.2410   -8.1710 C.3    53  GLY53       0.1956
     19  C         -0.7650    0.0730   -7.7830 C.2    53  GLY53       0.2611
     20  O         -1.3150    0.9460   -7.0730 O.2    53  GLY53      -0.2717
     21  N         -1.4000   -0.9910   -8.2550 N.am   54  ALA54      -0.1979
     22  CA        -2.8090   -1.3070   -7.8810 C.3    54  ALA54       0.1597
     23  C         -2.9810   -1.5020   -6.3590 C.2    54  ALA54       0.2287
     24  O         -3.9600   -0.9940   -5.7930 O.2    54  ALA54      -0.2864
     25  CB        -3.3190   -2.5580   -8.6070 C.3    54  ALA54       0.0319
     26  N         -0.9260   -0.1900   -4.1590 N.3    56  LEU56      -0.1231
     27  CA        -0.6620    1.1150   -3.5980 C.3    56  LEU56       0.1693
     28  C         -1.9300    1.9680   -3.5500 C.2    56  LEU56       0.2592
     29  O         -2.1480    2.6210   -2.5560 O.2    56  LEU56      -0.2718
     30  CB         0.5440    1.8210   -4.2620 C.3    56  LEU56       0.0284
     31  CG         1.8950    1.1950   -3.7670 C.3    56  LEU56       0.0019
     32  CD1        2.9990    1.5430   -4.7530 C.3    56  LEU56       0.0001
     33  CD2        2.2450    1.6140   -2.3490 C.3    56  LEU56       0.0001
     34  N         -2.7190    1.9910   -4.5970 N.am   57  ASN57      -0.1974
     35  CA        -4.0650    2.5850   -4.5390 C.3    57  ASN57       0.1688
     36  C         -4.9360    2.0630   -3.4010 C.2    57  ASN57       0.2292
     37  O         -5.6360    2.8080   -2.7380 O.2    57  ASN57      -0.2864
     38  CB        -4.8230    2.4040   -5.8540 C.3    57  ASN57       0.1181
     39  CG        -4.3190    3.3620   -6.9130 C.2    57  ASN57       0.2629
     40  OD1       -3.8100    4.4500   -6.5850 O.2    57  ASN57      -0.2716
     41  ND2       -4.4250    2.9860   -8.1160 N.am   57  ASN57      -0.0877
     42  N          6.0250    0.2500   -2.5500 N.3   104  ALA104     -0.1245
     43  CA         6.6510    1.4120   -3.2160 C.3   104  ALA104      0.1562
     44  C          8.0800    1.1530   -3.7010 C.2   104  ALA104      0.2260
     45  O          8.4560    1.6100   -4.8220 O.2   104  ALA104     -0.2867
     46  CB         6.6310    2.6340   -2.3300 C.3   104  ALA104      0.0290
     47  N          7.7590   -1.3380   -6.6280 N.3   107  HIS107     -0.1226
     48  CA         7.1940   -0.5850   -7.7620 C.3   107  HIS107      0.1752
     49  C          8.2740    0.2700   -8.4080 C.2   107  HIS107      0.2596
     50  O          8.4440    0.2520   -9.6270 O.2   107  HIS107     -0.2718
     51  CB         6.0630    0.2670   -7.2300 C.3   107  HIS107      0.0759
     52  CG         5.5100    1.3260   -8.1550 C.ar  107  HIS107      0.0818
     53  ND1        4.4880    1.0860   -9.0330 N.ar  107  HIS107     -0.2268
     54  CD2        5.7000    2.6710   -8.1810 C.ar  107  HIS107      0.1154
     55  CE1        4.1090    2.2080   -9.6120 C.ar  107  HIS107      0.1986
     56  NE2        4.8030    3.2010   -9.0850 N.ar  107  HIS107     -0.2212
     57  N          9.0240    0.9770   -7.5810 N.am  108  THR108     -0.1953
     58  CA        10.1200    1.7890   -8.0570 C.3   108  THR108      0.1897
     59  C         11.2160    0.9650   -8.8000 C.2   108  THR108      0.2313
     60  O         11.6130    1.3320   -9.9020 O.2   108  THR108     -0.2863
     61  CB        10.7660    2.5810   -6.9080 C.3   108  THR108      0.1794
     62  OG1        9.7790    3.4490   -6.3530 O.3   108  THR108     -0.2208
     63  CG2       11.9900    3.3780   -7.4020 C.3   108  THR108      0.0378
     64  N          9.7770   -0.3890  -12.1310 N.3   111  HIS111     -0.1226
     65  CA         9.8190    0.6700  -13.1230 C.3   111  HIS111      0.1752
     66  C         11.2430    1.0320  -13.5980 C.2   111  HIS111      0.2596
     67  O         11.4260    1.2980  -14.7970 O.2   111  HIS111     -0.2718
     68  CB         9.1060    1.9140  -12.6040 C.3   111  HIS111      0.0759
     69  CG         7.6320    1.8480  -12.7670 C.ar  111  HIS111      0.0818
     70  ND1        7.0280    1.6960  -13.9830 N.ar  111  HIS111     -0.2268
     71  CD2        6.6330    1.9240  -11.8610 C.ar  111  HIS111      0.1154
     72  CE1        5.7210    1.6460  -13.8300 C.ar  111  HIS111      0.1986
     73  NE2        5.4480    1.8000  -12.5510 N.ar  111  HIS111     -0.2212
     74  N         12.2490    1.0240  -12.6870 N.am  112  PHE112     -0.1976
     75  CA        13.6060    1.2920  -13.1050 C.3   112  PHE112      0.1639
     76  C         14.0740    0.2190  -14.0740 C.2   112  PHE112      0.2290
     77  O         14.6870    0.5260  -15.1210 O.2   112  PHE112     -0.2864
     78  CB        14.5490    1.3750  -11.9200 C.3   112  PHE112      0.0560
     79  CG        14.4740    2.6580  -11.1160 C.ar  112  PHE112     -0.0200
     80  CD1       13.5300    3.6290  -11.3190 C.ar  112  PHE112     -0.0042
     81  CD2       15.3680    2.8460  -10.0780 C.ar  112  PHE112     -0.0042
     82  CE1       13.5110    4.8050  -10.5690 C.ar  112  PHE112     -0.0003
     83  CE2       15.3320    4.0050   -9.2960 C.ar  112  PHE112     -0.0003
     84  CZ        14.3710    4.9840   -9.5450 C.ar  112  PHE112     -0.0000
     85  N         12.5150    0.7770  -17.4160 N.3   115  TYR115     -0.1241
     86  CA        13.2050    1.8640  -18.1160 C.3   115  TYR115      0.1605
     87  C         14.4230    1.3830  -18.9170 C.2   115  TYR115      0.2264
     88  O         14.6530    1.8880  -20.0380 O.2   115  TYR115     -0.2867
     89  CB        13.5930    2.9690  -17.1470 C.3   115  TYR115      0.0534
     90  CG        12.4550    3.8100  -16.5350 C.ar  115  TYR115     -0.0201
     91  CD1       11.1920    3.9040  -17.1230 C.ar  115  TYR115     -0.0009
     92  CD2       12.6840    4.5420  -15.3860 C.ar  115  TYR115     -0.0009
     93  CE1       10.2020    4.7050  -16.5900 C.ar  115  TYR115      0.0417
     94  CE2       11.6980    5.3340  -14.8320 C.ar  115  TYR115      0.0417
     95  CZ        10.4610    5.3980  -15.4260 C.ar  115  TYR115      0.1957
     96  OH         9.5270    6.1880  -14.8650 O.3   115  TYR115     -0.2866
     97  N         13.3100    8.7090  -16.3310 N.3   126  LEU126     -0.1245
     98  CA        13.1260    9.0870  -14.9280 C.3   126  LEU126      0.1561
     99  C         12.9040   10.5770  -14.7210 C.2   126  LEU126      0.2260
    100  O         11.9980   10.9280  -13.9430 O.2   126  LEU126     -0.2867
    101  CB        14.2720    8.6100  -14.0520 C.3   126  LEU126      0.0270
    102  CG        14.1440    8.8970  -12.5490 C.3   126  LEU126      0.0019
    103  CD1       12.8430    8.3300  -11.9500 C.3   126  LEU126      0.0001
    104  CD2       15.3740    8.3450  -11.8580 C.3   126  LEU126      0.0001
    105  N          5.4710   10.9220  -15.0510 N.3   131  ALA131     -0.1231
    106  CA         5.3950    9.8500  -14.0890 C.3   131  ALA131      0.1694
    107  C          6.6860    9.6720  -13.3370 C.2   131  ALA131      0.2592
    108  O          6.6440    9.4480  -12.1130 O.2   131  ALA131     -0.2718
    109  CB         4.9570    8.5420  -14.7280 C.3   131  ALA131      0.0304
    110  N          7.8120    9.8520  -14.0270 N.am  132  GLY132     -0.1957
    111  CA         9.1260    9.7490  -13.4350 C.3   132  GLY132      0.1869
    112  C          9.3990   10.8340  -12.4160 C.2   132  GLY132      0.2309
    113  O          9.8550   10.5760  -11.3120 O.2   132  GLY132     -0.2863
    114  N          6.7940   10.5510   -9.4640 N.3   135  GLY135     -0.1210
    115  CA         7.1130    9.3400   -8.7380 C.3   135  GLY135      0.1956
    116  C          8.3460    9.4500   -7.8490 C.2   135  GLY135      0.2611
    117  O          8.3580    8.9660   -6.7240 O.2   135  GLY135     -0.2717
    118  N          9.3890   10.0680   -8.3870 N.am  136  PHE136     -0.1976
    119  CA        10.6140   10.2850   -7.6650 C.3   136  PHE136      0.1639
    120  C         10.3490   11.1860   -6.4480 C.2   136  PHE136      0.2290
    121  O         10.7810   10.9080   -5.3340 O.2   136  PHE136     -0.2864
    122  CB        11.6570   10.9190   -8.6030 C.3   136  PHE136      0.0560
    123  CG        13.0220   11.0540   -7.9880 C.ar  136  PHE136     -0.0200
    124  CD1       13.9110    9.9590   -7.9710 C.ar  136  PHE136     -0.0042
    125  CD2       13.4410   12.2620   -7.4350 C.ar  136  PHE136     -0.0042
    126  CE1       15.1960   10.0830   -7.4040 C.ar  136  PHE136     -0.0003
    127  CE2       14.7280   12.3920   -6.8940 C.ar  136  PHE136     -0.0003
    128  CZ        15.6030   11.3010   -6.8770 C.ar  136  PHE136     -0.0000
    129  N          7.4100   11.6810   -4.9620 N.3   138  LEU138     -0.1231
    130  CA         6.5670   10.9310   -4.0860 C.3   138  LEU138      0.1693
    131  C          7.3980    9.9060   -3.2770 C.2   138  LEU138      0.2591
    132  O          7.1870    9.7350   -2.0540 O.2   138  LEU138     -0.2718
    133  CB         5.5100   10.2740   -4.8820 C.3   138  LEU138      0.0284
    134  CG         4.5200    9.3520   -4.2160 C.3   138  LEU138      0.0019
    135  CD1        3.7620   10.1100   -3.1210 C.3   138  LEU138      0.0001
    136  CD2        3.5530    8.8550   -5.2470 C.3   138  LEU138      0.0001
    137  N          8.3760    9.2850   -3.9420 N.am  139  LEU139     -0.1980
    138  CA         9.2290    8.3360   -3.2900 C.3   139  LEU139      0.1596
    139  C         10.0430    9.0100   -2.1600 C.2   139  LEU139      0.2287
    140  O         10.1030    8.4570   -1.0370 O.2   139  LEU139     -0.2864
    141  CB        10.1280    7.6210   -4.3000 C.3   139  LEU139      0.0297
    142  CG        11.1190    6.6580   -3.6540 C.3   139  LEU139      0.0022
    143  CD1       10.4460    5.5920   -2.8480 C.3   139  LEU139      0.0001
    144  CD2       11.9840    6.0440   -4.7130 C.3   139  LEU139      0.0001
    145  N          7.8750    9.8420    0.8110 N.3   142  PHE142     -0.1241
    146  CA         7.5690    8.6280    1.4920 C.3   142  PHE142      0.1605
    147  C          8.7920    8.1030    2.2860 C.2   142  PHE142      0.2264
    148  O          8.6400    7.6560    3.4070 O.2   142  PHE142     -0.2867
    149  CB         7.0650    7.6120    0.4920 C.3   142  PHE142      0.0534
    150  CG         6.2990    6.4930    1.0820 C.ar  142  PHE142     -0.0203
    151  CD1        6.0030    6.4100    2.4490 C.ar  142  PHE142     -0.0042
    152  CD2        5.8120    5.5260    0.2720 C.ar  142  PHE142     -0.0042
    153  CE1        5.2590    5.3560    2.9570 C.ar  142  PHE142     -0.0003
    154  CE2        5.0680    4.4680    0.8020 C.ar  142  PHE142     -0.0003
    155  CZ         4.7930    4.3980    2.1510 C.ar  142  PHE142     -0.0000
    156  N          2.1370   13.9260    0.3560 N.3   172  TRP172     -0.1241
    157  CA         2.0340   12.5890   -0.1290 C.3   172  TRP172      0.1605
    158  C          0.7440   12.3860   -0.9370 C.2   172  TRP172      0.2264
    159  O          0.7680   11.8380   -2.0610 O.2   172  TRP172     -0.2867
    160  CB         2.0990   11.6010    1.0590 C.3   172  TRP172      0.0550
    161  CG         2.2750   10.2810    0.6480 C.ar  172  TRP172      0.0003
    162  CD1        3.4380    9.6100    0.5970 C.ar  172  TRP172      0.0946
    163  CD2        1.2520    9.3880    0.1850 C.ar  172  TRP172      0.0152
    164  NE1        3.2100    8.3220    0.1340 N.ar  172  TRP172     -0.2442
    165  CE2        1.8770    8.1790   -0.1480 C.ar  172  TRP172      0.0810
    166  CE3       -0.1290    9.4690    0.1120 C.ar  172  TRP172      0.0012
    167  CZ2        1.1660    7.0710   -0.5980 C.ar  172  TRP172      0.0191
    168  CZ3       -0.8350    8.4040   -0.3510 C.ar  172  TRP172      0.0001
    169  CH2       -0.1920    7.2160   -0.7250 C.ar  172  TRP172      0.0015
    170  N          0.4510   11.7010   -5.0060 N.3   176  ALA176     -0.1245
    171  CA        -0.2010   10.4740   -5.4260 C.3   176  ALA176      0.1562
    172  C         -1.3040   10.7920   -6.4020 C.2   176  ALA176      0.2260
    173  O         -1.4250   10.1440   -7.4020 O.2   176  ALA176     -0.2867
    174  CB        -0.7620    9.7270   -4.2210 C.3   176  ALA176      0.0290
    175  N          0.4240   11.7540   -9.6000 N.3   179  HIS179     -0.1226
    176  CA         1.2720   10.6780  -10.1180 C.3   179  HIS179      0.1752
    177  C          0.4660    9.5510  -10.7830 C.2   179  HIS179      0.2597
    178  O          0.8940    9.0500  -11.8230 O.2   179  HIS179     -0.2718
    179  CB         2.0960   10.0870   -8.9350 C.3   179  HIS179      0.0759
    180  CG         2.9750    8.9250   -9.3030 C.ar  179  HIS179      0.0818
    181  ND1        3.9790    9.0080  -10.2410 N.ar  179  HIS179     -0.2268
    182  CD2        2.9710    7.6420   -8.8640 C.ar  179  HIS179      0.1154
    183  CE1        4.5530    7.8240  -10.3660 C.ar  179  HIS179      0.1986
    184  NE2        3.9570    6.9700   -9.5470 N.ar  179  HIS179     -0.2212
    185  N         -0.5780    9.0780  -10.0980 N.am  180  GLY180     -0.1943
    186  CA        -1.5080    8.0610  -10.6190 C.3   180  GLY180      0.1998
    187  C         -2.6680    8.8010  -11.2960 C.2   180  GLY180      0.2481
    188  O         -3.5850    9.1370  -10.6260 O.2   180  GLY180     -0.2729
    189  N         -2.5620    9.1420  -12.5880 N.am  181  PRO181     -0.2715
    190  CA        -3.4430   10.1970  -13.0950 C.3   181  PRO181      0.1536
    191  C         -4.8440    9.6860  -13.4870 C.2   181  PRO181      0.2598
    192  O         -5.8330   10.4030  -13.2360 O.2   181  PRO181     -0.2715
    193  CB        -2.6850   10.7140  -14.3250 C.3   181  PRO181      0.0310
    194  CG        -1.9090    9.5340  -14.8340 C.3   181  PRO181      0.0237
    195  CD        -1.7730    8.5390  -13.6840 C.3   181  PRO181      0.0939
    196  N         -4.9370    8.4700  -14.0560 N.am  182  VAL182     -0.1964
    197  CA        -6.2230    7.9290  -14.5290 C.3   182  VAL182      0.1727
    198  C         -7.1670    7.4910  -13.3640 C.2   182  VAL182      0.2616
    199  O         -8.3410    7.9190  -13.3780 O.2   182  VAL182     -0.2715
    200  CB        -6.0460    6.8300  -15.6280 C.3   182  VAL182      0.0290
    201  CG1       -7.3990    6.4050  -16.1960 C.3   182  VAL182      0.0023
    202  CG2       -5.1540    7.3430  -16.7730 C.3   182  VAL182      0.0023
    203  N         -6.6770    6.7270  -12.3580 N.am  183  PHE183     -0.1974
    204  CA        -7.5490    6.1460  -11.3300 C.3   183  PHE183      0.1639
    205  C         -7.4440    6.9170  -10.0020 C.2   183  PHE183      0.2290
    206  O         -6.6600    6.5910   -9.1710 O.2   183  PHE183     -0.2864
    207  CB        -7.2620    4.6560  -11.1570 C.3   183  PHE183      0.0560
    208  CG        -8.3020    3.9210  -10.3710 C.ar  183  PHE183     -0.0200
    209  CD1       -9.6100    3.8750  -10.7680 C.ar  183  PHE183     -0.0042
    210  CD2       -7.9600    3.3720   -9.1960 C.ar  183  PHE183     -0.0042
    211  CE1      -10.5690    3.2170   -9.9310 C.ar  183  PHE183     -0.0003
    212  CE2       -8.9090    2.6810   -8.3960 C.ar  183  PHE183     -0.0003
    213  CZ       -10.2020    2.6200   -8.7980 C.ar  183  PHE183     -0.0000
    214  N         -9.8630    5.7880   -5.7040 N.3   186  TRP186     -0.1241
    215  CA        -9.3690    5.3330   -4.4120 C.3   186  TRP186      0.1605
    216  C         -9.5960    6.3480   -3.2670 C.2   186  TRP186      0.2264
    217  O         -9.8450    5.9580   -2.1050 O.2   186  TRP186     -0.2867
    218  CB        -7.8680    4.8610   -4.5340 C.3   186  TRP186      0.0550
    219  CG        -6.8360    5.9100   -4.9950 C.ar  186  TRP186      0.0003
    220  CD1       -6.5560    6.2910   -6.3190 C.ar  186  TRP186      0.0946
    221  CD2       -5.9980    6.7290   -4.1750 C.ar  186  TRP186      0.0152
    222  NE1       -5.6080    7.2920   -6.3500 N.ar  186  TRP186     -0.2442
    223  CE2       -5.2320    7.5730   -5.0510 C.ar  186  TRP186      0.0810
    224  CE3       -5.8250    6.8570   -2.7870 C.ar  186  TRP186      0.0012
    225  CZ2       -4.3530    8.5250   -4.5790 C.ar  186  TRP186      0.0191
    226  CZ3       -4.8910    7.7810   -2.3280 C.ar  186  TRP186      0.0001
    227  CH2       -4.1710    8.5940   -3.2230 C.ar  186  TRP186      0.0015
@<TRIPOS>BOND
     1    88    87    2
     2    87    86    1
     3    86    85    1
     4    86    89    1
     5    16    14    1
     6    89    90    1
     7    91    93   ar
     8    91    90   ar
     9   202   200    1
    10    93    95   ar
    11    90    92   ar
    12    97    98    1
    13   201   200    1
    14    14    13    2
    15    14    15    1
    16    13    12    1
    17   200   197    1
    18    95    96    1
    19    95    94   ar
    20    92    94   ar
    21    77    76    2
    22   105   106    1
    23    98    99    1
    24    98   101    1
    25   194   193    1
    26   194   195    1
    27    67    66    2
    28   109   106    1
    29    99   100    2
    30    11    12    1
    31    11    10    1
    32   197   196    1
    33   197   198    1
    34   193   190    1
    35   106   107    1
    36    76    75    1
    37   196   191   am
    38   101   102    1
    39   110   111    1
    40   110   107   am
    41    70    72   ar
    42    70    69   ar
    43    72    73   ar
    44   195   189    1
    45    66    65    1
    46    66    74   am
    47   191   192    2
    48   191   190    1
    49    10     7    1
    50   111   112    1
    51   199   198    2
    52   198   203   am
    53   107   108    2
    54    65    68    1
    55    65    64    1
    56    75    74    1
    57    75    78    1
    58   190   189    1
    59    69    68    1
    60    69    71   ar
    61   189   187   am
    62    73    71   ar
    63   102   103    1
    64   102   104    1
    65   112   113    2
    66   203   204    1
    67     5     2    1
    68     6     7    1
    69     6     3   am
    70     7     8    1
    71    78    79    1
    72   178   177    2
    73     1     2    1
    74   204   207    1
    75   204   205    1
    76    80    79   ar
    77    80    82   ar
    78   187   188    2
    79   187   186    1
    80     2     3    1
    81     3     4    2
    82   207   208    1
    83    79    81   ar
    84     8     9    2
    85   177   176    1
    86   177   185   am
    87   209   208   ar
    88   209   211   ar
    89   186   185    1
    90    82    84   ar
    91   208   210   ar
    92   183   181   ar
    93   183   184   ar
    94   181   180   ar
    95   176   175    1
    96   176   179    1
    97    81    83   ar
    98   205   206    2
    99   211   213   ar
   100    60    59    2
   101    50    49    2
   102    55    56   ar
   103    55    53   ar
   104   184   182   ar
   105    84    83   ar
   106   114   115    1
   107   180   179    1
   108   180   182   ar
   109   210   212   ar
   110    56    54   ar
   111    53    52   ar
   112    59    58    1
   113   213   212   ar
   114   115   116    1
   115    25    22    1
   116   122   123    1
   117   122   119    1
   118    49    48    1
   119    49    57   am
   120   118   116   am
   121   118   119    1
   122    21    22    1
   123    21    19   am
   124    54    52   ar
   125    18    17    1
   126    18    19    1
   127    52    51    1
   128    41    39   am
   129    58    57    1
   130    58    61    1
   131   123   124   ar
   132   123   125   ar
   133   124   126   ar
   134    22    23    1
   135   116   117    2
   136    19    20    2
   137    48    51    1
   138    48    47    1
   139   119   120    1
   140   125   127   ar
   141   126   128   ar
   142    63    61    1
   143   173   172    2
   144    39    40    2
   145    39    38    1
   146    61    62    1
   147   127   128   ar
   148   120   121    2
   149   172   171    1
   150    23    24    2
   151   222   220   ar
   152   222   223   ar
   153   220   219   ar
   154    38    35    1
   155   214   215    1
   156   171   170    1
   157   171   174    1
   158   136   134    1
   159   223   225   ar
   160   223   221   ar
   161   219   218    1
   162   219   221   ar
   163   129   130    1
   164   133   134    1
   165   133   130    1
   166    45    44    2
   167    32    31    1
   168   144   142    1
   169    34    35    1
   170    34    28   am
   171   225   227   ar
   172    35    36    1
   173   218   215    1
   174   215   216    1
   175   141   142    1
   176   141   138    1
   177    30    31    1
   178    30    27    1
   179   134   135    1
   180   221   224   ar
   181    26    27    1
   182   130   131    1
   183   137   138    1
   184   137   131   am
   185    31    33    1
   186    44    43    1
   187   142   143    1
   188    27    28    1
   189    28    29    2
   190    36    37    2
   191   138   139    1
   192   131   132    2
   193   216   217    2
   194   227   226   ar
   195    43    42    1
   196    43    46    1
   197   224   226   ar
   198   139   140    2
   199   159   158    2
   200   158   157    1
   201   169   167   ar
   202   169   168   ar
   203   167   165   ar
   204   168   166   ar
   205   165   164   ar
   206   165   163   ar
   207   157   156    1
   208   157   160    1
   209   166   163   ar
   210   164   162   ar
   211   163   161   ar
   212   152   154   ar
   213   152   150   ar
   214   149   150    1
   215   149   146    1
   216   162   161   ar
   217   161   160    1
   218   154   155   ar
   219   145   146    1
   220   150   151   ar
   221   146   147    1
   222   155   153   ar
   223   147   148    2
   224   151   153   ar
