@<TRIPOS>MOLECULE
tmp/5o0tA01.pdb
 230 226 0 0 0
SMALL
GASTEIGER

@<TRIPOS>ATOM
      1  N         -4.9070    3.9190    4.4230 N.3    63  ILE63      -0.1231
      2  CA        -3.9310    4.4530    5.3570 C.3    63  ILE63       0.1692
      3  C         -4.4800    5.5120    6.3320 C.2    63  ILE63       0.2591
      4  O         -4.1440    5.4950    7.4990 O.2    63  ILE63      -0.2718
      5  CB        -2.6560    4.9230    4.5730 C.3    63  ILE63       0.0266
      6  CG1       -1.4710    5.2410    5.4770 C.3    63  ILE63       0.0019
      7  CG2       -2.9380    6.1350    3.7000 C.3    63  ILE63       0.0020
      8  CD1       -0.9060    4.0600    6.2770 C.3    63  ILE63       0.0001
      9  N         -5.2920    6.4500    5.8590 N.am   64  LEU64      -0.1980
     10  CA        -5.8100    7.5070    6.7210 C.3    64  LEU64       0.1596
     11  C         -6.9270    7.0820    7.6810 C.2    64  LEU64       0.2287
     12  O         -7.1920    7.7660    8.6980 O.2    64  LEU64      -0.2864
     13  CB        -6.3590    8.6820    5.8660 C.3    64  LEU64       0.0297
     14  CG        -5.3010    9.3310    4.9660 C.3    64  LEU64       0.0022
     15  CD1       -5.8980   10.4750    4.1020 C.3    64  LEU64       0.0001
     16  CD2       -4.1000    9.8550    5.7580 C.3    64  LEU64       0.0001
     17  N         -6.5090    6.7970   11.2980 N.3    67  MET67      -0.1245
     18  CA        -6.0650    7.9950   11.9230 C.3    67  MET67       0.1570
     19  C         -7.1480    9.0430   12.0110 C.2    67  MET67       0.2261
     20  O         -6.8500   10.1710   12.4020 O.2    67  MET67      -0.2867
     21  CB        -4.8050    8.5020   11.2320 C.3    67  MET67       0.0387
     22  CG        -3.6560    7.5030   11.3920 C.3    67  MET67       0.0595
     23  SD        -3.2790    6.7590   13.0130 S.3    67  MET67      -0.1393
     24  CE        -2.9850    8.2890   13.8420 C.3    67  MET67       0.0692
     25  N         -9.3050   10.2650   14.2300 N.3    69  ARG69      -0.1245
     26  CA        -9.2340    9.9790   15.6610 C.3    69  ARG69       0.1563
     27  C        -10.5920   10.0460   16.3420 C.2    69  ARG69       0.2260
     28  O        -10.8800    9.2300   17.1880 O.2    69  ARG69      -0.2867
     29  CB        -8.1990   10.8890   16.3730 C.3    69  ARG69       0.0307
     30  CG        -6.7520   10.4240   16.1410 C.3    69  ARG69       0.0489
     31  CD        -5.7160   11.2430   16.9230 C.3    69  ARG69       0.2205
     32  NE        -5.4660   12.5450   16.2800 N.pl3  69  ARG69      -0.0865
     33  CZ        -6.0060   13.7120   16.6410 C.cat  69  ARG69       0.5346
     34  NH1       -6.8330   13.8000   17.6840 N.pl3  69  ARG69       0.1354
     35  NH2       -5.7190   14.8150   15.9470 N.pl3  69  ARG69       0.1354
     36  N         -3.9320    2.1720   15.5160 N.3    90  ILE90      -0.1245
     37  CA        -2.6060    2.6310   15.2220 C.3    90  ILE90       0.1561
     38  C         -1.6940    1.5150   14.7140 C.2    90  ILE90       0.2260
     39  O         -0.9100    1.7580   13.8210 O.2    90  ILE90      -0.2867
     40  CB        -1.9450    3.3640   16.3810 C.3    90  ILE90       0.0252
     41  CG1       -0.6110    3.8900   15.8880 C.3    90  ILE90       0.0019
     42  CG2       -1.7180    2.4030   17.5380 C.3    90  ILE90       0.0019
     43  CD1        0.1610    4.6260   16.9170 C.3    90  ILE90       0.0001
     44  N         -2.6640    1.0560   11.1240 N.3    93  HIS93      -0.1226
     45  CA        -2.0210    2.1570   10.3970 C.3    93  HIS93       0.1752
     46  C         -0.5390    1.8520   10.0520 C.2    93  HIS93       0.2595
     47  O         -0.1330    1.9490    8.9060 O.2    93  HIS93      -0.2718
     48  CB        -2.1740    3.4940   11.1580 C.3    93  HIS93       0.0759
     49  CG        -1.5010    4.6530   10.4750 C.ar   93  HIS93       0.0818
     50  ND1       -2.0380    5.2740    9.3830 N.ar   93  HIS93      -0.2268
     51  CD2       -0.3110    5.2790   10.7150 C.ar   93  HIS93       0.1154
     52  CE1       -1.2490    6.2600    9.0070 C.ar   93  HIS93       0.1986
     53  NE2       -0.1810    6.2810    9.7840 N.ar   93  HIS93      -0.2212
     54  N          0.2260    1.4640   11.0690 N.am   94  LYS94      -0.1980
     55  CA         1.6360    1.0800   10.9320 C.3    94  LYS94       0.1596
     56  C          1.8180   -0.0710    9.9670 C.2    94  LYS94       0.2287
     57  O          2.6980   -0.0640    9.1180 O.2    94  LYS94      -0.2864
     58  CB         2.2160    0.7240   12.2900 C.3    94  LYS94       0.0298
     59  CG         2.3770    1.9530   13.1770 C.3    94  LYS94       0.0038
     60  CD         3.2120    1.6850   14.3960 C.3    94  LYS94       0.0206
     61  CE         2.5530    0.7030   15.3010 C.3    94  LYS94       0.1093
     62  NZ         3.2520    0.7020   16.6280 N.3    94  LYS94      -0.1314
     63  N          1.1950    1.2290    6.4700 N.3    97  GLY97      -0.1210
     64  CA         2.3750    2.0330    6.0710 C.3    97  GLY97       0.1956
     65  C          3.6400    1.2400    5.6990 C.2    97  GLY97       0.2611
     66  O          4.2980    1.5760    4.7340 O.2    97  GLY97      -0.2717
     67  N          3.9330    0.1510    6.4340 N.am   98  GLN98      -0.1979
     68  CA         5.0350   -0.7310    6.1180 C.3    98  GLN98       0.1601
     69  C          4.8040   -1.5170    4.8220 C.2    98  GLN98       0.2287
     70  O          5.7130   -1.6210    4.0000 O.2    98  GLN98      -0.2864
     71  CB         5.3230   -1.6870    7.2550 C.3    98  GLN98       0.0394
     72  CG         5.6400   -1.0100    8.6060 C.3    98  GLN98       0.0908
     73  CD         7.0610   -0.5320    8.6930 C.2    98  GLN98       0.2608
     74  OE1        7.7630   -0.5120    7.6950 O.2    98  GLN98      -0.2717
     75  NE2        7.5050   -0.1870    9.8850 N.am   98  GLN98      -0.0878
     76  N          2.9230   -0.5360    2.3560 N.3   100  MET100     -0.1245
     77  CA         3.0020    0.4350    1.2920 C.3   100  MET100      0.1570
     78  C          4.4380    0.7720    0.9810 C.2   100  MET100      0.2261
     79  O          4.7330    0.9840   -0.1670 O.2   100  MET100     -0.2867
     80  CB         2.3220    1.7530    1.6450 C.3   100  MET100      0.0387
     81  CG         0.8390    1.6880    1.6290 C.3   100  MET100      0.0595
     82  SD        -0.0150    3.2730    1.9690 S.3   100  MET100     -0.1393
     83  CE         0.2810    4.0310    0.4610 C.3   100  MET100      0.0692
     84  N          7.8750    9.8420    0.8110 N.3   142  PHE142     -0.1241
     85  CA         7.5690    8.6280    1.4920 C.3   142  PHE142      0.1605
     86  C          8.7920    8.1030    2.2860 C.2   142  PHE142      0.2264
     87  O          8.6400    7.6560    3.4070 O.2   142  PHE142     -0.2867
     88  CB         7.0650    7.6120    0.4920 C.3   142  PHE142      0.0534
     89  CG         6.2990    6.4930    1.0820 C.ar  142  PHE142     -0.0203
     90  CD1        6.0030    6.4100    2.4490 C.ar  142  PHE142     -0.0042
     91  CD2        5.8120    5.5260    0.2720 C.ar  142  PHE142     -0.0042
     92  CE1        5.2590    5.3560    2.9570 C.ar  142  PHE142     -0.0003
     93  CE2        5.0680    4.4680    0.8020 C.ar  142  PHE142     -0.0003
     94  CZ         4.7930    4.3980    2.1510 C.ar  142  PHE142     -0.0000
     95  N          9.0350   10.3010    5.5030 N.3   145  MET145     -0.1230
     96  CA         7.9990    9.9030    6.4510 C.3   145  MET145      0.1702
     97  C          8.2960    8.5290    7.0570 C.2   145  MET145      0.2592
     98  O          8.1840    8.3210    8.2640 O.2   145  MET145     -0.2718
     99  CB         6.6140    9.8540    5.8040 C.3   145  MET145      0.0401
    100  CG         6.1200   11.2080    5.3260 C.3   145  MET145      0.0596
    101  SD         4.5590   11.0440    4.4210 S.3   145  MET145     -0.1393
    102  CE         3.4490   10.6120    5.7640 C.3   145  MET145      0.0692
    103  N          8.6390    7.5710    6.2200 N.am  146  TRP146     -0.1976
    104  CA         8.8950    6.2210    6.7040 C.3   146  TRP146      0.1640
    105  C         10.0730    6.1540    7.7100 C.2   146  TRP146      0.2290
    106  O          9.9720    5.5390    8.7830 O.2   146  TRP146     -0.2864
    107  CB         9.1270    5.2460    5.5280 C.3   146  TRP146      0.0576
    108  CG         9.2970    3.8700    5.9690 C.ar  146  TRP146      0.0006
    109  CD1        8.3300    2.9830    6.1780 C.ar  146  TRP146      0.0946
    110  CD2       10.5290    3.2240    6.3040 C.ar  146  TRP146      0.0152
    111  NE1        8.8580    1.7870    6.6300 N.ar  146  TRP146     -0.2442
    112  CE2       10.2180    1.9120    6.6830 C.ar  146  TRP146      0.0810
    113  CE3       11.8650    3.6200    6.2700 C.ar  146  TRP146      0.0012
    114  CZ2       11.1830    0.9960    7.0890 C.ar  146  TRP146      0.0191
    115  CZ3       12.8460    2.7020    6.6810 C.ar  146  TRP146      0.0001
    116  CH2       12.4930    1.4260    7.1170 C.ar  146  TRP146      0.0015
    117  N          9.2650    7.7490   11.0300 N.3   149  ALA149     -0.1231
    118  CA         8.1860    7.1230   11.7450 C.3   149  ALA149      0.1694
    119  C          8.6680    5.8580   12.4270 C.2   149  ALA149      0.2591
    120  O          7.9510    5.3920   13.2890 O.2   149  ALA149     -0.2718
    121  CB         7.0120    6.8020   10.8730 C.3   149  ALA149      0.0304
    122  N          9.8690    5.3310   12.0970 N.am  150  GLN150     -0.1979
    123  CA        10.3410    4.1350   12.7650 C.3   150  GLN150      0.1601
    124  C         10.6140    4.4370   14.2350 C.2   150  GLN150      0.2287
    125  O         11.0200    5.5570   14.6250 O.2   150  GLN150     -0.2864
    126  CB        11.5850    3.5290   12.0570 C.3   150  GLN150      0.0394
    127  CG        11.3690    3.1080   10.5960 C.3   150  GLN150      0.0908
    128  CD        10.0540    2.3160   10.3510 C.2   150  GLN150      0.2608
    129  OE1        9.8880    1.2280   10.8420 O.2   150  GLN150     -0.2717
    130  NE2        9.0910    2.9240    9.7100 N.am  150  GLN150     -0.0878
    131  N         11.0040    7.9520   16.1980 N.3   154  ARG154     -0.1245
    132  CA         9.7650    8.4510   16.7460 C.3   154  ARG154      0.1563
    133  C          9.7110    8.2970   18.2830 C.2   154  ARG154      0.2260
    134  O          9.2820    9.2240   19.0040 O.2   154  ARG154     -0.2867
    135  CB         8.5870    7.7420   16.0520 C.3   154  ARG154      0.0307
    136  CG         7.2270    8.0680   16.6120 C.3   154  ARG154      0.0489
    137  CD         6.1150    7.4050   15.8220 C.3   154  ARG154      0.2205
    138  NE         6.2910    5.9880   15.6580 N.pl3 154  ARG154     -0.0865
    139  CZ         5.8380    5.0490   16.4980 C.cat 154  ARG154      0.5346
    140  NH1        5.2350    5.3310   17.5980 N.pl3 154  ARG154      0.1354
    141  NH2        6.0500    3.7820   16.2680 N.pl3 154  ARG154      0.1354
    142  N         10.6690   12.7990   18.5790 N.3   159  PHE159     -0.1241
    143  CA         9.2540   12.8590   18.2630 C.3   159  PHE159      0.1605
    144  C          8.9150   14.0670   17.3590 C.2   159  PHE159      0.2264
    145  O          8.1540   13.9500   16.3960 O.2   159  PHE159     -0.2867
    146  CB         8.3640   12.7890   19.5100 C.3   159  PHE159      0.0534
    147  CG         6.9090   12.6380   19.1670 C.ar  159  PHE159     -0.0203
    148  CD1        6.3400   11.3850   18.9490 C.ar  159  PHE159     -0.0042
    149  CD2        6.1260   13.7710   18.9930 C.ar  159  PHE159     -0.0042
    150  CE1        4.9880   11.2680   18.6100 C.ar  159  PHE159     -0.0003
    151  CE2        4.7970   13.6630   18.6250 C.ar  159  PHE159     -0.0003
    152  CZ         4.2110   12.3930   18.4570 C.ar  159  PHE159     -0.0000
    153  N          9.7790   13.3190   13.7690 N.3   162  PHE162     -0.1227
    154  CA         8.7060   12.4970   13.2780 C.3   162  PHE162      0.1736
    155  C          7.4560   13.3330   12.9470 C.2   162  PHE162      0.2595
    156  O          6.9060   13.1990   11.8830 O.2   162  PHE162     -0.2718
    157  CB         8.3660   11.3410   14.2500 C.3   162  PHE162      0.0547
    158  CG         6.9390   10.8280   14.1090 C.ar  162  PHE162     -0.0202
    159  CD1        6.5640   10.0410   12.9940 C.ar  162  PHE162     -0.0042
    160  CD2        5.9580   11.2170   15.0170 C.ar  162  PHE162     -0.0042
    161  CE1        5.2640    9.6170   12.8410 C.ar  162  PHE162     -0.0003
    162  CE2        4.6350   10.8130   14.8720 C.ar  162  PHE162     -0.0003
    163  CZ         4.2650   10.0140   13.7730 C.ar  162  PHE162     -0.0000
    164  N          7.0130   14.1720   13.8680 N.am  163  TYR163     -0.1976
    165  CA         5.7170   14.7830   13.7600 C.3   163  TYR163      0.1639
    166  C          5.6740   15.7820   12.5900 C.2   163  TYR163      0.2290
    167  O          4.7400   15.8130   11.8020 O.2   163  TYR163     -0.2864
    168  CB         5.3750   15.4640   15.1010 C.3   163  TYR163      0.0560
    169  CG         4.0020   16.0740   15.1530 C.ar  163  TYR163     -0.0198
    170  CD1        2.8650   15.2560   15.3620 C.ar  163  TYR163     -0.0009
    171  CD2        3.8180   17.4290   14.9320 C.ar  163  TYR163     -0.0009
    172  CE1        1.5630   15.8090   15.4010 C.ar  163  TYR163      0.0417
    173  CE2        2.5300   17.9970   14.9570 C.ar  163  TYR163      0.0417
    174  CZ         1.4050   17.1870   15.1830 C.ar  163  TYR163      0.1957
    175  OH         0.1260   17.7320   15.2130 O.3   163  TYR163     -0.2866
    176  N          5.8310   13.9610    9.3170 N.3   166  HIS166     -0.1226
    177  CA         4.6050   13.2530    9.0780 C.3   166  HIS166      0.1752
    178  C          3.5570   14.1460    8.5690 C.2   166  HIS166      0.2595
    179  O          2.6350   13.6650    7.9260 O.2   166  HIS166     -0.2718
    180  CB         4.0690   12.5040   10.3140 C.3   166  HIS166      0.0759
    181  CG         3.6570   11.0970   10.0250 C.ar  166  HIS166      0.0818
    182  ND1        4.5400   10.1290    9.6070 N.ar  166  HIS166     -0.2268
    183  CD2        2.4480   10.4900   10.0970 C.ar  166  HIS166      0.1154
    184  CE1        3.8890    8.9870    9.4400 C.ar  166  HIS166      0.1986
    185  NE2        2.6250    9.1670    9.7680 N.ar  166  HIS166     -0.2212
    186  N          3.6940   15.4420    8.7980 N.am  167  MET167     -0.1979
    187  CA         2.7700   16.4160    8.1720 C.3   167  MET167      0.1605
    188  C          2.9430   16.4140    6.6330 C.2   167  MET167      0.2287
    189  O          2.1040   16.9260    5.9150 O.2   167  MET167     -0.2864
    190  CB         2.9250   17.8160    8.7770 C.3   167  MET167      0.0413
    191  CG         2.5280   17.9590   10.2480 C.3   167  MET167      0.0598
    192  SD         0.9160   17.2700   10.8400 S.3   167  MET167     -0.1393
    193  CE         1.3220   15.6550   11.5710 C.3   167  MET167      0.0692
    194  N          2.1490   13.9230    5.0240 N.3   169  TYR169     -0.1241
    195  CA         1.0850   13.1180    4.4750 C.3   169  TYR169      0.1605
    196  C          0.2400   13.9490    3.4560 C.2   169  TYR169      0.2264
    197  O         -0.3340   13.3680    2.4760 O.2   169  TYR169     -0.2867
    198  CB         0.2040   12.4900    5.5550 C.3   169  TYR169      0.0534
    199  CG        -0.8260   13.3820    6.1940 C.ar  169  TYR169     -0.0201
    200  CD1       -0.5520   14.1030    7.3220 C.ar  169  TYR169     -0.0009
    201  CD2       -2.1000   13.4640    5.6690 C.ar  169  TYR169     -0.0009
    202  CE1       -1.4950   14.9420    7.9110 C.ar  169  TYR169      0.0417
    203  CE2       -3.0570   14.2580    6.2460 C.ar  169  TYR169      0.0417
    204  CZ        -2.7420   15.0220    7.3360 C.ar  169  TYR169      0.1957
    205  OH        -3.7300   15.8000    7.8790 O.3   169  TYR169     -0.2866
    206  N          2.1370   13.9260    0.3560 N.3   172  TRP172     -0.1227
    207  CA         2.0340   12.5890   -0.1290 C.3   172  TRP172      0.1737
    208  C          0.7440   12.3860   -0.9370 C.2   172  TRP172      0.2595
    209  O          0.7680   11.8380   -2.0610 O.2   172  TRP172     -0.2718
    210  CB         2.0990   11.6010    1.0590 C.3   172  TRP172      0.0564
    211  CG         2.2750   10.2810    0.6480 C.ar  172  TRP172      0.0003
    212  CD1        3.4380    9.6100    0.5970 C.ar  172  TRP172      0.0946
    213  CD2        1.2520    9.3880    0.1850 C.ar  172  TRP172      0.0152
    214  NE1        3.2100    8.3220    0.1340 N.ar  172  TRP172     -0.2442
    215  CE2        1.8770    8.1790   -0.1480 C.ar  172  TRP172      0.0810
    216  CE3       -0.1290    9.4690    0.1120 C.ar  172  TRP172      0.0012
    217  CZ2        1.1660    7.0710   -0.5980 C.ar  172  TRP172      0.0191
    218  CZ3       -0.8350    8.4040   -0.3510 C.ar  172  TRP172      0.0001
    219  CH2       -0.1920    7.2160   -0.7250 C.ar  172  TRP172      0.0015
    220  N         -0.3720   12.8210   -0.3880 N.am  173  PHE173     -0.1976
    221  CA        -1.6280   12.6590   -1.0630 C.3   173  PHE173      0.1639
    222  C         -1.7240   13.5150   -2.3300 C.2   173  PHE173      0.2290
    223  O         -2.2380   13.0480   -3.3210 O.2   173  PHE173     -0.2864
    224  CB        -2.8210   12.9170   -0.1630 C.3   173  PHE173      0.0560
    225  CG        -3.2930   11.6850    0.4600 C.ar  173  PHE173     -0.0200
    226  CD1       -2.5730   11.1290    1.5340 C.ar  173  PHE173     -0.0042
    227  CD2       -4.3620   10.9880   -0.0680 C.ar  173  PHE173     -0.0042
    228  CE1       -2.9330    9.9170    2.0800 C.ar  173  PHE173     -0.0003
    229  CE2       -4.7480    9.7790    0.4980 C.ar  173  PHE173     -0.0003
    230  CZ        -4.0270    9.2420    1.5700 C.ar  173  PHE173     -0.0000
@<TRIPOS>BOND
     1   223   222    2
     2   222   221    1
     3   209   208    2
     4   221   220    1
     5   221   224    1
     6   208   220   am
     7   208   207    1
     8   219   217   ar
     9   219   218   ar
    10   217   215   ar
    11   218   216   ar
    12    79    78    2
    13   224   225    1
    14   215   214   ar
    15   215   213   ar
    16   207   206    1
    17   207   210    1
    18   227   225   ar
    19   227   229   ar
    20   216   213   ar
    21   214   212   ar
    22   213   211   ar
    23    91    93   ar
    24    91    89   ar
    25   225   226   ar
    26    83    82    1
    27    88    89    1
    28    88    85    1
    29   229   230   ar
    30   212   211   ar
    31   211   210    1
    32    93    94   ar
    33    84    85    1
    34    78    77    1
    35    89    90   ar
    36    77    80    1
    37    77    76    1
    38    85    86    1
    39   226   228   ar
    40   230   228   ar
    41    81    80    1
    42    81    82    1
    43    94    92   ar
    44    86    87    2
    45    90    92   ar
    46   197   196    2
    47   196   195    1
    48     7     5    1
    49    70    69    2
    50    15    14    1
    51   101   100    1
    52   101   102    1
    53     1     2    1
    54   195   194    1
    55   195   198    1
    56     5     2    1
    57     5     6    1
    58    66    65    2
    59    69    68    1
    60    14    16    1
    61    14    13    1
    62   100    99    1
    63     2     3    1
    64     6     8    1
    65    95    96    1
    66   107   108    1
    67   107   104    1
    68   198   199    1
    69   201   199   ar
    70   201   203   ar
    71    65    64    1
    72    65    67   am
    73    99    96    1
    74     9     3   am
    75     9    10    1
    76    13    10    1
    77   189   188    2
    78   108   109   ar
    79   108   110   ar
    80    64    63    1
    81    68    67    1
    82    68    71    1
    83   109   111   ar
    84   199   200   ar
    85   103   104    1
    86   103    97   am
    87   203   204   ar
    88   113   110   ar
    89   113   115   ar
    90   110   112   ar
    91     3     4    2
    92    96    97    1
    93   111   112   ar
    94   188   187    1
    95   115   116   ar
    96   112   114   ar
    97   104   105    1
    98    10    11    1
    99    97    98    2
   100   114   116   ar
   101    71    72    1
   102   200   202   ar
   103   204   205    1
   104   204   202   ar
   105    11    12    2
   106    74    73    2
   107   105   106    2
   108   179   178    2
   109   187   190    1
   110   187   186    1
   111   178   186   am
   112   178   177    1
   113    72    73    1
   114    73    75   am
   115   190   191    1
   116    47    46    2
   117    52    50   ar
   118    52    53   ar
   119   177   176    1
   120   177   180    1
   121    57    56    2
   122    50    49   ar
   123   184   182   ar
   124   184   185   ar
   125   182   181   ar
   126   130   128   am
   127   185   183   ar
   128    53    51   ar
   129    56    55    1
   130   181   183   ar
   131   181   180    1
   132    46    45    1
   133    46    54   am
   134   191   192    1
   135   128   127    1
   136   128   129    2
   137    45    44    1
   138    45    48    1
   139    49    51   ar
   140    49    48    1
   141   127   126    1
   142   192   193    1
   143   121   118    1
   144    55    54    1
   145    55    58    1
   146   117   118    1
   147    21    22    1
   148    21    18    1
   149    17    18    1
   150    22    23    1
   151   118   119    1
   152   167   166    2
   153   156   155    2
   154    18    19    1
   155    19    20    2
   156   126   123    1
   157   122   119   am
   158   122   123    1
   159    58    59    1
   160   119   120    2
   161   166   165    1
   162   123   124    1
   163   161   159   ar
   164   161   163   ar
   165   155   154    1
   166   155   164   am
   167   159   158   ar
   168    23    24    1
   169    59    60    1
   170   154   153    1
   171   154   157    1
   172   165   164    1
   173   165   168    1
   174   163   162   ar
   175    39    38    2
   176   158   157    1
   177   158   160   ar
   178    25    26    1
   179   124   125    2
   180    60    61    1
   181    38    37    1
   182   162   160   ar
   183   171   173   ar
   184   171   169   ar
   185   173   174   ar
   186   168   169    1
   187   169   170   ar
   188   174   175    1
   189   174   172   ar
   190    37    36    1
   191    37    40    1
   192    61    62    1
   193   170   172   ar
   194   138   137    1
   195   138   139    2
   196    26    27    1
   197    26    29    1
   198   137   136    1
   199    41    40    1
   200    41    43    1
   201    35    33    1
   202   135   136    1
   203   135   132    1
   204    30    29    1
   205    30    31    1
   206   131   132    1
   207   141   139    1
   208    32    33    2
   209    32    31    1
   210    27    28    2
   211    40    42    1
   212   145   144    2
   213   139   140    1
   214    33    34    1
   215   132   133    1
   216   144   143    1
   217   143   142    1
   218   143   146    1
   219   133   134    2
   220   152   150   ar
   221   152   151   ar
   222   150   148   ar
   223   151   149   ar
   224   148   147   ar
   225   149   147   ar
   226   147   146    1
