@<TRIPOS>MOLECULE
tmp/5o0tA04.pdb
 87 80 0 0 0
SMALL
GASTEIGER

@<TRIPOS>ATOM
      1  N         -3.4730   -7.0640   -6.7490 N.3    30  PHE30      -0.1241
      2  CA        -2.1400   -7.2580   -7.3210 C.3    30  PHE30       0.1605
      3  C         -2.2500   -8.1390   -8.5680 C.2    30  PHE30       0.2264
      4  O         -1.7970   -7.7640   -9.6680 O.2    30  PHE30      -0.2867
      5  CB        -1.1570   -7.8730   -6.2800 C.3    30  PHE30       0.0534
      6  CG         0.2710   -7.8840   -6.7200 C.ar   30  PHE30      -0.0203
      7  CD1        0.7170   -8.8460   -7.6200 C.ar   30  PHE30      -0.0042
      8  CD2        1.1920   -6.9140   -6.2530 C.ar   30  PHE30      -0.0042
      9  CE1        2.0160   -8.8440   -8.0770 C.ar   30  PHE30      -0.0003
     10  CE2        2.5110   -6.9200   -6.7030 C.ar   30  PHE30      -0.0003
     11  CZ         2.9250   -7.8850   -7.6260 C.ar   30  PHE30      -0.0000
     12  N          4.8190   -6.4980  -12.6390 N.3    48  ILE48      -0.1245
     13  CA         5.0970   -6.3200  -11.2120 C.3    48  ILE48       0.1561
     14  C          4.8520   -4.8700  -10.7660 C.2    48  ILE48       0.2260
     15  O          4.2470   -4.6070   -9.7110 O.2    48  ILE48      -0.2867
     16  CB         6.5220   -6.7750  -10.8770 C.3    48  ILE48       0.0252
     17  CG1        6.5800   -8.2950  -11.0250 C.3    48  ILE48       0.0019
     18  CG2        6.8910   -6.3830   -9.4480 C.3    48  ILE48       0.0019
     19  CD1        8.0160   -8.7680  -11.0260 C.3    48  ILE48       0.0001
     20  N          2.0640   -3.7140   -8.0550 N.3    52  CYS52      -0.1235
     21  CA         2.3790   -2.9100   -6.8820 C.3    52  CYS52       0.1677
     22  C          1.5600   -1.6210   -6.8580 C.2    52  CYS52       0.2270
     23  O          1.0550   -1.2100   -5.8220 O.2    52  CYS52      -0.2867
     24  CB         3.8640   -2.5630   -6.8660 C.3    52  CYS52       0.0956
     25  SG         4.9160   -3.9440   -6.5400 S.3    52  CYS52      -0.0801
     26  N         -1.8560    0.3100   15.2320 N.3    91  GLU91      -0.1245
     27  CA        -1.0930   -0.8590   14.7800 C.3    91  GLU91       0.1567
     28  C         -1.4820   -1.2460   13.3350 C.2    91  GLU91       0.2260
     29  O         -0.6190   -1.6010   12.5450 O.2    91  GLU91      -0.2867
     30  CB        -1.2950   -2.0490   15.7120 C.3    91  GLU91       0.0388
     31  CG        -0.8380   -1.7930   17.1440 C.3    91  GLU91       0.1160
     32  CD         0.6610   -1.4490   17.1830 C.2    91  GLU91       0.3649
     33  OE1        1.4340   -2.2240   16.5460 O.co2  91  GLU91      -0.2457
     34  OE2        1.0770   -0.3900   17.7850 O.co2  91  GLU91      -0.2457
     35  N          0.2260    1.4640   11.0690 N.3    94  LYS94      -0.1231
     36  CA         1.6360    1.0800   10.9320 C.3    94  LYS94       0.1693
     37  C          1.8180   -0.0710    9.9670 C.2    94  LYS94       0.2591
     38  O          2.6980   -0.0640    9.1180 O.2    94  LYS94      -0.2718
     39  CB         2.2160    0.7240   12.2900 C.3    94  LYS94       0.0285
     40  CG         2.3770    1.9530   13.1770 C.3    94  LYS94       0.0035
     41  CD         3.2120    1.6850   14.3960 C.3    94  LYS94       0.0206
     42  CE         2.5530    0.7030   15.3010 C.3    94  LYS94       0.1093
     43  NZ         3.2520    0.7020   16.6280 N.3    94  LYS94      -0.1314
     44  N          0.9770   -1.0750   10.0910 N.am   95  LEU95      -0.1980
     45  CA         1.0320   -2.1710    9.1400 C.3    95  LEU95       0.1596
     46  C          0.7930   -1.7240    7.6980 C.2    95  LEU95       0.2287
     47  O          1.5320   -2.1310    6.8130 O.2    95  LEU95      -0.2864
     48  CB         0.0180   -3.2730    9.5230 C.3    95  LEU95       0.0297
     49  CG        -0.1740   -4.3610    8.4930 C.3    95  LEU95       0.0022
     50  CD1        1.0770   -5.2020    8.4200 C.3    95  LEU95       0.0001
     51  CD2       -1.3240   -5.2560    8.9070 C.3    95  LEU95       0.0001
     52  N          3.9330    0.1510    6.4340 N.3    98  GLN98      -0.1231
     53  CA         5.0350   -0.7310    6.1180 C.3    98  GLN98       0.1698
     54  C          4.8040   -1.5170    4.8220 C.2    98  GLN98       0.2592
     55  O          5.7130   -1.6210    4.0000 O.2    98  GLN98      -0.2718
     56  CB         5.3230   -1.6870    7.2550 C.3    98  GLN98       0.0381
     57  CG         5.6400   -1.0100    8.6060 C.3    98  GLN98       0.0905
     58  CD         7.0610   -0.5320    8.6930 C.2    98  GLN98       0.2608
     59  OE1        7.7630   -0.5120    7.6950 O.2    98  GLN98      -0.2717
     60  NE2        7.5050   -0.1870    9.8850 N.am   98  GLN98      -0.0878
     61  N          3.5780   -1.9860    4.6220 N.am   99  VAL99      -0.1980
     62  CA         3.2200   -2.6840    3.4180 C.3    99  VAL99       0.1595
     63  C          3.3750   -1.7740    2.1960 C.2    99  VAL99       0.2287
     64  O          3.9640   -2.1910    1.1700 O.2    99  VAL99      -0.2864
     65  CB         1.8020   -3.2640    3.4920 C.3    99  VAL99       0.0276
     66  CG1        1.3700   -3.8260    2.1550 C.3    99  VAL99       0.0022
     67  CG2        1.7750   -4.3950    4.4890 C.3    99  VAL99       0.0022
     68  N          7.1110   -1.2000    1.3450 N.3   102  ALA102     -0.1231
     69  CA         7.6370   -2.3420    0.6190 C.3   102  ALA102      0.1694
     70  C          7.1670   -2.3300   -0.8240 C.2   102  ALA102      0.2591
     71  O          7.9730   -2.4330   -1.7530 O.2   102  ALA102     -0.2718
     72  CB         7.2160   -3.6570    1.2800 C.3   102  ALA102      0.0304
     73  N          5.8560   -2.1350   -1.0160 N.am  103  LEU103     -0.1980
     74  CA         5.2890   -2.0620   -2.3410 C.3   103  LEU103      0.1596
     75  C          5.8360   -0.8970   -3.1680 C.2   103  LEU103      0.2287
     76  O          6.0450   -1.0390   -4.3570 O.2   103  LEU103     -0.2864
     77  CB         3.7920   -1.9250   -2.2630 C.3   103  LEU103      0.0297
     78  CG         3.0200   -3.1570   -1.8310 C.3   103  LEU103      0.0022
     79  CD1        1.5790   -2.6740   -1.5070 C.3   103  LEU103      0.0001
     80  CD2        3.0570   -4.2680   -2.8940 C.3   103  LEU103      0.0001
     81  N          9.3940   -1.9110   -4.3570 N.3   106  VAL106     -0.1245
     82  CA         9.2670   -2.8810   -5.4640 C.3   106  VAL106      0.1561
     83  C          8.7840   -2.1910   -6.7550 C.2   106  VAL106      0.2260
     84  O          9.3410   -2.4420   -7.8450 O.2   106  VAL106     -0.2867
     85  CB         8.3950   -4.0800   -5.0920 C.3   106  VAL106      0.0252
     86  CG1        8.2730   -5.0630   -6.2570 C.3   106  VAL106      0.0019
     87  CG2        8.9950   -4.8410   -3.9120 C.3   106  VAL106      0.0019
@<TRIPOS>BOND
     1    12    13    1
     2    13    16    1
     3    13    14    1
     4    19    17    1
     5    17    16    1
     6    16    18    1
     7    14    15    2
     8     4     3    2
     9     3     2    1
    10     9    11   ar
    11     9     7   ar
    12    20    21    1
    13    84    83    2
    14    11    10   ar
    15     7     6   ar
    16     2     1    1
    17     2     5    1
    18    21    24    1
    19    21    22    1
    20    24    25    1
    21    22    23    2
    22    83    82    1
    23     6     5    1
    24     6     8   ar
    25    10     8   ar
    26    86    85    1
    27    82    85    1
    28    82    81    1
    29    85    87    1
    30    76    75    2
    31    75    74    1
    32    80    78    1
    33    74    77    1
    34    74    73    1
    35    77    78    1
    36    78    79    1
    37    71    70    2
    38    73    70   am
    39    70    69    1
    40    69    72    1
    41    69    68    1
    42    64    63    2
    43    66    65    1
    44    63    62    1
    45    62    65    1
    46    62    61    1
    47    65    67    1
    48    55    54    2
    49    61    54   am
    50    54    53    1
    51    53    52    1
    52    53    56    1
    53    47    46    2
    54    56    57    1
    55    59    58    2
    56    46    45    1
    57    50    49    1
    58    49    51    1
    59    49    48    1
    60    57    58    1
    61    58    60   am
    62    38    37    2
    63    45    48    1
    64    45    44    1
    65    37    44   am
    66    37    36    1
    67    36    35    1
    68    36    39    1
    69    39    40    1
    70    29    28    2
    71    40    41    1
    72    28    27    1
    73    41    42    1
    74    27    26    1
    75    27    30    1
    76    42    43    1
    77    30    31    1
    78    33    32   ar
    79    31    32    1
    80    32    34   ar
