@<TRIPOS>MOLECULE
tmp/5o0tA03.pdb
 141 134 0 0 0
SMALL
GASTEIGER

@<TRIPOS>ATOM
      1  N        -10.1180  -10.4940   14.5080 N.3    15  LYS15      -0.1245
      2  CA        -8.9110   -9.7960   14.1120 C.3    15  LYS15       0.1561
      3  C         -8.0650  -10.5300   13.0260 C.2    15  LYS15       0.2260
      4  O         -7.5810   -9.9180   12.0520 O.2    15  LYS15      -0.2867
      5  CB        -8.0790   -9.5190   15.3450 C.3    15  LYS15       0.0271
      6  CG        -6.7810   -8.7970   15.0660 C.3    15  LYS15       0.0035
      7  CD        -5.9520   -8.6190   16.3220 C.3    15  LYS15       0.0206
      8  CE        -4.4810   -8.5740   15.9160 C.3    15  LYS15       0.1093
      9  NZ        -3.5960   -8.0570   16.9970 N.3    15  LYS15      -0.1314
     10  N         -9.9930  -10.4520    9.8030 N.3    18  PHE18      -0.1227
     11  CA        -9.8480   -9.1140    9.2610 C.3    18  PHE18       0.1736
     12  C         -8.5020   -9.0040    8.4860 C.2    18  PHE18       0.2595
     13  O         -8.4470   -8.5130    7.3580 O.2    18  PHE18      -0.2718
     14  CB        -9.9660   -8.0840   10.3920 C.3    18  PHE18       0.0547
     15  CG        -9.6850   -6.6880    9.9720 C.ar   18  PHE18      -0.0202
     16  CD1      -10.6850   -5.8960    9.4290 C.ar   18  PHE18      -0.0042
     17  CD2       -8.4050   -6.1450   10.0980 C.ar   18  PHE18      -0.0042
     18  CE1      -10.4210   -4.5700    9.0370 C.ar   18  PHE18      -0.0003
     19  CE2       -8.1350   -4.8340    9.6740 C.ar   18  PHE18      -0.0003
     20  CZ        -9.1450   -4.0460    9.1550 C.ar   18  PHE18      -0.0000
     21  N         -7.4300   -9.4960    9.0980 N.am   19  LEU19      -0.1980
     22  CA        -6.1190   -9.4090    8.4830 C.3    19  LEU19       0.1596
     23  C         -6.0110  -10.3380    7.3070 C.2    19  LEU19       0.2287
     24  O         -5.3750   -9.9980    6.3170 O.2    19  LEU19      -0.2864
     25  CB        -5.0340   -9.6720    9.4930 C.3    19  LEU19       0.0297
     26  CG        -4.9070   -8.5450   10.5300 C.3    19  LEU19       0.0022
     27  CD1       -3.9650   -9.0190   11.6420 C.3    19  LEU19       0.0001
     28  CD2       -4.3920   -7.2280    9.9530 C.3    19  LEU19       0.0001
     29  N         -6.8050    3.0920    2.4270 N.3    62  LEU62      -0.1245
     30  CA        -6.9140    2.6440    3.8180 C.3    62  LEU62       0.1561
     31  C         -6.0760    3.4320    4.8420 C.2    62  LEU62       0.2260
     32  O         -6.4940    3.5650    6.0050 O.2    62  LEU62      -0.2867
     33  CB        -6.5250    1.1710    3.9000 C.3    62  LEU62       0.0270
     34  CG        -7.3130    0.2060    3.0080 C.3    62  LEU62       0.0019
     35  CD1       -6.6480   -1.1200    3.0150 C.3    62  LEU62       0.0001
     36  CD2       -8.6920    0.1080    3.6030 C.3    62  LEU62       0.0001
     37  N         -7.6340    6.0180    7.3440 N.3    65  ILE65      -0.1231
     38  CA        -8.8770    5.6740    8.0770 C.3    65  ILE65       0.1678
     39  C         -8.6170    5.4890    9.5830 C.2    65  ILE65       0.2434
     40  O         -9.3120    6.0800   10.4140 O.2    65  ILE65      -0.2733
     41  CB        -9.5970    4.4080    7.5190 C.3    65  ILE65       0.0265
     42  CG1       -9.8560    4.4730    6.0110 C.3    65  ILE65       0.0019
     43  CG2      -10.9430    4.2050    8.1930 C.3    65  ILE65       0.0020
     44  CD1      -10.5260    5.7360    5.5490 C.3    65  ILE65       0.0001
     45  N         -7.6220    4.6810    9.9470 N.am   66  PRO66      -0.2729
     46  CA        -7.3640    4.5100   11.3730 C.3    66  PRO66       0.1401
     47  C         -6.8570    5.7540   12.0480 C.2    66  PRO66       0.2269
     48  O         -6.8140    5.7760   13.2800 O.2    66  PRO66      -0.2865
     49  CB        -6.3070    3.3850   11.4130 C.3    66  PRO66       0.0296
     50  CG        -5.7900    3.3460   10.0690 C.3    66  PRO66       0.0237
     51  CD        -6.9330    3.6330    9.1830 C.3    66  PRO66       0.0939
     52  N        -12.4580    6.8840   15.2350 N.3    72  MET72      -0.1245
     53  CA       -12.0020    5.6890   15.9460 C.3    72  MET72       0.1570
     54  C        -12.4610    5.7020   17.4240 C.2    72  MET72       0.2261
     55  O        -12.8230    4.6610   17.9290 O.2    72  MET72      -0.2867
     56  CB       -10.4970    5.4760   15.8800 C.3    72  MET72       0.0387
     57  CG        -9.9320    5.2520   14.5100 C.3    72  MET72       0.0595
     58  SD       -10.5360    3.7820   13.6880 S.3    72  MET72      -0.1393
     59  CE       -11.7150    4.3990   12.4730 C.3    72  MET72       0.0692
     60  N        -16.0840    4.6940   17.4010 N.3    75  LEU75      -0.1245
     61  CA       -16.1490    3.2490   17.0840 C.3    75  LEU75       0.1561
     62  C        -15.7430    2.3230   18.2740 C.2    75  LEU75       0.2260
     63  O        -16.3540    1.2330   18.5090 O.2    75  LEU75      -0.2867
     64  CB       -15.2070    2.9750   15.9070 C.3    75  LEU75       0.0270
     65  CG       -15.5810    2.1060   14.7340 C.3    75  LEU75       0.0019
     66  CD1      -17.0090    2.2640   14.2560 C.3    75  LEU75       0.0001
     67  CD2      -14.6310    2.4490   13.6070 C.3    75  LEU75       0.0001
     68  N        -13.5440   -6.6240   17.3510 N.3    84  ILE84      -0.1231
     69  CA       -12.2430   -6.2440   16.8430 C.3    84  ILE84       0.1678
     70  C        -11.7140   -5.0720   17.6680 C.2    84  ILE84       0.2434
     71  O        -12.4690   -4.1570   17.9890 O.2    84  ILE84      -0.2733
     72  CB       -12.3550   -5.9700   15.3220 C.3    84  ILE84       0.0265
     73  CG1      -10.9910   -6.0920   14.6340 C.3    84  ILE84       0.0019
     74  CG2      -13.0420   -4.6460   15.0250 C.3    84  ILE84       0.0020
     75  CD1      -11.1220   -6.4670   13.1760 C.3    84  ILE84       0.0001
     76  N        -10.4330   -5.1250   18.0670 N.am   85  PRO85      -0.2718
     77  CA        -9.9260   -4.0950   19.0110 C.3    85  PRO85       0.1535
     78  C         -9.5800   -2.7670   18.2990 C.2    85  PRO85       0.2598
     79  O         -8.5340   -2.6710   17.6740 O.2    85  PRO85      -0.2715
     80  CB        -8.6820   -4.7620   19.6230 C.3    85  PRO85       0.0310
     81  CG        -8.2160   -5.6950   18.5740 C.3    85  PRO85       0.0237
     82  CD        -9.4200   -6.1700   17.8030 C.3    85  PRO85       0.0939
     83  N        -10.4620   -1.7690   18.4170 N.am   86  ILE86      -0.1978
     84  CA       -10.3010   -0.4730   17.7930 C.3    86  ILE86       0.1596
     85  C         -9.0990    0.2260   18.4260 C.2    86  ILE86       0.2287
     86  O         -8.4580    1.0380   17.7460 O.2    86  ILE86      -0.2864
     87  CB       -11.5720    0.3970   17.9360 C.3    86  ILE86       0.0276
     88  CG1      -12.7880   -0.2890   17.2710 C.3    86  ILE86       0.0022
     89  CG2      -11.3830    1.7800   17.3440 C.3    86  ILE86       0.0022
     90  CD1      -12.5600   -0.8240   15.8730 C.3    86  ILE86       0.0001
     91  N         -6.3110   -1.0100   18.5700 N.3    88  GLU88      -0.1231
     92  CA        -5.1980   -1.3360   17.6860 C.3    88  GLU88       0.1699
     93  C         -5.2360   -0.6180   16.3300 C.2    88  GLU88       0.2592
     94  O         -4.5480   -1.0130   15.3820 O.2    88  GLU88      -0.2718
     95  CB        -5.1340   -2.8210   17.5140 C.3    88  GLU88       0.0402
     96  CG        -4.9130   -3.5050   18.8570 C.3    88  GLU88       0.1161
     97  CD        -4.5780   -4.9640   18.7290 C.2    88  GLU88       0.3649
     98  OE1       -4.2510   -5.4560   17.6260 O.co2  88  GLU88      -0.2457
     99  OE2       -4.6500   -5.6380   19.7650 O.co2  88  GLU88      -0.2457
    100  N         -6.0150    0.4560   16.2490 N.am   89  SER89      -0.1952
    101  CA        -6.1190    1.1800   14.9930 C.3    89  SER89       0.1924
    102  C         -4.7130    1.6930   14.5660 C.2    89  SER89       0.2314
    103  O         -4.3620    1.6590   13.3900 O.2    89  SER89      -0.2863
    104  CB        -7.1360    2.2800   15.1320 C.3    89  SER89       0.2116
    105  OG        -6.6740    3.2190   16.0650 O.3    89  SER89      -0.2180
    106  N         -1.8560    0.3100   15.2320 N.3    91  GLU91      -0.1231
    107  CA        -1.0930   -0.8590   14.7800 C.3    91  GLU91       0.1699
    108  C         -1.4820   -1.2460   13.3350 C.2    91  GLU91       0.2592
    109  O         -0.6190   -1.6010   12.5450 O.2    91  GLU91      -0.2718
    110  CB        -1.2950   -2.0490   15.7120 C.3    91  GLU91       0.0402
    111  CG        -0.8380   -1.7930   17.1440 C.3    91  GLU91       0.1161
    112  CD         0.6610   -1.4490   17.1830 C.2    91  GLU91       0.3649
    113  OE1        1.4340   -2.2240   16.5460 O.co2  91  GLU91      -0.2457
    114  OE2        1.0770   -0.3900   17.7850 O.co2  91  GLU91      -0.2457
    115  N         -2.7630   -1.1240   12.9930 N.am   92  PHE92      -0.1976
    116  CA        -3.1540   -1.2970   11.6080 C.3    92  PHE92       0.1639
    117  C         -2.5860   -0.1880   10.6920 C.2    92  PHE92       0.2290
    118  O         -2.0910   -0.4930    9.6210 O.2    92  PHE92      -0.2864
    119  CB        -4.6740   -1.3750   11.4550 C.3    92  PHE92       0.0560
    120  CG        -5.1280   -1.7000   10.0540 C.ar   92  PHE92      -0.0200
    121  CD1       -4.7770   -2.9070    9.4600 C.ar   92  PHE92      -0.0042
    122  CD2       -5.9290   -0.8080    9.3320 C.ar   92  PHE92      -0.0042
    123  CE1       -5.2230   -3.2290    8.1760 C.ar   92  PHE92      -0.0003
    124  CE2       -6.3850   -1.1200    8.0570 C.ar   92  PHE92      -0.0003
    125  CZ        -6.0170   -2.3270    7.4690 C.ar   92  PHE92      -0.0000
    126  N          0.9770   -1.0750   10.0910 N.3    95  LEU95      -0.1245
    127  CA         1.0320   -2.1710    9.1400 C.3    95  LEU95       0.1561
    128  C          0.7930   -1.7240    7.6980 C.2    95  LEU95       0.2260
    129  O          1.5320   -2.1310    6.8130 O.2    95  LEU95      -0.2867
    130  CB         0.0180   -3.2730    9.5230 C.3    95  LEU95       0.0270
    131  CG        -0.1740   -4.3610    8.4930 C.3    95  LEU95       0.0019
    132  CD1        1.0770   -5.2020    8.4200 C.3    95  LEU95       0.0001
    133  CD2       -1.3240   -5.2560    8.9070 C.3    95  LEU95       0.0001
    134  N        -12.8130    6.5890   -0.4240 N.3   189  LEU189     -0.1245
    135  CA       -12.8930    5.9750    0.8750 C.3   189  LEU189      0.1561
    136  C        -12.4660    6.9440    1.9960 C.2   189  LEU189      0.2260
    137  O        -13.2580    7.2090    2.8720 O.2   189  LEU189     -0.2867
    138  CB       -12.1790    4.6370    0.9280 C.3   189  LEU189      0.0270
    139  CG       -12.2500    3.9120    2.3060 C.3   189  LEU189      0.0019
    140  CD1      -13.6760    3.8540    2.8210 C.3   189  LEU189      0.0001
    141  CD2      -11.6080    2.5280    2.3010 C.3   189  LEU189      0.0001
@<TRIPOS>BOND
     1   134   135    1
     2   135   138    1
     3   135   136    1
     4   138   139    1
     5   136   137    2
     6   141   139    1
     7   139   140    1
     8    29    30    1
     9    34    35    1
    10    34    36    1
    11    34    33    1
    12    30    33    1
    13    30    31    1
    14    31    32    2
    15    44    42    1
    16    42    41    1
    17    24    23    2
    18   129   128    2
    19    23    22    1
    20    37    38    1
    21    13    12    2
    22   125   124   ar
    23   125   123   ar
    24    41    38    1
    25    41    43    1
    26   128   127    1
    27   124   122   ar
    28    38    39    1
    29   123   121   ar
    30   132   131    1
    31    22    21    1
    32    22    25    1
    33    12    21   am
    34    12    11    1
    35   131   133    1
    36   131   130    1
    37    18    20   ar
    38    18    16   ar
    39   127   130    1
    40   127   126    1
    41    20    19   ar
    42    51    45    1
    43    51    50    1
    44    11    10    1
    45    11    14    1
    46   122   120   ar
    47    16    15   ar
    48   121   120   ar
    49    25    26    1
    50    39    45   am
    51    39    40    2
    52   118   117    2
    53    19    17   ar
    54    45    46    1
    55    28    26    1
    56    15    17   ar
    57    15    14    1
    58   120   119    1
    59    50    49    1
    60    26    27    1
    61   117   116    1
    62    46    49    1
    63    46    47    1
    64   119   116    1
    65   116   115    1
    66    47    48    2
    67     4     3    2
    68    59    58    1
    69   109   108    2
    70   115   108   am
    71     3     2    1
    72    75    73    1
    73   108   107    1
    74   103   102    2
    75    67    65    1
    76    58    57    1
    77     2     1    1
    78     2     5    1
    79    66    65    1
    80    57    56    1
    81   102   101    1
    82    73    72    1
    83    65    64    1
    84   107   106    1
    85   107   110    1
    86   101   104    1
    87   101   100    1
    88    74    72    1
    89     6     5    1
    90     6     7    1
    91   104   105    1
    92    52    53    1
    93    72    69    1
    94    94    93    2
    95   110   111    1
    96    90    88    1
    97    56    53    1
    98    64    61    1
    99     8     7    1
   100     8     9    1
   101    53    54    1
   102   100    93   am
   103    93    92    1
   104   113   112   ar
   105    69    68    1
   106    69    70    1
   107    61    60    1
   108    61    62    1
   109   111   112    1
   110   112   114   ar
   111    88    87    1
   112    89    87    1
   113    54    55    2
   114    95    92    1
   115    95    96    1
   116    98    97   ar
   117    70    71    2
   118    70    76   am
   119    79    78    2
   120    92    91    1
   121    86    85    2
   122    84    87    1
   123    84    83    1
   124    84    85    1
   125    82    76    1
   126    82    81    1
   127    76    77    1
   128    62    63    2
   129    78    83   am
   130    78    77    1
   131    81    80    1
   132    97    96    1
   133    97    99   ar
   134    77    80    1
