@<TRIPOS>MOLECULE
tmp/5o0xA03.pdb
 153 148 0 0 0
SMALL
GASTEIGER

@<TRIPOS>ATOM
      1  N         71.8800    7.3980   50.0240 N.3    15  SER15      -0.1217
      2  CA        72.4630    6.8840   51.2450 C.3    15  SER15       0.1889
      3  C         71.8320    5.5430   51.6710 C.2    15  SER15       0.2288
      4  O         71.5550    5.3130   52.8430 O.2    15  SER15      -0.2866
      5  CB        72.3680    7.9490   52.3330 C.3    15  SER15       0.2089
      6  OG        73.2860    7.6550   53.3600 O.3    15  SER15      -0.2183
      7  N         66.9960    1.6490   55.8690 N.3    68  ARG68      -0.1245
      8  CA        68.3640    1.8240   55.4140 C.3    68  ARG68       0.1563
      9  C         69.1240    0.5150   55.4540 C.2    68  ARG68       0.2260
     10  O         69.1890   -0.1550   56.5110 O.2    68  ARG68      -0.2867
     11  CB        69.0690    2.8230   56.3160 C.3    68  ARG68       0.0307
     12  CG        70.4170    3.2830   55.8210 C.3    68  ARG68       0.0489
     13  CD        70.7150    4.7030   56.2670 C.3    68  ARG68       0.2205
     14  NE        71.9900    5.1070   55.7020 N.pl3  68  ARG68      -0.0865
     15  CZ        73.1810    4.8400   56.2220 C.cat  68  ARG68       0.5346
     16  NH1       73.3160    4.2400   57.3950 N.pl3  68  ARG68       0.1354
     17  NH2       74.2620    5.2110   55.5610 N.pl3  68  ARG68       0.1354
     18  N         69.0750   12.1940   64.0950 N.3   126  ALA126     -0.1231
     19  CA        70.2700   11.9730   63.2790 C.3   126  ALA126      0.1694
     20  C         70.0080   10.8690   62.2750 C.2   126  ALA126      0.2593
     21  O         69.4800    9.8100   62.6240 O.2   126  ALA126     -0.2718
     22  CB        71.4520   11.6360   64.1490 C.3   126  ALA126      0.0304
     23  N         70.3310   11.1360   61.0130 N.am  127  GLY127     -0.1942
     24  CA        70.2400   10.1250   59.9790 C.3   127  GLY127      0.2014
     25  C         68.8220    9.6260   59.8620 C.2   127  GLY127      0.2638
     26  O         67.8560   10.4040   59.8600 O.2   127  GLY127     -0.2714
     27  N         68.6990    8.3040   59.7820 N.am  128  ILE128     -0.1977
     28  CA        67.4070    7.6240   59.6130 C.3   128  ILE128      0.1596
     29  C         66.5670    7.7470   60.8830 C.2   128  ILE128      0.2287
     30  O         65.3810    7.4520   60.8660 O.2   128  ILE128     -0.2864
     31  CB        67.6040    6.1320   59.1790 C.3   128  ILE128      0.0276
     32  CG1       66.3460    5.5740   58.5400 C.3   128  ILE128      0.0022
     33  CG2       68.0760    5.2240   60.3060 C.3   128  ILE128      0.0022
     34  CD1       65.9650    6.3430   57.2760 C.3   128  ILE128      0.0001
     35  N         70.2980   16.2440   61.8510 N.3   161  LEU161     -0.1231
     36  CA        71.7260   16.1090   61.5630 C.3   161  LEU161      0.1693
     37  C         71.9880   14.9250   60.5900 C.2   161  LEU161      0.2592
     38  O         71.4070   13.8450   60.7330 O.2   161  LEU161     -0.2718
     39  CB        72.5070   15.8710   62.8440 C.3   161  LEU161      0.0284
     40  CG        72.6410   17.0040   63.8720 C.3   161  LEU161      0.0019
     41  CD1       71.2860   17.5370   64.3320 C.3   161  LEU161      0.0001
     42  CD2       73.4290   16.4780   65.0660 C.3   161  LEU161      0.0001
     43  N         72.8280   15.1570   59.5810 N.am  162  ASN162     -0.1960
     44  CA        73.2460   14.1400   58.6100 C.3   162  ASN162      0.1819
     45  C         74.7270   14.3100   58.2920 C.2   162  ASN162      0.2621
     46  O         75.2040   15.4380   58.0910 O.2   162  ASN162     -0.2715
     47  CB        72.4850   14.2660   57.3110 C.3   162  ASN162      0.1195
     48  CG        71.2110   13.4650   57.2780 C.2   162  ASN162      0.2630
     49  OD1       71.1800   12.3160   57.6860 O.2   162  ASN162     -0.2716
     50  ND2       70.1650   14.0460   56.7200 N.am  162  ASN162     -0.0877
     51  N         75.4420   13.1850   58.2360 N.am  163  ARG163     -0.1963
     52  CA        76.7980   13.1270   57.6790 C.3   163  ARG163      0.1729
     53  C         76.8500   13.3890   56.1660 C.2   163  ARG163      0.2616
     54  O         77.7910   13.9900   55.6960 O.2   163  ARG163     -0.2715
     55  CB        77.4830   11.7870   58.0050 C.3   163  ARG163      0.0348
     56  CG        77.6280   11.5790   59.4970 C.3   163  ARG163      0.0492
     57  CD        78.7660   10.6570   59.8880 C.3   163  ARG163      0.2205
     58  NE        79.1710   10.9260   61.2730 N.pl3 163  ARG163     -0.0865
     59  CZ        80.2440   10.4070   61.8690 C.cat 163  ARG163      0.5346
     60  NH1       80.5170   10.7410   63.1210 N.pl3 163  ARG163      0.1354
     61  NH2       81.0510    9.5620   61.2290 N.pl3 163  ARG163      0.1354
     62  N         75.8340   12.9580   55.4320 N.am  164  GLU164     -0.1977
     63  CA        75.8020   13.0370   53.9750 C.3   164  GLU164      0.1602
     64  C         74.6650   13.9350   53.5340 C.2   164  GLU164      0.2287
     65  O         73.5030   13.7070   53.9010 O.2   164  GLU164     -0.2864
     66  CB        75.5450   11.6450   53.3850 C.3   164  GLU164      0.0415
     67  CG        76.4950   10.5450   53.8610 C.3   164  GLU164      0.1163
     68  CD        76.0470    9.1460   53.4060 C.2   164  GLU164      0.3649
     69  OE1       75.1040    9.0260   52.5880 O.co2 164  GLU164     -0.2457
     70  OE2       76.6370    8.1520   53.8610 O.co2 164  GLU164     -0.2457
     71  N         71.2600   12.5510   52.0620 N.3   167  ALA167     -0.1245
     72  CA        70.2280   12.0170   52.9720 C.3   167  ALA167      0.1562
     73  C         69.0430   12.9600   53.1980 C.2   167  ALA167      0.2260
     74  O         67.9250   12.4800   53.3600 O.2   167  ALA167     -0.2867
     75  CB        70.8420   11.6120   54.2950 C.3   167  ALA167      0.0290
     76  N         65.4890   12.4500   51.5060 N.3   170  TRP170     -0.1241
     77  CA        64.4080   11.5520   51.9750 C.3   170  TRP170      0.1605
     78  C         63.1410   12.3190   52.2800 C.2   170  TRP170      0.2264
     79  O         62.0260   11.8540   51.9960 O.2   170  TRP170     -0.2867
     80  CB        64.7920   10.7490   53.2690 C.3   170  TRP170      0.0550
     81  CG        66.0900    9.9900   53.2090 C.ar  170  TRP170      0.0003
     82  CD1       66.7090    9.4800   52.0830 C.ar  170  TRP170      0.0946
     83  CD2       66.9310    9.6670   54.2980 C.ar  170  TRP170      0.0152
     84  NE1       67.9000    8.8940   52.4320 N.ar  170  TRP170     -0.2442
     85  CE2       68.0510    8.9740   53.7830 C.ar  170  TRP170      0.0810
     86  CE3       66.8490    9.8870   55.6730 C.ar  170  TRP170      0.0012
     87  CZ2       69.0760    8.5040   54.5940 C.ar  170  TRP170      0.0191
     88  CZ3       67.8670    9.4310   56.4770 C.ar  170  TRP170      0.0001
     89  CH2       68.9640    8.7480   55.9460 C.ar  170  TRP170      0.0015
     90  N         76.9150   17.4360   59.2080 N.3   194  THR194     -0.1218
     91  CA        77.9920   17.2380   60.2010 C.3   194  THR194      0.1862
     92  C         79.3140   16.6870   59.6220 C.2   194  THR194      0.2287
     93  O         79.2870   15.9550   58.6280 O.2   194  THR194     -0.2866
     94  CB        77.5180   16.2690   61.3160 C.3   194  THR194      0.1770
     95  OG1       77.0240   15.0570   60.7220 O.3   194  THR194     -0.2211
     96  CG2       76.4260   16.9110   62.1490 C.3   194  THR194      0.0375
     97  N         78.7400   20.3020   63.9920 N.3   207  ARG207     -0.1245
     98  CA        77.9420   19.8980   65.1100 C.3   207  ARG207      0.1563
     99  C         77.1960   21.1480   65.6720 C.2   207  ARG207      0.2260
    100  O         77.8120   22.1890   65.8910 O.2   207  ARG207     -0.2867
    101  CB        78.8790   19.2700   66.1640 C.3   207  ARG207      0.0307
    102  CG        79.4150   17.8820   65.9200 C.3   207  ARG207      0.0489
    103  CD        78.2780   16.9160   65.8220 C.3   207  ARG207      0.2205
    104  NE        77.5060   16.8290   67.0600 N.pl3 207  ARG207     -0.0865
    105  CZ        77.7690   16.0420   68.0940 C.cat 207  ARG207      0.5346
    106  NH1       78.7620   15.1760   67.9750 N.pl3 207  ARG207      0.1354
    107  NH2       77.0350   16.0730   69.2090 N.pl3 207  ARG207      0.1354
    108  N         72.2630    9.0210   68.3900 N.3   233  PRO233     -0.2116
    109  CA        73.3440    8.3140   69.0770 C.3   233  PRO233      0.1372
    110  C         73.4980    8.7060   70.5280 C.2   233  PRO233      0.2244
    111  O         73.1030    9.7990   70.9390 O.2   233  PRO233     -0.2868
    112  CB        74.6120    8.7050   68.2690 C.3   233  PRO233      0.0268
    113  CG        74.2450    9.9480   67.5420 C.3   233  PRO233      0.0207
    114  CD        72.7710    9.8680   67.2930 C.3   233  PRO233      0.0892
    115  N         70.8180    1.3080   66.6690 N.3   258  TRP258     -0.1227
    116  CA        71.0160    1.3970   65.2420 C.3   258  TRP258      0.1737
    117  C         71.5110    2.7570   64.7600 C.2   258  TRP258      0.2595
    118  O         71.8440    2.8830   63.5960 O.2   258  TRP258     -0.2718
    119  CB        69.7450    0.9890   64.4950 C.3   258  TRP258      0.0564
    120  CG        68.5910    1.9580   64.6260 C.ar  258  TRP258      0.0003
    121  CD1       68.2150    2.8960   63.7110 C.ar  258  TRP258      0.0946
    122  CD2       67.6530    2.0500   65.6950 C.ar  258  TRP258      0.0152
    123  NE1       67.1050    3.5400   64.1140 N.ar  258  TRP258     -0.2442
    124  CE2       66.7390    3.0680   65.3470 C.ar  258  TRP258      0.0810
    125  CE3       67.4690    1.3440   66.8980 C.ar  258  TRP258      0.0012
    126  CZ2       65.6690    3.4140   66.1530 C.ar  258  TRP258      0.0191
    127  CZ3       66.4190    1.6660   67.7050 C.ar  258  TRP258      0.0001
    128  CH2       65.5200    2.7100   67.3390 C.ar  258  TRP258      0.0015
    129  N         71.5870    3.7620   65.6300 N.am  259  LEU259     -0.1966
    130  CA        72.0760    5.0780   65.2270 C.3   259  LEU259      0.1728
    131  C         73.4320    5.4120   65.8090 C.2   259  LEU259      0.2616
    132  O         73.8390    6.5610   65.7270 O.2   259  LEU259     -0.2715
    133  CB        71.0600    6.1580   65.6240 C.3   259  LEU259      0.0311
    134  CG        69.7000    5.9530   64.9770 C.3   259  LEU259      0.0022
    135  CD1       68.7150    6.9740   65.5230 C.3   259  LEU259      0.0001
    136  CD2       69.8200    6.0250   63.4570 C.3   259  LEU259      0.0001
    137  N         74.1340    4.4280   66.3780 N.am  260  GLU260     -0.1963
    138  CA        75.4310    4.6990   67.0350 C.3   260  GLU260      0.1733
    139  C         76.4920    4.9950   65.9930 C.2   260  GLU260      0.2616
    140  O         76.3540    4.6170   64.8310 O.2   260  GLU260     -0.2715
    141  CB        75.8650    3.5640   67.9560 C.3   260  GLU260      0.0429
    142  CG        74.8920    3.2360   69.0800 C.3   260  GLU260      0.1163
    143  CD        74.6210    4.3810   70.0830 C.2   260  GLU260      0.3649
    144  OE1       75.3380    5.4230   70.0550 O.co2 260  GLU260     -0.2457
    145  OE2       73.6720    4.2370   70.9280 O.co2 260  GLU260     -0.2457
    146  N         77.5150    5.7300   66.4120 N.am  261  LEU261     -0.1977
    147  CA        78.5520    6.2280   65.4990 C.3   261  LEU261      0.1596
    148  C         79.5400    5.1040   65.1590 C.2   261  LEU261      0.2287
    149  O         79.5400    4.6010   64.0320 O.2   261  LEU261     -0.2864
    150  CB        79.2960    7.4490   66.1070 C.3   261  LEU261      0.0297
    151  CG        78.4330    8.6580   66.4470 C.3   261  LEU261      0.0022
    152  CD1       79.2170    9.7030   67.2130 C.3   261  LEU261      0.0001
    153  CD2       77.8260    9.2850   65.2060 C.3   261  LEU261      0.0001
@<TRIPOS>BOND
     1     1     2    1
     2     2     3    1
     3     2     5    1
     4    76    77    1
     5     3     4    2
     6    77    78    1
     7    77    80    1
     8    79    78    2
     9    71    72    1
    10    82    84   ar
    11    82    81   ar
    12     5     6    1
    13    84    85   ar
    14    69    68   ar
    15    72    73    1
    16    72    75    1
    17    73    74    2
    18    81    80    1
    19    81    83   ar
    20    66    67    1
    21    66    63    1
    22    68    67    1
    23    68    70   ar
    24    64    65    2
    25    64    63    1
    26    85    83   ar
    27    85    87   ar
    28    63    62    1
    29    83    86   ar
    30    87    89   ar
    31     8     9    1
    32     8     7    1
    33     8    11    1
    34    62    53   am
    35     9    10    2
    36    17    15    1
    37    86    88   ar
    38    54    53    2
    39    14    15    2
    40    14    13    1
    41    12    13    1
    42    12    11    1
    43    89    88   ar
    44    53    52    1
    45    15    16    1
    46    50    48   am
    47    34    32    1
    48    48    47    1
    49    48    49    2
    50    47    44    1
    51    52    55    1
    52    52    51    1
    53    55    56    1
    54    46    45    2
    55    51    45   am
    56    45    44    1
    57    32    31    1
    58    44    43    1
    59    93    92    2
    60    31    28    1
    61    31    33    1
    62    90    91    1
    63    56    57    1
    64    43    37   am
    65    28    27    1
    66    28    29    1
    67    92    91    1
    68    27    25   am
    69    26    25    2
    70    25    24    1
    71    57    58    1
    72    24    23    1
    73    91    94    1
    74    37    38    2
    75    37    36    1
    76    95    94    1
    77    30    29    2
    78    23    20   am
    79    61    59    1
    80    58    59    2
    81    94    96    1
    82    36    35    1
    83    36    39    1
    84    59    60    1
    85    20    21    2
    86    20    19    1
    87    39    40    1
    88    19    18    1
    89    19    22    1
    90   136   134    1
    91   118   117    2
    92   121   123   ar
    93   121   120   ar
    94    40    41    1
    95    40    42    1
    96    97    98    1
    97   149   148    2
    98   123   124   ar
    99   119   120    1
   100   119   116    1
   101   120   122   ar
   102   117   116    1
   103   117   129   am
   104   140   139    2
   105   134   135    1
   106   134   133    1
   107    98    99    1
   108    98   101    1
   109   148   147    1
   110   153   151    1
   111   130   133    1
   112   130   129    1
   113   130   131    1
   114   116   115    1
   115   124   122   ar
   116   124   126   ar
   117   147   150    1
   118   147   146    1
   119    99   100    2
   120   122   125   ar
   121   132   131    2
   122   131   137   am
   123   103   102    1
   124   103   104    1
   125   102   101    1
   126   139   146   am
   127   139   138    1
   128   150   151    1
   129   126   128   ar
   130   137   138    1
   131   151   152    1
   132   125   127   ar
   133   138   141    1
   134   104   105    2
   135   114   113    1
   136   114   108    1
   137   128   127   ar
   138   113   112    1
   139   141   142    1
   140   106   105    1
   141   105   107    1
   142   112   109    1
   143   108   109    1
   144   109   110    1
   145   142   143    1
   146   144   143   ar
   147   143   145   ar
   148   110   111    2
