@<TRIPOS>MOLECULE
tmp/5o0xA01.pdb
 163 164 0 0 0
SMALL
GASTEIGER

@<TRIPOS>ATOM
      1  N         55.9390    2.3380   65.7250 N.3    35  TYR35      -0.1241
      2  CA        56.6800    1.4390   64.8540 C.3    35  TYR35       0.1605
      3  C         55.9780    0.0980   64.7080 C.2    35  TYR35       0.2264
      4  O         54.9650   -0.1910   65.3810 O.2    35  TYR35      -0.2867
      5  CB        58.1030    1.2790   65.3520 C.3    35  TYR35       0.0534
      6  CG        58.2790    0.6010   66.7000 C.ar   35  TYR35      -0.0201
      7  CD1       58.1030    1.3070   67.8870 C.ar   35  TYR35      -0.0009
      8  CD2       58.6950   -0.7300   66.7780 C.ar   35  TYR35      -0.0009
      9  CE1       58.3100    0.7130   69.1210 C.ar   35  TYR35       0.0417
     10  CE2       58.9180   -1.3550   67.9990 C.ar   35  TYR35       0.0417
     11  CZ        58.7170   -0.6210   69.1640 C.ar   35  TYR35       0.1957
     12  OH        58.9140   -1.2020   70.3540 O.3    35  TYR35      -0.2866
     13  N         56.9650   -4.3600   63.5390 N.3    37  PHE37      -0.1241
     14  CA        57.9210   -5.4050   63.1560 C.3    37  PHE37       0.1605
     15  C         57.4140   -5.9810   61.8330 C.2    37  PHE37       0.2264
     16  O         56.1940   -6.1630   61.6320 O.2    37  PHE37      -0.2867
     17  CB        58.0160   -6.5190   64.1950 C.3    37  PHE37       0.0534
     18  CG        58.8370   -6.1660   65.3970 C.ar   37  PHE37      -0.0203
     19  CD1       58.2940   -5.4660   66.4740 C.ar   37  PHE37      -0.0042
     20  CD2       60.1630   -6.5240   65.4530 C.ar   37  PHE37      -0.0042
     21  CE1       59.0900   -5.1330   67.5970 C.ar   37  PHE37      -0.0003
     22  CE2       60.9640   -6.1900   66.5460 C.ar   37  PHE37      -0.0003
     23  CZ        60.4310   -5.4990   67.6230 C.ar   37  PHE37      -0.0000
     24  N         62.7710  -14.2210   60.7820 N.3    47  GLU47      -0.1245
     25  CA        63.1910  -12.9840   61.4230 C.3    47  GLU47       0.1567
     26  C         62.1640  -11.8900   61.2680 C.2    47  GLU47       0.2260
     27  O         61.5540  -11.7220   60.2130 O.2    47  GLU47      -0.2867
     28  CB        64.5100  -12.4680   60.8770 C.3    47  GLU47       0.0388
     29  CG        65.7140  -13.2740   61.2640 C.3    47  GLU47       0.1160
     30  CD        67.0220  -12.5490   60.9650 C.2    47  GLU47       0.3649
     31  OE1       67.0140  -11.5250   60.2390 O.co2  47  GLU47      -0.2457
     32  OE2       68.0940  -13.0010   61.4660 O.co2  47  GLU47      -0.2457
     33  N         61.9480   -7.6940   61.9270 N.3    49  HIS49      -0.1227
     34  CA        62.7260   -6.4690   62.1340 C.3    49  HIS49       0.1737
     35  C         61.8350   -5.2590   62.3530 C.2    49  HIS49       0.2438
     36  O         60.8290   -5.0810   61.6580 O.2    49  HIS49      -0.2733
     37  CB        63.6630   -6.1910   60.9730 C.3    49  HIS49       0.0758
     38  CG        64.7820   -7.1650   60.8610 C.ar   49  HIS49       0.0818
     39  ND1       66.0660   -6.8380   61.2070 N.ar   49  HIS49      -0.2268
     40  CD2       64.8100   -8.4670   60.4730 C.ar   49  HIS49       0.1154
     41  CE1       66.8490   -7.8860   61.0200 C.ar   49  HIS49       0.1986
     42  NE2       66.1090   -8.8890   60.5780 N.ar   49  HIS49      -0.2212
     43  N         62.2030   -4.4200   63.3340 N.am   50  PRO50      -0.2718
     44  CA        61.4460   -3.2200   63.6570 C.3    50  PRO50       0.1535
     45  C         61.7960   -1.9960   62.7750 C.2    50  PRO50       0.2599
     46  O         62.9620   -1.7160   62.5360 O.2    50  PRO50      -0.2715
     47  CB        61.8440   -2.9520   65.1080 C.3    50  PRO50       0.0310
     48  CG        63.2210   -3.4800   65.2260 C.3    50  PRO50       0.0237
     49  CD        63.2990   -4.6430   64.3010 C.3    50  PRO50       0.0939
     50  N         60.7710   -1.2810   62.3270 N.am   51  PHE51      -0.1960
     51  CA        60.9470    0.0090   61.6790 C.3    51  PHE51       0.1771
     52  C         59.8270    0.9460   62.0650 C.2    51  PHE51       0.2620
     53  O         58.6560    0.5490   62.1610 O.2    51  PHE51      -0.2715
     54  CB        61.0080   -0.1230   60.1350 C.3    51  PHE51       0.0574
     55  CG        62.0640   -1.0720   59.6450 C.ar   51  PHE51      -0.0200
     56  CD1       63.3590   -0.6520   59.5360 C.ar   51  PHE51      -0.0042
     57  CD2       61.7600   -2.4160   59.3570 C.ar   51  PHE51      -0.0042
     58  CE1       64.3580   -1.5120   59.0980 C.ar   51  PHE51      -0.0003
     59  CE2       62.7540   -3.2840   58.9270 C.ar   51  PHE51      -0.0003
     60  CZ        64.0540   -2.8320   58.7980 C.ar   51  PHE51      -0.0000
     61  N         60.1840    2.2200   62.2130 N.am   52  THR52      -0.1951
     62  CA        59.2040    3.2670   62.4730 C.3    52  THR52       0.1897
     63  C         58.3330    3.4220   61.2270 C.2    52  THR52       0.2313
     64  O         58.8420    3.3460   60.1320 O.2    52  THR52      -0.2863
     65  CB        59.9050    4.6090   62.8070 C.3    52  THR52       0.1794
     66  OG1       60.6630    4.4880   64.0210 O.3    52  THR52      -0.2208
     67  CG2       58.9390    5.6960   62.9630 C.3    52  THR52       0.0378
     68  N         60.8580    3.6350   55.8700 N.3    66  HIS66      -0.1226
     69  CA        62.1040    4.0210   55.2540 C.3    66  HIS66       0.1752
     70  C         63.1960    3.2010   55.9100 C.2    66  HIS66       0.2596
     71  O         63.5940    3.4840   57.0410 O.2    66  HIS66      -0.2718
     72  CB        62.3850    5.5190   55.4250 C.3    66  HIS66       0.0759
     73  CG        61.6030    6.3820   54.4990 C.ar   66  HIS66       0.0818
     74  ND1       60.2330    6.5200   54.5870 N.ar   66  HIS66      -0.2268
     75  CD2       61.9910    7.1310   53.4360 C.ar   66  HIS66       0.1154
     76  CE1       59.8060    7.3060   53.6160 C.ar   66  HIS66       0.1986
     77  NE2       60.8530    7.6960   52.9090 N.ar   66  HIS66      -0.2212
     78  N         63.7110    2.2280   55.1530 N.am   67  ILE67      -0.1966
     79  CA        64.6460    1.1950   55.6210 C.3    67  ILE67       0.1727
     80  C         66.0120    1.3750   55.0330 C.2    67  ILE67       0.2616
     81  O         66.1960    1.2240   53.8420 O.2    67  ILE67      -0.2715
     82  CB        64.1230   -0.2050   55.2230 C.3    67  ILE67       0.0290
     83  CG1       62.7670   -0.4380   55.8870 C.3    67  ILE67       0.0022
     84  CG2       65.1500   -1.2840   55.5720 C.3    67  ILE67       0.0023
     85  CD1       62.0340   -1.6630   55.4310 C.3    67  ILE67       0.0001
     86  N         66.9960    1.6490   55.8690 N.am   68  ARG68      -0.1977
     87  CA        68.3640    1.8240   55.4140 C.3    68  ARG68       0.1597
     88  C         69.1240    0.5150   55.4540 C.2    68  ARG68       0.2287
     89  O         69.1890   -0.1550   56.5110 O.2    68  ARG68      -0.2864
     90  CB        69.0690    2.8230   56.3160 C.3    68  ARG68       0.0334
     91  CG        70.4170    3.2830   55.8210 C.3    68  ARG68       0.0492
     92  CD        70.7150    4.7030   56.2670 C.3    68  ARG68       0.2205
     93  NE        71.9900    5.1070   55.7020 N.pl3  68  ARG68      -0.0865
     94  CZ        73.1810    4.8400   56.2220 C.cat  68  ARG68       0.5346
     95  NH1       73.3160    4.2400   57.3950 N.pl3  68  ARG68       0.1354
     96  NH2       74.2620    5.2110   55.5610 N.pl3  68  ARG68       0.1354
     97  N         71.9200   -1.4470   56.0850 N.3    70  VAL70      -0.1231
     98  CA        73.1150   -1.3580   56.9030 C.3    70  VAL70       0.1692
     99  C         73.6990   -2.7250   57.2500 C.2    70  VAL70       0.2593
    100  O         74.6980   -2.8260   57.9520 O.2    70  VAL70      -0.2718
    101  CB        72.8140   -0.6420   58.2370 C.3    70  VAL70       0.0266
    102  CG1       72.3840    0.7990   57.9810 C.3    70  VAL70       0.0020
    103  CG2       71.7560   -1.4100   59.0510 C.3    70  VAL70       0.0020
    104  N         73.0450   -3.7830   56.8470 N.am   71  GLY71      -0.1942
    105  CA        73.4910   -5.0940   57.2370 C.3    71  GLY71       0.2014
    106  C         72.7500   -6.1480   56.4670 C.2    71  GLY71       0.2640
    107  O         72.1860   -5.8940   55.3890 O.2    71  GLY71      -0.2714
    108  N         72.6680   -7.3120   57.0860 N.am   72  SER72      -0.1935
    109  CA        72.2920   -8.5280   56.4160 C.3    72  SER72       0.2055
    110  C         70.8480   -8.5470   55.9050 C.2    72  SER72       0.2643
    111  O         70.5890   -8.8120   54.7080 O.2    72  SER72      -0.2714
    112  CB        72.5740   -9.7120   57.3720 C.3    72  SER72       0.2130
    113  OG        71.9100  -10.8530   56.9140 O.3    72  SER72      -0.2179
    114  N         69.8830   -8.3400   56.7890 N.am   73  TRP73      -0.1959
    115  CA        68.4940   -8.4770   56.3590 C.3    73  TRP73       0.1771
    116  C         68.0690   -7.2710   55.4790 C.2    73  TRP73       0.2620
    117  O         67.4260   -7.4350   54.4410 O.2    73  TRP73      -0.2715
    118  CB        67.6090   -8.6430   57.5830 C.3    73  TRP73       0.0590
    119  CG        66.1550   -8.8880   57.3340 C.ar   73  TRP73       0.0006
    120  CD1       65.5180  -10.0900   57.3850 C.ar   73  TRP73       0.0946
    121  CD2       65.1440   -7.9120   57.0650 C.ar   73  TRP73       0.0152
    122  NE1       64.1820   -9.9300   57.1470 N.ar   73  TRP73      -0.2442
    123  CE2       63.9230   -8.6040   56.9400 C.ar   73  TRP73       0.0810
    124  CE3       65.1500   -6.5260   56.9210 C.ar   73  TRP73       0.0012
    125  CZ2       62.7200   -7.9630   56.6740 C.ar   73  TRP73       0.0191
    126  CZ3       63.9420   -5.8750   56.6240 C.ar   73  TRP73       0.0001
    127  CH2       62.7520   -6.5930   56.5220 C.ar   73  TRP73       0.0015
    128  N         68.4140   -6.0680   55.9190 N.am   74  THR74      -0.1951
    129  CA        68.0640   -4.8410   55.1920 C.3    74  THR74       0.1897
    130  C         68.7960   -4.7900   53.8400 C.2    74  THR74       0.2313
    131  O         68.1940   -4.4380   52.8430 O.2    74  THR74      -0.2863
    132  CB        68.3750   -3.5630   56.0150 C.3    74  THR74       0.1794
    133  OG1       69.7570   -3.5380   56.4150 O.3    74  THR74      -0.2208
    134  CG2       67.5050   -3.4900   57.2500 C.3    74  THR74       0.0378
    135  N         68.6990    8.3040   59.7820 N.3   128  ILE128     -0.1245
    136  CA        67.4070    7.6240   59.6130 C.3   128  ILE128      0.1561
    137  C         66.5670    7.7470   60.8830 C.2   128  ILE128      0.2260
    138  O         65.3810    7.4520   60.8660 O.2   128  ILE128     -0.2867
    139  CB        67.6040    6.1320   59.1790 C.3   128  ILE128      0.0252
    140  CG1       66.3460    5.5740   58.5400 C.3   128  ILE128      0.0019
    141  CG2       68.0760    5.2240   60.3060 C.3   128  ILE128      0.0019
    142  CD1       65.9650    6.3430   57.2760 C.3   128  ILE128      0.0001
    143  N         62.7540    9.2930   61.0350 N.3   131  THR131     -0.1218
    144  CA        61.4850    8.7090   60.6070 C.3   131  THR131      0.1862
    145  C         60.2920    8.9240   61.5400 C.2   131  THR131      0.2287
    146  O         59.1890    9.1920   61.0530 O.2   131  THR131     -0.2866
    147  CB        61.6660    7.2070   60.2550 C.3   131  THR131      0.1770
    148  OG1       62.3740    6.5290   61.2940 O.3   131  THR131     -0.2211
    149  CG2       62.4880    7.0400   58.9860 C.3   131  THR131      0.0375
    150  N         70.8180    1.3080   66.6690 N.3   258  TRP258     -0.1241
    151  CA        71.0160    1.3970   65.2420 C.3   258  TRP258      0.1605
    152  C         71.5110    2.7570   64.7600 C.2   258  TRP258      0.2264
    153  O         71.8440    2.8830   63.5960 O.2   258  TRP258     -0.2867
    154  CB        69.7450    0.9890   64.4950 C.3   258  TRP258      0.0550
    155  CG        68.5910    1.9580   64.6260 C.ar  258  TRP258      0.0003
    156  CD1       68.2150    2.8960   63.7110 C.ar  258  TRP258      0.0946
    157  CD2       67.6530    2.0500   65.6950 C.ar  258  TRP258      0.0152
    158  NE1       67.1050    3.5400   64.1140 N.ar  258  TRP258     -0.2442
    159  CE2       66.7390    3.0680   65.3470 C.ar  258  TRP258      0.0810
    160  CE3       67.4690    1.3440   66.8980 C.ar  258  TRP258      0.0012
    161  CZ2       65.6690    3.4140   66.1530 C.ar  258  TRP258      0.0191
    162  CZ3       66.4190    1.6660   67.7050 C.ar  258  TRP258      0.0001
    163  CH2       65.5200    2.7100   67.3390 C.ar  258  TRP258      0.0015
@<TRIPOS>BOND
     1   131   130    2
     2    77    75   ar
     3    77    76   ar
     4    75    73   ar
     5    76    74   ar
     6   130   129    1
     7    81    80    2
     8   117   116    2
     9    73    74   ar
    10    73    72    1
    11   111   110    2
    12    80    79    1
    13    80    86   am
    14    78    79    1
    15    78    70   am
    16   129   128    1
    17   129   132    1
    18    82    84    1
    19    82    79    1
    20    82    83    1
    21    69    72    1
    22    69    68    1
    23    69    70    1
    24   107   106    2
    25    87    88    1
    26    87    86    1
    27    87    90    1
    28    85    83    1
    29    88    89    2
    30   116   128   am
    31   116   115    1
    32    96    94    1
    33    93    94    2
    34    93    92    1
    35    91    92    1
    36    91    90    1
    37   110   109    1
    38   110   114   am
    39    70    71    2
    40   132   133    1
    41   132   134    1
    42    97    98    1
    43    94    95    1
    44   115   114    1
    45   115   118    1
    46   109   108    1
    47   109   112    1
    48   106   108   am
    49   106   105    1
    50   127   126   ar
    51   127   125   ar
    52   126   124   ar
    53   125   123   ar
    54   104   105    1
    55   104    99   am
    56    98    99    1
    57    98   101    1
    58   113   112    1
    59   124   121   ar
    60   123   121   ar
    61   123   122   ar
    62   121   119   ar
    63   122   120   ar
    64    99   100    2
    65   142   140    1
    66   119   120   ar
    67   119   118    1
    68   102   101    1
    69   101   103    1
    70   140   139    1
    71    60    59   ar
    72    60    58   ar
    73    59    57   ar
    74   149   147    1
    75    58    56   ar
    76   139   136    1
    77   139   141    1
    78    57    55   ar
    79    56    55   ar
    80   136   135    1
    81   136   137    1
    82    55    54    1
    83    64    63    2
    84    54    51    1
    85    27    26    2
    86    31    30   ar
    87   147   144    1
    88   147   148    1
    89    40    42   ar
    90    40    38   ar
    91    42    41   ar
    92   144   143    1
    93   144   145    1
    94    24    25    1
    95    38    37    1
    96    38    39   ar
    97   138   137    2
    98    28    29    1
    99    28    25    1
   100    30    29    1
   101    30    32   ar
   102    37    34    1
   103    41    39   ar
   104   146   145    2
   105    63    62    1
   106    26    25    1
   107    16    15    2
   108    36    35    2
   109    51    52    1
   110    51    50    1
   111    15    14    1
   112    33    34    1
   113    52    53    2
   114    52    61   am
   115    34    35    1
   116    61    62    1
   117    50    45   am
   118    35    43   am
   119    62    65    1
   120    46    45    2
   121    45    44    1
   122    65    67    1
   123    65    66    1
   124    14    13    1
   125    14    17    1
   126    43    44    1
   127    43    49    1
   128   153   152    2
   129    44    47    1
   130   156   158   ar
   131   156   155   ar
   132   158   159   ar
   133    17    18    1
   134    49    48    1
   135   154   155    1
   136   154   151    1
   137   155   157   ar
   138     3     2    1
   139     3     4    2
   140   152   151    1
   141     2     5    1
   142     2     1    1
   143    47    48    1
   144   151   150    1
   145   159   157   ar
   146   159   161   ar
   147     5     6    1
   148    18    20   ar
   149    18    19   ar
   150    20    22   ar
   151   157   160   ar
   152   161   163   ar
   153    19    21   ar
   154    22    23   ar
   155     6     8   ar
   156     6     7   ar
   157     8    10   ar
   158   160   162   ar
   159   163   162   ar
   160    21    23   ar
   161     7     9   ar
   162    10    11   ar
   163     9    11   ar
   164    11    12    1
