@<TRIPOS>MOLECULE
tmp/5o0yA00.pdb
 185 177 0 0 0
SMALL
GASTEIGER

@<TRIPOS>ATOM
      1  N        -18.2390  -37.6210   29.0080 N.3    13  LEU13      -0.1231
      2  CA       -18.9550  -37.2810   27.7670 C.3    13  LEU13       0.1693
      3  C        -18.2760  -37.8650   26.5310 C.2    13  LEU13       0.2593
      4  O        -18.9420  -38.2600   25.5760 O.2    13  LEU13      -0.2718
      5  CB       -19.0490  -35.7580   27.6140 C.3    13  LEU13       0.0284
      6  CG       -19.9150  -35.0130   28.6340 C.3    13  LEU13       0.0019
      7  CD1      -19.7170  -33.5090   28.5340 C.3    13  LEU13       0.0001
      8  CD2      -21.3840  -35.3650   28.4510 C.3    13  LEU13       0.0001
      9  N        -16.9490  -37.8830   26.5350 N.am   14  GLY14      -0.1942
     10  CA       -16.1920  -38.4570   25.4390 C.3    14  GLY14       0.2014
     11  C        -14.6970  -38.3670   25.6640 C.2    14  GLY14       0.2639
     12  O        -14.2270  -37.7800   26.6490 O.2    14  GLY14      -0.2714
     13  N        -13.9580  -38.9620   24.7340 N.am   15  ARG15      -0.1963
     14  CA       -12.5060  -38.9700   24.7600 C.3    15  ARG15       0.1729
     15  C        -12.0050  -38.3140   23.4890 C.2    15  ARG15       0.2617
     16  O        -12.5510  -38.5520   22.4120 O.2    15  ARG15      -0.2715
     17  CB       -11.9980  -40.4030   24.8460 C.3    15  ARG15       0.0348
     18  CG       -12.5520  -41.1630   26.0350 C.3    15  ARG15       0.0492
     19  CD       -11.7820  -42.4430   26.2990 C.3    15  ARG15       0.2205
     20  NE       -12.0900  -42.9870   27.6240 N.pl3  15  ARG15      -0.0865
     21  CZ       -13.1500  -43.7450   27.9340 C.cat  15  ARG15       0.5346
     22  NH1      -14.0620  -44.0910   27.0160 N.pl3  15  ARG15       0.1354
     23  NH2      -13.3040  -44.1700   29.1920 N.pl3  15  ARG15       0.1354
     24  N        -10.9940  -37.4620   23.6240 N.am   16  GLY16      -0.1940
     25  CA       -10.2570  -36.9270   22.4830 C.3    16  GLY16       0.2014
     26  C         -9.0430  -37.7910   22.1890 C.2    16  GLY16       0.2639
     27  O         -8.9810  -38.9590   22.5920 O.2    16  GLY16      -0.2714
     28  N         -8.0780  -37.2150   21.4770 N.am   17  GLY17      -0.1939
     29  CA        -6.8230  -37.8960   21.1840 C.3    17  GLY17       0.2014
     30  C         -6.0330  -38.1440   22.4520 C.2    17  GLY17       0.2639
     31  O         -5.6760  -39.2850   22.7610 O.2    17  GLY17      -0.2714
     32  N         -5.7760  -37.0650   23.1870 N.am   18  PHE18      -0.1959
     33  CA        -5.0510  -37.1300   24.4520 C.3    18  PHE18       0.1771
     34  C         -5.8150  -36.3490   25.5170 C.2    18  PHE18       0.2620
     35  O         -5.2320  -35.5690   26.2640 O.2    18  PHE18      -0.2715
     36  CB        -3.6230  -36.5970   24.2660 C.3    18  PHE18       0.0574
     37  CG        -2.8630  -37.2920   23.1660 C.ar   18  PHE18      -0.0200
     38  CD1       -2.2670  -38.5380   23.3890 C.ar   18  PHE18      -0.0042
     39  CD2       -2.7680  -36.7210   21.8930 C.ar   18  PHE18      -0.0042
     40  CE1       -1.5770  -39.1910   22.3720 C.ar   18  PHE18      -0.0003
     41  CE2       -2.0810  -37.3720   20.8730 C.ar   18  PHE18      -0.0003
     42  CZ        -1.4840  -38.6070   21.1130 C.ar   18  PHE18      -0.0000
     43  N         -7.1260  -36.5770   25.5810 N.am   19  SER19      -0.1950
     44  CA        -7.9940  -35.9050   26.5500 C.3    19  SER19       0.1924
     45  C         -9.2400  -36.7210   26.8790 C.2    19  SER19       0.2314
     46  O         -9.6410  -37.6100   26.1220 O.2    19  SER19      -0.2863
     47  CB        -8.4110  -34.5260   26.0280 C.3    19  SER19       0.2116
     48  OG        -9.0420  -34.6220   24.7620 O.3    19  SER19      -0.2180
     49  N        -13.2600  -35.7420   28.2830 N.3    21  VAL21      -0.1245
     50  CA       -14.1830  -34.6330   28.4920 C.3    21  VAL21       0.1561
     51  C        -15.2890  -35.0840   29.4390 C.2    21  VAL21       0.2260
     52  O        -15.9870  -36.0580   29.1600 O.2    21  VAL21      -0.2867
     53  CB       -14.7790  -34.1410   27.1600 C.3    21  VAL21       0.0252
     54  CG1      -15.5480  -32.8400   27.3640 C.3    21  VAL21       0.0019
     55  CG2      -13.6710  -33.9530   26.1300 C.3    21  VAL21       0.0019
     56  N        -18.5030  -28.2970   30.4390 N.3    34  ALA34      -0.1245
     57  CA       -17.6880  -29.4200   29.9830 C.3    34  ALA34       0.1562
     58  C        -16.2360  -29.1680   30.3800 C.2    34  ALA34       0.2260
     59  O        -15.6460  -28.1750   29.9510 O.2    34  ALA34      -0.2867
     60  CB       -17.8070  -29.5860   28.4790 C.3    34  ALA34       0.0290
     61  N        -12.5590  -30.4310   29.9640 N.3    36  LYS36      -0.1245
     62  CA       -11.7020  -31.2370   29.1000 C.3    36  LYS36       0.1561
     63  C        -10.3370  -31.3660   29.7620 C.2    36  LYS36       0.2260
     64  O         -9.5640  -30.4100   29.7710 O.2    36  LYS36      -0.2867
     65  CB       -11.5750  -30.5720   27.7270 C.3    36  LYS36       0.0271
     66  CG       -10.6970  -31.3080   26.7240 C.3    36  LYS36       0.0035
     67  CD       -10.8250  -30.6710   25.3490 C.3    36  LYS36       0.0206
     68  CE       -10.0710  -31.4530   24.2850 C.3    36  LYS36       0.1093
     69  NZ        -9.9100  -30.6770   23.0190 N.3    36  LYS36      -0.1314
     70  N         -6.7860  -32.5440   29.6900 N.3    38  HIS38      -0.1241
     71  CA        -5.7140  -32.9220   28.7670 C.3    38  HIS38       0.1621
     72  C         -4.6640  -33.7260   29.5210 C.2    38  HIS38       0.2264
     73  O         -4.1040  -33.2400   30.5000 O.2    38  HIS38      -0.2867
     74  CB        -5.0600  -31.6850   28.1460 C.3    38  HIS38       0.0745
     75  CG        -5.9960  -30.8480   27.3300 C.ar   38  HIS38       0.0817
     76  ND1       -6.0580  -30.9270   25.9560 N.ar   38  HIS38      -0.2268
     77  CD2       -6.9030  -29.9100   27.6970 C.ar   38  HIS38       0.1154
     78  CE1       -6.9640  -30.0740   25.5110 C.ar   38  HIS38       0.1986
     79  NE2       -7.4910  -29.4440   26.5470 N.ar   38  HIS38      -0.2212
     80  N          3.5280  -28.9130   22.4710 N.3    52  TYR52      -0.1241
     81  CA         2.1300  -29.3200   22.6980 C.3    52  TYR52       0.1605
     82  C          1.4450  -28.3610   23.6750 C.2    52  TYR52       0.2264
     83  O          0.2730  -28.0260   23.4950 O.2    52  TYR52      -0.2867
     84  CB         2.0380  -30.7510   23.2410 C.3    52  TYR52       0.0534
     85  CG         0.6140  -31.2420   23.4560 C.ar   52  TYR52      -0.0201
     86  CD1       -0.0860  -30.9460   24.6330 C.ar   52  TYR52      -0.0009
     87  CD2       -0.0400  -31.9960   22.4790 C.ar   52  TYR52      -0.0009
     88  CE1       -1.3860  -31.3940   24.8330 C.ar   52  TYR52       0.0417
     89  CE2       -1.3440  -32.4460   22.6680 C.ar   52  TYR52       0.0417
     90  CZ        -2.0140  -32.1440   23.8440 C.ar   52  TYR52       0.1957
     91  OH        -3.3050  -32.5910   24.0290 O.3    52  TYR52      -0.2866
     92  N         -4.1210  -21.6600   21.2510 N.3    59  GLU59      -0.1245
     93  CA        -5.5400  -21.8720   20.9550 C.3    59  GLU59       0.1567
     94  C         -6.4230  -21.2810   22.0430 C.2    59  GLU59       0.2260
     95  O         -7.4040  -20.6030   21.7390 O.2    59  GLU59      -0.2867
     96  CB        -5.8660  -23.3660   20.8000 C.3    59  GLU59       0.0388
     97  CG        -7.3470  -23.6470   20.5170 C.3    59  GLU59       0.1160
     98  CD        -7.6840  -25.1130   20.2780 C.2    59  GLU59       0.3649
     99  OE1       -6.7640  -25.9290   20.0380 O.co2  59  GLU59      -0.2457
    100  OE2       -8.8910  -25.4480   20.3210 O.co2  59  GLU59      -0.2457
    101  N        -18.6570  -21.8910   20.1460 N.3    72  VAL72      -0.1245
    102  CA       -18.6080  -22.5080   21.4750 C.3    72  VAL72       0.1561
    103  C        -17.7780  -21.6140   22.3820 C.2    72  VAL72       0.2260
    104  O        -16.6800  -21.2100   22.0040 O.2    72  VAL72      -0.2867
    105  CB       -17.9720  -23.9240   21.4420 C.3    72  VAL72       0.0252
    106  CG1      -17.6630  -24.4290   22.8490 C.3    72  VAL72       0.0019
    107  CG2      -18.8870  -24.9090   20.7300 C.3    72  VAL72       0.0019
    108  N        -15.4630  -25.4660   29.0530 N.3    89  LEU89      -0.1231
    109  CA       -16.2390  -25.0090   27.9100 C.3    89  LEU89       0.1693
    110  C        -17.7140  -24.9440   28.2420 C.2    89  LEU89       0.2592
    111  O        -18.1750  -25.5940   29.1780 O.2    89  LEU89      -0.2718
    112  CB       -16.0710  -26.0000   26.7660 C.3    89  LEU89       0.0284
    113  CG       -14.6400  -26.2230   26.2830 C.3    89  LEU89       0.0019
    114  CD1      -14.4540  -27.6610   25.8300 C.3    89  LEU89       0.0001
    115  CD2      -14.3020  -25.2420   25.1710 C.3    89  LEU89       0.0001
    116  N        -18.4460  -24.1600   27.4530 N.am   90  GLU90      -0.1966
    117  CA       -19.9100  -24.2290   27.3720 C.3    90  GLU90       0.1733
    118  C        -20.3270  -25.6770   27.1240 C.2    90  GLU90       0.2616
    119  O        -19.7710  -26.3290   26.2350 O.2    90  GLU90      -0.2715
    120  CB       -20.3700  -23.3270   26.2210 C.3    90  GLU90       0.0429
    121  CG       -21.8410  -23.3630   25.8400 C.3    90  GLU90       0.1163
    122  CD       -22.2060  -22.2970   24.8070 C.2    90  GLU90       0.3649
    123  OE1      -21.3200  -21.7750   24.0860 O.co2  90  GLU90      -0.2457
    124  OE2      -23.4050  -21.9720   24.7140 O.co2  90  GLU90      -0.2457
    125  N        -21.2650  -26.1900   27.9240 N.am   91  TYR91      -0.1960
    126  CA       -21.7650  -27.5620   27.7380 C.3    91  TYR91       0.1771
    127  C        -22.7390  -27.5890   26.5560 C.2    91  TYR91       0.2619
    128  O        -23.7330  -26.8620   26.5630 O.2    91  TYR91      -0.2715
    129  CB       -22.4370  -28.1100   29.0100 C.3    91  TYR91       0.0574
    130  CG       -23.1410  -29.4360   28.7860 C.ar   91  TYR91      -0.0198
    131  CD1      -22.4270  -30.5700   28.4010 C.ar   91  TYR91      -0.0009
    132  CD2      -24.5240  -29.5520   28.9270 C.ar   91  TYR91      -0.0009
    133  CE1      -23.0690  -31.7840   28.1710 C.ar   91  TYR91       0.0417
    134  CE2      -25.1750  -30.7590   28.7020 C.ar   91  TYR91       0.0417
    135  CZ       -24.4480  -31.8730   28.3230 C.ar   91  TYR91       0.1957
    136  OH       -25.0930  -33.0710   28.0980 O.3    91  TYR91      -0.2866
    137  N        -22.4380  -28.4250   25.5560 N.am   92  CYS92      -0.1968
    138  CA       -23.2150  -28.5240   24.3110 C.3    92  CYS92       0.1712
    139  C        -23.7730  -29.9280   24.1030 C.2    92  CYS92       0.2296
    140  O        -23.0250  -30.9090   24.0880 O.2    92  CYS92      -0.2864
    141  CB       -22.3450  -28.1630   23.1060 C.3    92  CYS92       0.0983
    142  SG       -21.8770  -26.4210   23.0130 S.3    92  CYS92      -0.0798
    143  N        -25.9330  -32.9660   21.9630 N.3    94  GLY94      -0.1210
    144  CA       -25.8590  -33.5030   20.6050 C.3    94  GLY94       0.1956
    145  C        -24.4610  -33.9030   20.1710 C.2    94  GLY94       0.2612
    146  O        -23.5410  -33.9960   20.9920 O.2    94  GLY94      -0.2717
    147  N        -24.3240  -34.1450   18.8680 N.am   95  ASN95      -0.1960
    148  CA       -23.0740  -34.5890   18.2440 C.3    95  ASN95       0.1819
    149  C        -22.7380  -33.5710   17.1470 C.2    95  ASN95       0.2621
    150  O        -23.3060  -32.4730   17.1360 O.2    95  ASN95      -0.2715
    151  CB       -23.2500  -36.0210   17.6840 C.3    95  ASN95       0.1195
    152  CG       -21.9950  -36.8900   17.8180 C.2    95  ASN95       0.2630
    153  OD1      -20.8570  -36.4060   17.7690 O.2    95  ASN95      -0.2716
    154  ND2      -22.2090  -38.1940   17.9610 N.am   95  ASN95      -0.0877
    155  N        -21.8270  -33.9280   16.2370 N.am   96  ASP96      -0.1971
    156  CA       -21.3500  -33.0140   15.1930 C.3    96  ASP96       0.1709
    157  C        -21.8120  -33.4250   13.8010 C.2    96  ASP96       0.2293
    158  O        -22.3060  -34.5310   13.6000 O.2    96  ASP96      -0.2864
    159  CB       -19.8130  -32.8370   15.2500 C.3    96  ASP96       0.1436
    160  CG       -19.0420  -34.1560   15.2280 C.2    96  ASP96       0.3671
    161  OD1      -19.3960  -35.0560   14.4350 O.co2  96  ASP96      -0.2456
    162  OD2      -18.0610  -34.2770   16.0010 O.co2  96  ASP96      -0.2456
    163  N        -20.9050  -28.3860   15.4740 N.3   144  LEU144     -0.1245
    164  CA       -21.7500  -29.1000   16.4350 C.3   144  LEU144      0.1561
    165  C        -23.2130  -28.8000   16.1420 C.2   144  LEU144      0.2260
    166  O        -23.5920  -27.6360   16.1080 O.2   144  LEU144     -0.2867
    167  CB       -21.4200  -28.6840   17.8770 C.3   144  LEU144      0.0270
    168  CG       -20.1670  -29.3020   18.5000 C.3   144  LEU144      0.0019
    169  CD1      -18.9130  -28.8370   17.7810 C.3   144  LEU144      0.0001
    170  CD2      -20.0770  -28.9740   19.9830 C.3   144  LEU144      0.0001
    171  N        -16.2070  -24.6810   16.4790 N.3   157  THR157     -0.1203
    172  CA       -15.1910  -24.8310   17.5180 C.3   157  THR157      0.1994
    173  C        -13.8370  -25.1970   16.8840 C.2   157  THR157      0.2617
    174  O        -13.7130  -25.1940   15.6630 O.2   157  THR157     -0.2717
    175  CB       -15.6490  -25.8730   18.5750 C.3   157  THR157      0.1784
    176  OG1      -14.8620  -25.7450   19.7660 O.3   157  THR157     -0.2211
    177  CG2      -15.5520  -27.3030   18.0420 C.3   157  THR157      0.0376
    178  N        -12.8410  -25.4910   17.7240 N.am  158  ASP158     -0.1973
    179  CA       -11.4690  -25.8630   17.3110 C.3   158  ASP158      0.1709
    180  C        -10.5250  -24.9050   16.5740 C.2   158  ASP158      0.2293
    181  O        -10.2130  -25.1120   15.3990 O.2   158  ASP158     -0.2864
    182  CB       -11.4580  -27.1590   16.4740 C.3   158  ASP158      0.1436
    183  CG       -10.0850  -27.8550   16.4500 C.2   158  ASP158      0.3671
    184  OD1       -9.0410  -27.2130   16.7170 O.co2 158  ASP158     -0.2456
    185  OD2      -10.0560  -29.0710   16.1540 O.co2 158  ASP158     -0.2456
@<TRIPOS>BOND
     1   158   157    2
     2   157   156    1
     3   161   160   ar
     4   156   159    1
     5   156   155    1
     6   160   159    1
     7   160   162   ar
     8   181   180    2
     9   163   164    1
    10   174   173    2
    11   166   165    2
    12   165   164    1
    13   185   183   ar
    14   155   149   am
    15   164   167    1
    16   183   182    1
    17   183   184   ar
    18   182   179    1
    19   171   172    1
    20   180   179    1
    21   173   172    1
    22   173   178   am
    23   150   149    2
    24   149   148    1
    25   179   178    1
    26   172   175    1
    27   151   152    1
    28   151   148    1
    29   153   152    2
    30   169   168    1
    31   152   154   am
    32   167   168    1
    33   177   175    1
    34   148   147    1
    35   168   170    1
    36   175   176    1
    37   147   145   am
    38    99    98   ar
    39   101   102    1
    40   145   144    1
    41   145   146    2
    42    98   100   ar
    43    98    97    1
    44    97    96    1
    45   144   143    1
    46   107   105    1
    47    96    93    1
    48    41    42   ar
    49    41    39   ar
    50    93    92    1
    51    93    94    1
    52    42    40   ar
    53    29    28    1
    54    29    30    1
    55   105   102    1
    56   105   106    1
    57   102   103    1
    58    28    26   am
    59    95    94    2
    60    39    37   ar
    61   104   103    2
    62    26    25    1
    63    26    27    2
    64    40    38   ar
    65    16    15    2
    66    30    31    2
    67    30    32   am
    68    80    81    1
    69    87    89   ar
    70    87    85   ar
    71    25    24    1
    72    89    90   ar
    73    81    84    1
    74    81    82    1
    75   142   141    1
    76    69    68    1
    77   141   138    1
    78    37    38   ar
    79    37    36    1
    80    32    33    1
    81    84    85    1
    82    85    86   ar
    83    15    24   am
    84    15    14    1
    85    83    82    2
    86    90    91    1
    87    90    88   ar
    88   123   122   ar
    89   140   139    2
    90   139   138    1
    91    36    33    1
    92    68    67    1
    93   138   137    1
    94    33    34    1
    95    86    88   ar
    96   124   122   ar
    97    13    14    1
    98    13    11   am
    99    14    17    1
   100    48    47    1
   101   122   121    1
   102    17    18    1
   103   115   113    1
   104    67    66    1
   105    10    11    1
   106    10     9    1
   107    78    76   ar
   108    78    79   ar
   109    34    43   am
   110    34    35    2
   111   137   127   am
   112     4     3    2
   113    43    44    1
   114    11    12    2
   115   114   113    1
   116   121   120    1
   117    76    75   ar
   118    47    44    1
   119    18    19    1
   120    46    45    2
   121    55    53    1
   122   120   117    1
   123   119   118    2
   124   113   112    1
   125    19    20    1
   126     3     9   am
   127     3     2    1
   128    79    77   ar
   129    44    45    1
   130   127   128    2
   131   127   126    1
   132    66    65    1
   133   112   109    1
   134    22    21    1
   135   118   117    1
   136   118   125   am
   137    53    54    1
   138    53    50    1
   139    75    77   ar
   140    75    74    1
   141   117   116    1
   142   116   110   am
   143     5     2    1
   144     5     6    1
   145    20    21    2
   146    65    62    1
   147   126   125    1
   148   126   129    1
   149     2     1    1
   150   109   110    1
   151   109   108    1
   152    21    23    1
   153   136   135    1
   154    74    71    1
   155   133   135   ar
   156   133   131   ar
   157   110   111    2
   158    49    50    1
   159   135   134   ar
   160   131   130   ar
   161     8     6    1
   162    60    57    1
   163    50    51    1
   164     7     6    1
   165   134   132   ar
   166    71    72    1
   167    71    70    1
   168   130   132   ar
   169   130   129    1
   170    62    63    1
   171    62    61    1
   172    52    51    2
   173    72    73    2
   174    63    64    2
   175    59    58    2
   176    57    58    1
   177    57    56    1
