@<TRIPOS>MOLECULE
tmp/5o11A00.pdb
 157 146 0 0 0
SMALL
GASTEIGER

@<TRIPOS>ATOM
      1  N         22.3600  115.8560   -4.8130 N.3    11  LEU11      -0.1231
      2  CA        23.2630  116.8840   -5.2880 C.3    11  LEU11       0.1693
      3  C         24.5300  116.2750   -5.9380 C.2    11  LEU11       0.2593
      4  O         25.1740  116.9240   -6.7300 O.2    11  LEU11      -0.2718
      5  CB        23.6630  117.8080   -4.1290 C.3    11  LEU11       0.0284
      6  CG        22.5510  118.6560   -3.4840 C.3    11  LEU11       0.0019
      7  CD1       22.9470  119.2850   -2.1540 C.3    11  LEU11       0.0001
      8  CD2       22.1520  119.7720   -4.4220 C.3    11  LEU11       0.0001
      9  N         24.9120  115.0500   -5.5860 N.am   12  GLY12      -0.1942
     10  CA        26.0550  114.3870   -6.2330 C.3    12  GLY12       0.2014
     11  C         26.7860  113.3750   -5.3620 C.2    12  GLY12       0.2640
     12  O         26.3390  113.0620   -4.2700 O.2    12  GLY12      -0.2714
     13  N         27.8950  112.8480   -5.8720 N.am   13  SER13      -0.1935
     14  CA        28.6290  111.7720   -5.2120 C.3    13  SER13       0.2055
     15  C         30.0750  111.7140   -5.6870 C.2    13  SER13       0.2643
     16  O         30.3750  112.2730   -6.7180 O.2    13  SER13      -0.2714
     17  CB        27.9900  110.4310   -5.5020 C.3    13  SER13       0.2130
     18  OG        28.4620  109.9320   -6.7290 O.3    13  SER13      -0.2179
     19  N         30.9360  111.0020   -4.9500 N.am   14  GLY14      -0.1954
     20  CA        32.3700  110.9880   -5.2210 C.3    14  GLY14       0.1869
     21  C         33.2000  110.3490   -4.1320 C.2    14  GLY14       0.2309
     22  O         33.5610  109.1940   -4.2640 O.2    14  GLY14      -0.2863
     23  N         31.6140  109.9180   -0.7390 N.3    15  GLY15      -0.1225
     24  CA        30.2490  109.4360   -0.5080 C.3    15  GLY15       0.1811
     25  C         29.1800  110.0210   -1.4280 C.2    15  GLY15       0.2280
     26  O         29.4500  110.2690   -2.5870 O.2    15  GLY15      -0.2866
     27  N         25.8670  112.9300   -1.6240 N.3    17  VAL17      -0.1245
     28  CA        25.2870  114.0760   -0.9290 C.3    17  VAL17       0.1561
     29  C         23.9430  114.4490   -1.4770 C.2    17  VAL17       0.2260
     30  O         23.7940  114.5550   -2.6990 O.2    17  VAL17      -0.2867
     31  CB        26.1990  115.2810   -1.0360 C.3    17  VAL17       0.0252
     32  CG1       25.6220  116.4300   -0.2430 C.3    17  VAL17       0.0019
     33  CG2       27.5240  114.9240   -0.4480 C.3    17  VAL17       0.0019
     34  N         22.6980  119.8660    3.9620 N.3    30  ALA30      -0.1245
     35  CA        23.2270  118.8910    3.0500 C.3    30  ALA30       0.1562
     36  C         23.3380  117.5970    3.8540 C.2    30  ALA30       0.2260
     37  O         23.8240  117.5900    4.9770 O.2    30  ALA30      -0.2867
     38  CB        24.5790  119.3410    2.5700 C.3    30  ALA30       0.0290
     39  N         24.8920  113.9140    3.8410 N.3    32  LYS32      -0.1245
     40  CA        25.9600  113.1600    3.1750 C.3    32  LYS32       0.1561
     41  C         26.0650  111.7400    3.7100 C.2    32  LYS32       0.2260
     42  O         26.1620  111.5190    4.9110 O.2    32  LYS32      -0.2867
     43  CB        27.3120  113.8710    3.3970 C.3    32  LYS32       0.0271
     44  CG        28.5080  113.1150    2.8530 C.3    32  LYS32       0.0035
     45  CD        29.7590  113.8650    3.2250 C.3    32  LYS32       0.0206
     46  CE        30.9710  113.3570    2.4890 C.3    32  LYS32       0.1093
     47  NZ        32.1540  114.2550    2.6620 N.3    32  LYS32      -0.1314
     48  N         36.4900  111.6070    9.4430 N.3    54  GLU54      -0.1301
     49  CA        35.7960  112.7870    8.9110 C.3    54  GLU54       0.1252
     50  C         34.9690  113.5520    9.9750 C.3    54  GLU54       0.2009
     51  O         34.9950  114.8420   10.0660 O.3    54  GLU54      -0.2188
     52  CB        34.8920  112.3720    7.7250 C.3    54  GLU54       0.0335
     53  CG        34.3070  113.5520    6.9590 C.3    54  GLU54       0.1156
     54  CD        33.5420  113.1500    5.7240 C.2    54  GLU54       0.3649
     55  OE1       32.7980  113.9910    5.1740 O.co2  54  GLU54      -0.2457
     56  OE2       33.6900  112.0060    5.3040 O.co2  54  GLU54      -0.2457
     57  N         35.5760  117.1720   11.7680 N.3    58  LEU58      -0.1245
     58  CA        34.4890  118.1790   11.6800 C.3    58  LEU58       0.1561
     59  C         34.1170  118.7500   13.0300 C.2    58  LEU58       0.2260
     60  O         33.9290  119.9490   13.1750 O.2    58  LEU58      -0.2867
     61  CB        33.2450  117.5870   11.0210 C.3    58  LEU58       0.0270
     62  CG        33.3910  117.5050    9.4910 C.3    58  LEU58       0.0019
     63  CD1       32.5040  116.4290    8.9230 C.3    58  LEU58       0.0001
     64  CD2       33.1220  118.8480    8.8250 C.3    58  LEU58       0.0001
     65  N         32.8030  124.4960    7.0440 N.3    69  ILE69      -0.1245
     66  CA        31.4520  123.9610    7.0850 C.3    69  ILE69       0.1561
     67  C         31.1370  123.4350    8.4750 C.2    69  ILE69       0.2260
     68  O         31.9590  122.8270    9.0980 O.2    69  ILE69      -0.2867
     69  CB        31.3160  122.8140    6.0480 C.3    69  ILE69       0.0252
     70  CG1       29.8690  122.6210    5.6090 C.3    69  ILE69       0.0019
     71  CG2       31.9450  121.5130    6.5560 C.3    69  ILE69       0.0019
     72  CD1       29.3410  123.7960    4.8020 C.3    69  ILE69       0.0001
     73  N         24.9640  118.4070    7.2930 N.3    85  LEU85      -0.1231
     74  CA        25.9140  119.5180    7.1020 C.3    85  LEU85       0.1693
     75  C         25.1540  120.7700    6.7000 C.2    85  LEU85       0.2592
     76  O         23.9960  120.7330    6.2980 O.2    85  LEU85      -0.2718
     77  CB        26.9670  119.1720    6.0530 C.3    85  LEU85       0.0284
     78  CG        27.8920  118.0250    6.4840 C.3    85  LEU85       0.0019
     79  CD1       28.2030  117.0400    5.3700 C.3    85  LEU85       0.0001
     80  CD2       29.1660  118.6570    7.0310 C.3    85  LEU85       0.0001
     81  N         25.8400  121.8780    6.8600 N.am   86  GLU86      -0.1966
     82  CA        25.3090  123.1850    6.6090 C.3    86  GLU86       0.1733
     83  C         25.1460  123.3010    5.1200 C.2    86  GLU86       0.2616
     84  O         25.9640  122.7460    4.3500 O.2    86  GLU86      -0.2715
     85  CB        26.2680  124.2340    7.2060 C.3    86  GLU86       0.0429
     86  CG        26.4340  125.5230    6.4480 C.3    86  GLU86       0.1163
     87  CD        27.4980  126.4760    7.0510 C.2    86  GLU86       0.3649
     88  OE1       28.4510  126.0690    7.7810 O.co2  86  GLU86      -0.2457
     89  OE2       27.3780  127.6860    6.7560 O.co2  86  GLU86      -0.2457
     90  N         24.0450  123.9430    4.7230 N.am   87  ARG87      -0.1964
     91  CA        23.8600  124.3340    3.3480 C.3    87  ARG87       0.1714
     92  C         23.5350  125.8220    3.2040 C.2    87  ARG87       0.2458
     93  O         22.4100  126.2570    3.5890 O.2    87  ARG87      -0.2730
     94  CB        22.7520  123.5460    2.7030 C.3    87  ARG87       0.0347
     95  CG        22.4460  124.0550    1.2890 C.3    87  ARG87       0.0492
     96  CD        21.8290  122.9520    0.4610 C.3    87  ARG87       0.2205
     97  NE        20.5240  122.5390    0.9990 N.pl3  87  ARG87      -0.0865
     98  CZ        19.3820  123.1960    0.7960 C.cat  87  ARG87       0.5346
     99  NH1       19.3640  124.3270    0.1070 N.pl3  87  ARG87       0.1354
    100  NH2       18.2420  122.7240    1.2800 N.pl3  87  ARG87       0.1354
    101  N         24.5070  126.6000    2.6520 N.am   88  PRO88      -0.2727
    102  CA        24.2230  127.9780    2.2390 C.3    88  PRO88       0.1402
    103  C         23.2670  127.9770    1.0720 C.2    88  PRO88       0.2269
    104  O         23.1800  126.9980    0.3350 O.2    88  PRO88      -0.2865
    105  CB        25.5970  128.5640    1.8460 C.3    88  PRO88       0.0296
    106  CG        26.6150  127.5570    2.2800 C.3    88  PRO88       0.0237
    107  CD        25.9140  126.2230    2.3970 C.3    88  PRO88       0.0939
    108  N         24.0640  129.2440   -3.1920 N.3    91  VAL91      -0.1245
    109  CA        25.4660  128.7980   -3.0590 C.3    91  VAL91       0.1561
    110  C         26.0310  128.3060   -4.3870 C.2    91  VAL91       0.2260
    111  O         25.2830  127.8680   -5.2560 O.2    91  VAL91      -0.2867
    112  CB        25.6160  127.6360   -2.0490 C.3    91  VAL91       0.0252
    113  CG1       24.8870  126.3800   -2.5260 C.3    91  VAL91       0.0019
    114  CG2       27.0800  127.3110   -1.7890 C.3    91  VAL91       0.0019
    115  N         29.8220  126.1520   -5.8550 N.3    93  ASP93      -0.1239
    116  CA        31.1340  125.7390   -5.5230 C.3    93  ASP93       0.1674
    117  C         32.1510  126.4640   -6.4140 C.2    93  ASP93       0.2266
    118  O         31.8230  126.9580   -7.5070 O.2    93  ASP93      -0.2867
    119  CB        31.2240  124.2220   -5.4850 C.3    93  ASP93       0.1410
    120  CG        31.4950  123.5960   -6.8140 C.2    93  ASP93       0.3668
    121  OD1       31.0790  122.4520   -6.9450 O.co2  93  ASP93      -0.2456
    122  OD2       32.1490  124.1710   -7.7160 O.co2  93  ASP93      -0.2456
    123  N         32.9230  126.1110   -1.0160 N.3   138  LEU138     -0.1245
    124  CA        31.5850  126.6350   -1.3860 C.3   138  LEU138      0.1561
    125  C         31.5570  128.1420   -1.2800 C.2   138  LEU138      0.2260
    126  O         32.1640  128.6820   -0.3710 O.2   138  LEU138     -0.2867
    127  CB        30.4710  126.0740   -0.4710 C.3   138  LEU138      0.0270
    128  CG        30.2460  124.5570   -0.4600 C.3   138  LEU138      0.0019
    129  CD1       29.1460  124.1760    0.5130 C.3   138  LEU138      0.0001
    130  CD2       29.9130  124.0260   -1.8470 C.3   138  LEU138      0.0001
    131  N         34.8610  122.5430    2.6310 N.3   149  ILE149     -0.1231
    132  CA        34.1030  121.3270    2.8750 C.3   149  ILE149      0.1692
    133  C         34.9270  120.0710    2.5820 C.2   149  ILE149      0.2592
    134  O         36.0420  120.1480    2.0690 O.2   149  ILE149     -0.2718
    135  CB        32.8260  121.2490    1.9820 C.3   149  ILE149      0.0266
    136  CG1       33.2050  121.3540    0.5140 C.3   149  ILE149      0.0019
    137  CG2       31.7980  122.3090    2.3790 C.3   149  ILE149      0.0020
    138  CD1       32.1010  121.0270   -0.4220 C.3   149  ILE149      0.0001
    139  N         34.3040  118.9230    2.8960 N.am  150  ASP150     -0.1960
    140  CA        34.7670  117.5940    2.5630 C.3   150  ASP150      0.1840
    141  C         36.0970  117.3300    3.2230 C.2   150  ASP150      0.2622
    142  O         37.1360  117.4210    2.5940 O.2   150  ASP150     -0.2715
    143  CB        34.8650  117.3960    1.0770 C.3   150  ASP150      0.1450
    144  CG        35.2720  115.9720    0.6850 C.2   150  ASP150      0.3671
    145  OD1       35.3910  115.0910    1.5680 O.co2 150  ASP150     -0.2456
    146  OD2       35.5030  115.7690   -0.5500 O.co2 150  ASP150     -0.2456
    147  N         36.0020  116.9810    4.5040 N.am  151  PHE151     -0.1974
    148  CA        37.1140  116.5110    5.2870 C.3   151  PHE151      0.1639
    149  C         37.2930  114.9970    5.1990 C.2   151  PHE151      0.2290
    150  O         38.0110  114.4250    6.0330 O.2   151  PHE151     -0.2864
    151  CB        36.9790  116.9500    6.7670 C.3   151  PHE151      0.0560
    152  CG        37.1460  118.4210    6.9720 C.ar  151  PHE151     -0.0200
    153  CD1       38.3390  118.9250    7.4170 C.ar  151  PHE151     -0.0042
    154  CD2       36.1080  119.3100    6.6590 C.ar  151  PHE151     -0.0042
    155  CE1       38.5070  120.2890    7.5690 C.ar  151  PHE151     -0.0003
    156  CE2       36.2870  120.6610    6.7780 C.ar  151  PHE151     -0.0003
    157  CZ        37.4920  121.1560    7.2440 C.ar  151  PHE151     -0.0000
@<TRIPOS>BOND
     1   122   120   ar
     2   118   117    2
     3   121   120   ar
     4   120   119    1
     5     4     3    2
     6    18    17    1
     7    16    15    2
     8   117   116    1
     9    10     9    1
    10    10    11    1
    11     3     9   am
    12     3     2    1
    13    13    11   am
    14    13    14    1
    15   115   116    1
    16    15    14    1
    17    15    19   am
    18   116   119    1
    19    17    14    1
    20    11    12    2
    21     2     1    1
    22     2     5    1
    23   111   110    2
    24    20    19    1
    25    20    21    1
    26     8     6    1
    27   110   109    1
    28    22    21    2
    29     5     6    1
    30     6     7    1
    31   108   109    1
    32   109   112    1
    33    30    29    2
    34    26    25    2
    35   113   112    1
    36   112   114    1
    37   130   128    1
    38    27    28    1
    39    29    28    1
    40    25    24    1
    41   124   125    1
    42   124   123    1
    43   124   127    1
    44   125   126    2
    45    31    28    1
    46    31    33    1
    47    31    32    1
    48    23    24    1
    49   146   144   ar
    50   127   128    1
    51   128   129    1
    52   138   136    1
    53    99    98    1
    54   104   103    2
    55    96    97    1
    56    96    95    1
    57   136   135    1
    58   144   143    1
    59   144   145   ar
    60    98    97    2
    61    98   100    1
    62   103   102    1
    63   143   140    1
    64    95    94    1
    65   105   102    1
    66   105   106    1
    67   135   137    1
    68   135   132    1
    69   134   133    2
    70   102   101    1
    71   106   107    1
    72   107   101    1
    73    46    47    1
    74    46    45    1
    75   140   139    1
    76   140   141    1
    77    38    35    1
    78   133   132    1
    79   133   139   am
    80   142   141    2
    81   131   132    1
    82   101    92   am
    83    94    91    1
    84    44    45    1
    85    44    43    1
    86    35    36    1
    87    35    34    1
    88    40    43    1
    89    40    41    1
    90    40    39    1
    91    92    91    1
    92    92    93    2
    93   141   147   am
    94    91    90    1
    95    41    42    2
    96    36    37    2
    97    84    83    2
    98   147   148    1
    99    90    83   am
   100    72    70    1
   101    83    82    1
   102    55    54   ar
   103   149   148    1
   104   149   150    2
   105   148   151    1
   106    56    54   ar
   107    79    78    1
   108    70    69    1
   109    54    53    1
   110    69    71    1
   111    69    66    1
   112    77    78    1
   113    77    74    1
   114    76    75    2
   115    86    87    1
   116    86    85    1
   117    78    80    1
   118    82    81    1
   119    82    85    1
   120   154   156   ar
   121   154   152   ar
   122    75    81   am
   123    75    74    1
   124    89    87   ar
   125   151   152    1
   126   156   157   ar
   127    53    52    1
   128   152   153   ar
   129    65    66    1
   130    87    88   ar
   131    66    67    1
   132    74    73    1
   133   157   155   ar
   134   153   155   ar
   135    52    49    1
   136    67    68    2
   137    64    62    1
   138    49    48    1
   139    49    50    1
   140    63    62    1
   141    62    61    1
   142    50    51    1
   143    61    58    1
   144    58    57    1
   145    58    59    1
   146    59    60    2
