@<TRIPOS>MOLECULE
tmp/5o12A00.pdb
 164 155 0 0 0
SMALL
GASTEIGER

@<TRIPOS>ATOM
      1  N         65.6040   46.1660    3.4380 N.3    11  LEU11      -0.1231
      2  CA        67.0160   46.3810    3.8080 C.3    11  LEU11       0.1693
      3  C         67.2820   47.7330    4.5390 C.2    11  LEU11       0.2593
      4  O         68.1370   47.8120    5.4150 O.2    11  LEU11      -0.2718
      5  CB        67.8870   46.2980    2.5500 C.3    11  LEU11       0.0284
      6  CG        67.9850   44.9110    1.8940 C.3    11  LEU11       0.0019
      7  CD1       68.6500   44.9780    0.5400 C.3    11  LEU11       0.0001
      8  CD2       68.7810   43.9700    2.7560 C.3    11  LEU11       0.0001
      9  N         66.5630   48.7940    4.1720 N.am   12  GLY12      -0.1942
     10  CA        66.6320   50.1090    4.8710 C.3    12  GLY12       0.2014
     11  C         65.5940   51.0740    4.2790 C.2    12  GLY12       0.2636
     12  O         64.6980   50.6360    3.5360 O.2    12  GLY12      -0.2714
     13  N         65.7180   52.3740    4.5740 N.am   13  SER13      -0.2004
     14  CA        64.7850   53.4230    4.0680 C.3    13  SER13       0.1577
     15  C         64.6310   53.4800    2.5360 C.3    13  SER13       0.1691
     16  O         63.5210   53.5830    1.9810 O.3    13  SER13      -0.3251
     17  CB        65.2450   54.7970    4.5680 C.3    13  SER13       0.2061
     18  OG        65.4220   54.7490    5.9820 O.3    13  SER13      -0.2184
     19  N         61.1560   51.9580    1.3750 N.3    14  SER14      -0.1175
     20  CA        62.2830   52.0030    0.3630 C.3    14  SER14       0.2280
     21  C         63.3100   50.8910    0.5210 C.2    14  SER14       0.2644
     22  O         63.7550   50.6270    1.6070 O.2    14  SER14      -0.2716
     23  CB        63.1020   53.3270    0.3960 C.3    14  SER14       0.2957
     24  OG        63.9010   53.3970   -0.7630 O.3    14  SER14      -0.1877
     25  N         63.6920   50.2370   -0.5570 N.am   15  VAL15      -0.1978
     26  CA        64.7870   49.1780   -0.6110 C.3    15  VAL15       0.1595
     27  C         64.6550   47.7850    0.0260 C.2    15  VAL15       0.2287
     28  O         65.0310   47.5800    1.1850 O.2    15  VAL15      -0.2864
     29  CB        66.2350   49.6350   -0.2950 C.3    15  VAL15       0.0276
     30  CG1       67.2050   49.0300   -1.3220 C.3    15  VAL15       0.0022
     31  CG2       66.3960   51.1220   -0.2940 C.3    15  VAL15       0.0022
     32  N         68.5670   44.3430   -5.4930 N.3    28  ALA28      -0.1245
     33  CA        68.0240   45.2360   -4.5140 C.3    28  ALA28       0.1562
     34  C         66.9770   46.0610   -5.2020 C.2    28  ALA28       0.2260
     35  O         67.2140   46.6120   -6.2570 O.2    28  ALA28      -0.2867
     36  CB        69.1090   46.1210   -3.9410 C.3    28  ALA28       0.0290
     37  N         64.6120   49.2240   -5.0010 N.3    30  LYS30      -0.1231
     38  CA        64.4870   50.5210   -4.3780 C.3    30  LYS30       0.1693
     39  C         63.2720   51.2870   -4.8600 C.2    30  LYS30       0.2592
     40  O         63.1120   51.4860   -6.0020 O.2    30  LYS30      -0.2718
     41  CB        65.7280   51.3380   -4.6870 C.3    30  LYS30       0.0285
     42  CG        65.6780   52.7400   -4.1240 C.3    30  LYS30       0.0035
     43  CD        67.0910   53.3740   -4.1530 C.3    30  LYS30       0.0206
     44  CE        67.0930   54.8530   -3.7760 C.3    30  LYS30       0.1093
     45  NZ        68.5150   55.3630   -3.7200 N.3    30  LYS30      -0.1314
     46  N         62.4720   51.8000   -3.9560 N.am   31  HIS31      -0.1962
     47  CA        61.2460   52.5360   -4.2690 C.3    31  HIS31       0.1787
     48  C         61.4910   53.9500   -3.8640 C.2    31  HIS31       0.2620
     49  O         62.0010   54.1950   -2.7700 O.2    31  HIS31      -0.2715
     50  CB        60.0940   51.9750   -3.4460 C.3    31  HIS31       0.0785
     51  CG        59.7990   50.5400   -3.7380 C.ar   31  HIS31       0.0821
     52  ND1       58.7460   50.1390   -4.5230 N.ar   31  HIS31      -0.2267
     53  CD2       60.4470   49.4050   -3.3780 C.ar   31  HIS31       0.1154
     54  CE1       58.7480   48.8210   -4.6280 C.ar   31  HIS31       0.1986
     55  NE2       59.7810   48.3500   -3.9530 N.ar   31  HIS31      -0.2212
     56  N         61.1830   54.8750   -4.7670 N.am   32  VAL32      -0.1977
     57  CA        61.2580   56.3060   -4.4770 C.3    32  VAL32       0.1596
     58  C         59.9160   56.9770   -4.8410 C.2    32  VAL32       0.2287
     59  O         59.3280   56.7240   -5.9080 O.2    32  VAL32      -0.2864
     60  CB        62.5120   56.9890   -5.1070 C.3    32  VAL32       0.0276
     61  CG1       63.5910   55.9850   -5.5170 C.3    32  VAL32       0.0022
     62  CG2       62.1700   57.8260   -6.2950 C.3    32  VAL32       0.0022
     63  N         58.4430   62.7860   -3.1020 N.3    36  ARG36      -0.1245
     64  CA        59.7020   63.0470   -2.3740 C.3    36  ARG36       0.1563
     65  C         60.8720   63.3780   -3.3020 C.2    36  ARG36       0.2260
     66  O         61.9700   63.6490   -2.8330 O.2    36  ARG36      -0.2867
     67  CB        60.0400   61.8960   -1.4160 C.3    36  ARG36       0.0307
     68  CG        60.8930   62.4780   -0.2590 C.3    36  ARG36       0.0489
     69  CD        61.2740   61.3670    0.7280 C.3    36  ARG36       0.2205
     70  NE        62.0870   60.4080    0.0250 N.pl3  36  ARG36      -0.0865
     71  CZ        61.6650   59.1780   -0.3240 C.cat  36  ARG36       0.5346
     72  NH1       60.5160   58.6410    0.1200 N.pl3  36  ARG36       0.1354
     73  NH2       62.5000   58.5060   -1.1360 N.pl3  36  ARG36       0.1354
     74  N         68.1050   60.6570  -10.4240 N.3    50  GLU50      -0.1245
     75  CA        68.8350   59.4840   -9.9710 C.3    50  GLU50       0.1567
     76  C         69.0340   58.4340  -11.0830 C.2    50  GLU50       0.2260
     77  O         70.0920   57.7730  -11.1800 O.2    50  GLU50      -0.2867
     78  CB        68.0620   58.8530   -8.8040 C.3    50  GLU50       0.0388
     79  CG        68.9100   58.0740   -7.8320 C.3    50  GLU50       0.1160
     80  CD        68.0920   57.4160   -6.7230 C.2    50  GLU50       0.3649
     81  OE1       67.0450   57.9880   -6.3540 O.co2  50  GLU50      -0.2457
     82  OE2       68.5070   56.3270   -6.2420 O.co2  50  GLU50      -0.2457
     83  N         77.4570   50.5920   -7.9520 N.3    65  ILE65      -0.1245
     84  CA        76.2810   49.8040   -8.0700 C.3    65  ILE65       0.1561
     85  C         75.6480   50.0160   -9.4490 C.2    65  ILE65       0.2260
     86  O         75.4710   51.1520   -9.8910 O.2    65  ILE65      -0.2867
     87  CB        75.2800   50.2330   -6.9950 C.3    65  ILE65       0.0252
     88  CG1       74.4510   49.0170   -6.6070 C.3    65  ILE65       0.0019
     89  CG2       74.5310   51.5640   -7.3880 C.3    65  ILE65       0.0019
     90  CD1       75.2790   48.0250   -5.7900 C.3    65  ILE65       0.0001
     91  N         68.4840   47.2530   -8.6790 N.3    81  LEU81      -0.1231
     92  CA        69.8950   47.5070   -8.5390 C.3    81  LEU81       0.1693
     93  C         70.5980   46.1990   -8.3260 C.2    81  LEU81       0.2592
     94  O         70.0030   45.2480   -7.8710 O.2    81  LEU81      -0.2718
     95  CB        70.1520   48.4100   -7.3370 C.3    81  LEU81       0.0284
     96  CG        69.5480   49.7920   -7.4890 C.3    81  LEU81       0.0019
     97  CD1       69.4610   50.5190   -6.1660 C.3    81  LEU81       0.0001
     98  CD2       70.3910   50.6090   -8.4390 C.3    81  LEU81       0.0001
     99  N         71.8940   46.1620   -8.6180 N.am   82  GLU82      -0.1966
    100  CA        72.6660   44.9770   -8.2950 C.3    82  GLU82       0.1733
    101  C         72.8040   44.8030   -6.7890 C.2    82  GLU82       0.2616
    102  O         72.6900   45.7710   -6.0310 O.2    82  GLU82      -0.2715
    103  CB        73.9680   44.9290   -9.1000 C.3    82  GLU82       0.0429
    104  CG        75.2470   45.4060   -8.4820 C.3    82  GLU82       0.1163
    105  CD        76.3370   45.5310   -9.5420 C.2    82  GLU82       0.3649
    106  OE1       77.0540   46.5630   -9.5680 O.co2  82  GLU82      -0.2457
    107  OE2       76.4520   44.6060  -10.3820 O.co2  82  GLU82      -0.2457
    108  N         72.9030   43.5500   -6.3580 N.am   83  ARG83      -0.1964
    109  CA        73.0740   43.2230   -4.9520 C.3    83  ARG83       0.1714
    110  C         74.1370   42.1580   -4.7100 C.2    83  ARG83       0.2458
    111  O         73.8850   40.9720   -4.9200 O.2    83  ARG83      -0.2730
    112  CB        71.7710   42.7410   -4.2960 C.3    83  ARG83       0.0347
    113  CG        72.0060   42.3820   -2.8270 C.3    83  ARG83       0.0492
    114  CD        70.7260   42.1180   -2.0440 C.3    83  ARG83       0.2205
    115  NE        69.8590   41.0800   -2.6320 N.pl3  83  ARG83      -0.0865
    116  CZ        69.9230   39.7760   -2.3590 C.cat  83  ARG83       0.5346
    117  NH1       70.8350   39.2860   -1.5180 N.pl3  83  ARG83       0.1354
    118  NH2       69.0860   38.9530   -2.9640 N.pl3  83  ARG83       0.1354
    119  N         75.2970   42.5600   -4.1890 N.am   84  PRO84      -0.2727
    120  CA        76.3170   41.5880   -3.7900 C.3    84  PRO84       0.1402
    121  C         75.9220   40.9310   -2.4960 C.2    84  PRO84       0.2269
    122  O         75.1470   41.4670   -1.7060 O.2    84  PRO84      -0.2865
    123  CB        77.5570   42.4470   -3.5600 C.3    84  PRO84       0.0296
    124  CG        77.1260   43.8940   -3.7660 C.3    84  PRO84       0.0237
    125  CD        75.6330   43.9170   -3.7290 C.3    84  PRO84       0.0939
    126  N         77.4580   41.0420    1.9350 N.3    87  VAL87      -0.1245
    127  CA        77.7470   42.4120    1.7720 C.3    87  VAL87       0.1561
    128  C         77.6040   43.0710    3.1290 C.2    87  VAL87       0.2260
    129  O         76.8550   42.5830    3.9370 O.2    87  VAL87      -0.2867
    130  CB        76.7220   43.0470    0.8140 C.3    87  VAL87       0.0252
    131  CG1       75.3740   43.2460    1.5210 C.3    87  VAL87       0.0019
    132  CG2       77.2330   44.3610    0.3240 C.3    87  VAL87       0.0019
    133  N         77.0540   55.1790    2.2250 N.3   132  ASN132     -0.1240
    134  CA        76.8180   54.9950    0.8000 C.3   132  ASN132      0.1653
    135  C         77.8750   54.1740    0.1450 C.2   132  ASN132      0.2266
    136  O         78.1200   54.3010   -1.0890 O.2   132  ASN132     -0.2867
    137  CB        76.6410   56.3150    0.1190 C.3   132  ASN132      0.1155
    138  CG        75.3720   56.9880    0.5360 C.2   132  ASN132      0.2627
    139  OD1       74.4340   56.3040    0.9240 O.2   132  ASN132     -0.2716
    140  ND2       75.3170   58.3320    0.4640 N.am  132  ASN132     -0.0877
    141  N         79.2010   50.1310   -0.1250 N.3   134  LEU134     -0.1245
    142  CA        78.9990   48.7240    0.1650 C.3   134  LEU134      0.1561
    143  C         80.2780   47.9650   -0.0230 C.2   134  LEU134      0.2260
    144  O         81.0320   48.2340   -0.9530 O.2   134  LEU134     -0.2867
    145  CB        77.9150   48.1000   -0.7110 C.3   134  LEU134      0.0270
    146  CG        76.5170   48.6480   -0.4480 C.3   134  LEU134      0.0019
    147  CD1       75.5640   47.9560   -1.4060 C.3   134  LEU134      0.0001
    148  CD2       76.0950   48.4830    1.0120 C.3   134  LEU134      0.0001
    149  N         76.9040   53.6450   -3.6540 N.3   145  ILE145     -0.1231
    150  CA        75.4510   53.5650   -3.8510 C.3   145  ILE145      0.1692
    151  C         74.8290   54.8980   -3.6180 C.2   145  ILE145      0.2592
    152  O         75.4700   55.8450   -3.1650 O.2   145  ILE145     -0.2718
    153  CB        74.7520   52.5340   -2.9120 C.3   145  ILE145      0.0266
    154  CG1       75.0400   52.8080   -1.4530 C.3   145  ILE145      0.0019
    155  CG2       75.2740   51.1200   -3.2210 C.3   145  ILE145      0.0020
    156  CD1       73.9850   52.3240   -0.4560 C.3   145  ILE145      0.0001
    157  N         73.5510   54.9320   -3.9290 N.am  146  ASP146     -0.1974
    158  CA        72.6540   56.0260   -3.6480 C.3   146  ASP146      0.1709
    159  C         73.0650   57.2930   -4.3370 C.2   146  ASP146      0.2293
    160  O         73.6420   58.2150   -3.7250 O.2   146  ASP146     -0.2864
    161  CB        72.4160   56.2260   -2.1590 C.3   146  ASP146      0.1436
    162  CG        71.2590   57.2390   -1.8570 C.2   146  ASP146      0.3671
    163  OD1       70.5650   57.7350   -2.7870 O.co2 146  ASP146     -0.2456
    164  OD2       71.0600   57.5340   -0.6480 O.co2 146  ASP146     -0.2456
@<TRIPOS>BOND
     1    77    76    2
     2    76    75    1
     3    74    75    1
     4   107   105   ar
     5    75    78    1
     6    86    85    2
     7   106   105   ar
     8   105   104    1
     9    85    84    1
    10   103   104    1
    11   103   100    1
    12    78    79    1
    13    91    92    1
    14    99    93   am
    15    99   100    1
    16    92    93    1
    17    92    95    1
    18    98    96    1
    19    93    94    2
    20   100   101    1
    21    84    83    1
    22    84    87    1
    23    79    80    1
    24    96    95    1
    25    96    97    1
    26    89    87    1
    27    87    88    1
    28   101   108   am
    29   101   102    2
    30    80    81   ar
    31    80    82   ar
    32    88    90    1
    33   108   109    1
    34    62    60    1
    35    35    34    2
    36    40    39    2
    37    59    58    2
    38    61    60    1
    39    32    33    1
    40    34    33    1
    41    60    57    1
    42    37    38    1
    43   109   110    1
    44   109   112    1
    45   111   110    2
    46    39    38    1
    47    39    46   am
    48    58    57    1
    49    56    57    1
    50    56    48   am
    51   110   119   am
    52    41    38    1
    53    41    42    1
    54    54    52   ar
    55    54    55   ar
    56    52    51   ar
    57    33    36    1
    58   159   160    2
    59   159   158    1
    60   112   113    1
    61    47    46    1
    62    47    48    1
    63    47    50    1
    64   119   120    1
    65   119   125    1
    66    43    42    1
    67    43    44    1
    68    55    53   ar
    69   157   158    1
    70   157   151   am
    71    48    49    2
    72   150   149    1
    73   150   151    1
    74   150   153    1
    75   120   123    1
    76   120   121    1
    77    44    45    1
    78   124   125    1
    79   124   123    1
    80    51    50    1
    81    51    53   ar
    82   158   161    1
    83   151   152    2
    84    65    66    2
    85    65    64    1
    86   155   153    1
    87    63    64    1
    88   118   116    1
    89   153   154    1
    90   113   114    1
    91   163   162   ar
    92   115   116    2
    93   115   114    1
    94   121   122    2
    95    64    67    1
    96   116   117    1
    97   161   162    1
    98   162   164   ar
    99   154   156    1
   100    67    68    1
   101   147   146    1
   102    30    29    1
   103    73    71    1
   104   136   135    2
   105   144   143    2
   106    24    23    1
   107   145   146    1
   108   145   142    1
   109    26    25    1
   110    26    29    1
   111    26    27    1
   112    25    21   am
   113   146   148    1
   114    71    70    2
   115    71    72    1
   116    29    31    1
   117    68    69    1
   118   141   142    1
   119   143   142    1
   120    70    69    1
   121    27    28    2
   122   137   138    1
   123   137   134    1
   124   135   134    1
   125   132   130    1
   126    20    23    1
   127    20    21    1
   128    20    19    1
   129    23    16    1
   130   140   138   am
   131    21    22    2
   132   138   139    2
   133     7     6    1
   134   134   133    1
   135   130   131    1
   136   130   127    1
   137   127   126    1
   138   127   128    1
   139     6     5    1
   140     6     8    1
   141    16    15    1
   142    15    14    1
   143     5     2    1
   144   128   129    2
   145     1     2    1
   146    12    11    2
   147     2     3    1
   148    14    17    1
   149    14    13    1
   150     9     3   am
   151     9    10    1
   152    11    13   am
   153    11    10    1
   154     3     4    2
   155    17    18    1
