@<TRIPOS>MOLECULE
tmp/5o13A00.pdb
 161 150 0 0 0
SMALL
GASTEIGER

@<TRIPOS>ATOM
      1  N        -65.0410   45.1120   -6.2290 N.3    11  LEU11      -0.1231
      2  CA       -66.4580   45.3300   -6.5830 C.3    11  LEU11       0.1693
      3  C        -66.6850   46.6130   -7.3460 C.2    11  LEU11       0.2592
      4  O        -67.5790   46.6910   -8.1560 O.2    11  LEU11      -0.2718
      5  CB       -67.3400   45.3610   -5.3470 C.3    11  LEU11       0.0284
      6  CG       -67.5430   43.9950   -4.6730 C.3    11  LEU11       0.0019
      7  CD1      -68.3090   44.1120   -3.3690 C.3    11  LEU11       0.0001
      8  CD2      -68.2750   43.0310   -5.5850 C.3    11  LEU11       0.0001
      9  N        -65.8880   47.6350   -7.0950 N.am   12  GLY12      -0.1957
     10  CA       -66.0680   48.9210   -7.7670 C.3    12  GLY12       0.1869
     11  C        -65.2000   49.9540   -7.1250 C.2    12  GLY12       0.2309
     12  O        -64.6510   49.7250   -6.0420 O.2    12  GLY12      -0.2863
     13  N        -66.0980   57.2340   -3.8270 N.3    16  PHE16      -0.1241
     14  CA       -66.1830   56.5640   -2.5160 C.3    16  PHE16       0.1605
     15  C        -64.9160   55.7530   -2.1320 C.2    16  PHE16       0.2264
     16  O        -64.8350   55.2480   -1.0320 O.2    16  PHE16      -0.2867
     17  CB       -67.4000   55.5930   -2.4860 C.3    16  PHE16       0.0534
     18  CG       -67.4370   54.6360   -3.6470 C.ar   16  PHE16      -0.0203
     19  CD1      -68.0200   55.0070   -4.8500 C.ar   16  PHE16      -0.0042
     20  CD2      -66.8340   53.3980   -3.5570 C.ar   16  PHE16      -0.0042
     21  CE1      -67.9940   54.1620   -5.9630 C.ar   16  PHE16      -0.0003
     22  CE2      -66.8030   52.5510   -4.6560 C.ar   16  PHE16      -0.0003
     23  CZ       -67.3840   52.9270   -5.8650 C.ar   16  PHE16      -0.0000
     24  N        -63.5910   49.3480   -3.2220 N.3    19  VAL19      -0.1245
     25  CA       -64.4100   48.4810   -2.4260 C.3    19  VAL19       0.1561
     26  C        -64.2390   47.0810   -2.9680 C.2    19  VAL19       0.2260
     27  O        -64.4660   46.8820   -4.1280 O.2    19  VAL19      -0.2867
     28  CB       -65.8800   48.8890   -2.5380 C.3    19  VAL19       0.0252
     29  CG1      -66.7810   47.8600   -1.8880 C.3    19  VAL19       0.0019
     30  CG2      -66.0980   50.1930   -1.8350 C.3    19  VAL19       0.0019
     31  N        -67.8000   43.5460    2.7060 N.3    32  ALA32      -0.1245
     32  CA       -67.2730   44.4150    1.6800 C.3    32  ALA32       0.1562
     33  C        -66.2180   45.2430    2.3840 C.2    32  ALA32       0.2260
     34  O        -66.4030   45.6500    3.5120 O.2    32  ALA32      -0.2867
     35  CB       -68.3780   45.3120    1.0820 C.3    32  ALA32       0.0290
     36  N        -63.8640   48.4060    2.2660 N.3    34  LYS34      -0.1245
     37  CA       -63.7280   49.6930    1.5930 C.3    34  LYS34       0.1561
     38  C        -62.5070   50.5090    2.0000 C.2    34  LYS34       0.2260
     39  O        -62.3390   50.7990    3.1510 O.2    34  LYS34      -0.2867
     40  CB       -64.9650   50.4950    1.9010 C.3    34  LYS34       0.0271
     41  CG       -65.0740   51.8670    1.2910 C.3    34  LYS34       0.0035
     42  CD       -66.3790   52.4790    1.7890 C.3    34  LYS34       0.0206
     43  CE       -66.9380   53.5020    0.8320 C.3    34  LYS34       0.1093
     44  NZ       -68.3250   53.9350    1.2250 N.3    34  LYS34      -0.1314
     45  N        -76.7950   50.0360    5.5030 N.3    71  ILE71      -0.1245
     46  CA       -75.6340   49.1390    5.5950 C.3    71  ILE71       0.1561
     47  C        -74.9920   49.2140    6.9840 C.2    71  ILE71       0.2260
     48  O        -74.9540   50.2740    7.6010 O.2    71  ILE71      -0.2867
     49  CB       -74.6100   49.5880    4.5320 C.3    71  ILE71       0.0252
     50  CG1      -73.7070   48.4050    4.0800 C.3    71  ILE71       0.0019
     51  CG2      -73.9170   50.8950    4.9650 C.3    71  ILE71       0.0019
     52  CD1      -74.4140   47.5670    3.0180 C.3    71  ILE71       0.0001
     53  N        -67.7620   46.3600    5.8300 N.3    87  LEU87      -0.1231
     54  CA       -69.2380   46.5350    5.7430 C.3    87  LEU87       0.1693
     55  C        -69.9050   45.2160    5.5100 C.2    87  LEU87       0.2592
     56  O        -69.3430   44.3210    4.9200 O.2    87  LEU87      -0.2718
     57  CB       -69.5980   47.4780    4.6010 C.3    87  LEU87       0.0284
     58  CG       -68.9550   48.8240    4.9190 C.3    87  LEU87       0.0019
     59  CD1      -68.4720   49.5280    3.6460 C.3    87  LEU87       0.0001
     60  CD2      -69.8950   49.6810    5.7370 C.3    87  LEU87       0.0001
     61  N        -71.1280   45.0980    5.9650 N.am   88  GLU88      -0.1966
     62  CA       -71.8910   43.9060    5.6870 C.3    88  GLU88       0.1733
     63  C        -72.1000   43.7910    4.1880 C.2    88  GLU88       0.2616
     64  O        -72.2280   44.7900    3.5330 O.2    88  GLU88      -0.2715
     65  CB       -73.2010   43.9190    6.4790 C.3    88  GLU88       0.0429
     66  CG       -74.4600   44.2480    5.7190 C.3    88  GLU88       0.1163
     67  CD       -75.6670   44.4200    6.6540 C.2    88  GLU88       0.3649
     68  OE1      -75.9880   43.4810    7.4470 O.co2  88  GLU88      -0.2457
     69  OE2      -76.2970   45.4980    6.5940 O.co2  88  GLU88      -0.2457
     70  N        -72.0590   42.5660    3.6680 N.am   89  ARG89      -0.1964
     71  CA       -72.3140   42.2800    2.2410 C.3    89  ARG89       0.1714
     72  C        -73.4220   41.2610    2.0140 C.2    89  ARG89       0.2458
     73  O        -73.2440   40.0900    2.2730 O.2    89  ARG89      -0.2730
     74  CB       -71.0600   41.7830    1.5250 C.3    89  ARG89       0.0347
     75  CG       -71.2860   41.4870    0.0410 C.3    89  ARG89       0.0492
     76  CD       -69.9970   41.2880   -0.7360 C.3    89  ARG89       0.2205
     77  NE       -69.1470   40.2290   -0.1710 N.pl3  89  ARG89      -0.0865
     78  CZ       -69.2770   38.9210   -0.4310 C.cat  89  ARG89       0.5346
     79  NH1      -70.2240   38.4730   -1.2650 N.pl3  89  ARG89       0.1354
     80  NH2      -68.4450   38.0480    0.1300 N.pl3  89  ARG89       0.1354
     81  N        -74.5700   41.7030    1.5080 N.am   90  PRO90      -0.2727
     82  CA       -75.6230   40.7530    1.1350 C.3    90  PRO90       0.1402
     83  C        -75.2000   39.9860   -0.0720 C.2    90  PRO90       0.2269
     84  O        -74.4170   40.4890   -0.9090 O.2    90  PRO90      -0.2865
     85  CB       -76.8080   41.6470    0.7360 C.3    90  PRO90       0.0296
     86  CG       -76.4880   42.9990    1.2540 C.3    90  PRO90       0.0237
     87  CD       -74.9970   43.1030    1.3540 C.3    90  PRO90       0.0939
     88  N        -76.4230   40.2110   -4.4840 N.3    93  VAL93      -0.1231
     89  CA       -76.7270   41.6160   -4.3680 C.3    93  VAL93       0.1692
     90  C        -76.4960   42.2890   -5.7110 C.2    93  VAL93       0.2592
     91  O        -75.7060   41.8500   -6.5050 O.2    93  VAL93      -0.2718
     92  CB       -75.8870   42.2660   -3.2510 C.3    93  VAL93       0.0266
     93  CG1      -74.4260   42.2980   -3.6040 C.3    93  VAL93       0.0020
     94  CG2      -76.3070   43.6720   -3.0120 C.3    93  VAL93       0.0020
     95  N        -77.2290   43.3480   -5.9750 N.am   94  GLN94      -0.1966
     96  CA       -77.0720   44.1280   -7.1970 C.3    94  GLN94       0.1733
     97  C        -77.4430   45.5700   -6.9130 C.2    94  GLN94       0.2616
     98  O        -78.3940   45.8200   -6.2110 O.2    94  GLN94      -0.2715
     99  CB       -77.9710   43.6200   -8.2830 C.3    94  GLN94       0.0408
    100  CG       -77.6940   44.3700   -9.5650 C.3    94  GLN94       0.0908
    101  CD       -78.5560   43.9020  -10.6920 C.2    94  GLN94       0.2608
    102  OE1      -79.6710   43.4630  -10.4610 O.2    94  GLN94      -0.2717
    103  NE2      -78.0550   43.9940  -11.9190 N.am   94  GLN94      -0.0878
    104  N        -76.7070   46.5040   -7.4780 N.am   95  ASP95      -0.1971
    105  CA       -76.8630   47.8650   -7.1670 C.3    95  ASP95       0.1709
    106  C        -78.0100   48.3830   -8.0320 C.2    95  ASP95       0.2293
    107  O        -78.3060   47.8480   -9.0660 O.2    95  ASP95      -0.2864
    108  CB       -75.4980   48.5160   -7.2580 C.3    95  ASP95       0.1436
    109  CG       -75.4290   49.6460   -8.2130 C.2    95  ASP95       0.3671
    110  OD1      -74.9270   50.6980   -7.7540 O.co2  95  ASP95      -0.2456
    111  OD2      -75.8150   49.4990   -9.4040 O.co2  95  ASP95      -0.2456
    112  N        -77.4420   49.4330  -11.7570 N.3    98  ASP98      -0.1239
    113  CA       -77.3580   48.2270  -12.6110 C.3    98  ASP98       0.1674
    114  C        -78.6890   47.5650  -12.9020 C.2    98  ASP98       0.2266
    115  O        -78.9680   47.1850  -14.0250 O.2    98  ASP98      -0.2867
    116  CB       -76.3620   47.2260  -12.0330 C.3    98  ASP98       0.1410
    117  CG       -74.9390   47.6940  -12.2210 C.2    98  ASP98       0.3668
    118  OD1      -74.6330   48.1300  -13.3500 O.co2  98  ASP98      -0.2456
    119  OD2      -74.1360   47.6770  -11.2630 O.co2  98  ASP98      -0.2456
    120  N        -80.1370   47.1180  -16.6620 N.3   102  GLU102     -0.1245
    121  CA       -80.5220   45.8170  -17.2420 C.3   102  GLU102      0.1567
    122  C        -82.0250   45.7840  -17.4500 C.2   102  GLU102      0.2260
    123  O        -82.4860   45.1680  -18.3860 O.2   102  GLU102     -0.2867
    124  CB       -80.0270   44.5610  -16.4470 C.3   102  GLU102      0.0388
    125  CG       -78.5610   44.3420  -16.4510 C.3   102  GLU102      0.1160
    126  CD       -78.0750   43.3060  -15.4550 C.2   102  GLU102      0.3649
    127  OE1      -78.8720   42.7960  -14.6290 O.co2 102  GLU102     -0.2457
    128  OE2      -76.8980   43.0370  -15.3830 O.co2 102  GLU102     -0.2457
    129  N        -77.1690   54.3860   -7.6030 N.3   137  GLU137     -0.1245
    130  CA       -75.8700   53.8180   -7.3450 C.3   137  GLU137      0.1567
    131  C        -75.5630   53.6320   -5.8830 C.2   137  GLU137      0.2260
    132  O        -74.6710   52.8620   -5.5890 O.2   137  GLU137     -0.2867
    133  CB       -74.7720   54.7390   -7.8890 C.3   137  GLU137      0.0388
    134  CG       -74.8420   55.0120   -9.3800 C.3   137  GLU137      0.1160
    135  CD       -73.7390   55.9380   -9.8690 C.2   137  GLU137      0.3649
    136  OE1      -73.9750   57.1600  -10.0190 O.co2 137  GLU137     -0.2457
    137  OE2      -72.6350   55.4320  -10.1260 O.co2 137  GLU137     -0.2457
    138  N        -78.3330   49.2730   -2.6950 N.3   140  LEU140     -0.1245
    139  CA       -78.0950   47.8870   -3.0020 C.3   140  LEU140      0.1561
    140  C        -79.4060   47.1310   -2.8390 C.2   140  LEU140      0.2260
    141  O        -80.1760   47.4420   -1.9540 O.2   140  LEU140     -0.2867
    142  CB       -77.0350   47.3100   -2.0480 C.3   140  LEU140      0.0270
    143  CG       -75.6190   47.9060   -2.2040 C.3   140  LEU140      0.0019
    144  CD1      -74.5860   47.1550   -1.3620 C.3   140  LEU140      0.0001
    145  CD2      -75.1910   47.9330   -3.6610 C.3   140  LEU140      0.0001
    146  N        -76.1440   52.8240    0.9870 N.3   151  ILE151     -0.1231
    147  CA       -74.7360   52.8080    1.2250 C.3   151  ILE151      0.1692
    148  C        -74.0990   54.1400    0.8980 C.2   151  ILE151      0.2592
    149  O        -74.7170   55.0480    0.3150 O.2   151  ILE151     -0.2718
    150  CB       -73.9920   51.7630    0.3490 C.3   151  ILE151      0.0266
    151  CG1      -74.2350   52.0280   -1.1140 C.3   151  ILE151      0.0019
    152  CG2      -74.3950   50.3340    0.7320 C.3   151  ILE151      0.0020
    153  CD1      -73.3300   51.2410   -2.0240 C.3   151  ILE151      0.0001
    154  N        -72.8090   54.2070    1.2390 N.am  152  ASP152     -0.1974
    155  CA       -71.9190   55.3380    0.9930 C.3   152  ASP152      0.1709
    156  C        -72.3200   56.6320    1.6520 C.2   152  ASP152      0.2293
    157  O        -72.8250   57.5600    1.0420 O.2   152  ASP152     -0.2864
    158  CB       -71.5790   55.5940   -0.4710 C.3   152  ASP152      0.1436
    159  CG       -70.3550   56.6110   -0.6260 C.2   152  ASP152      0.3671
    160  OD1      -70.2620   57.2010   -1.7390 O.co2 152  ASP152     -0.2456
    161  OD2      -69.4930   56.8180    0.3440 O.co2 152  ASP152     -0.2456
@<TRIPOS>BOND
     1   123   122    2
     2   122   121    1
     3   121   120    1
     4   121   124    1
     5   125   124    1
     6   125   126    1
     7   126   128   ar
     8   126   127   ar
     9   115   114    2
    10   118   117   ar
    11   114   113    1
    12   113   116    1
    13   113   112    1
    14   117   116    1
    15   117   119   ar
    16   103   101   am
    17   101   102    2
    18   101   100    1
    19   137   135   ar
    20   136   135   ar
    21   135   134    1
    22   100    99    1
    23   111   109   ar
    24   134   133    1
    25   107   106    2
    26    99    96    1
    27   109   110   ar
    28   109   108    1
    29     4     3    2
    30   106   105    1
    31   133   130    1
    32    10    11    1
    33    10     9    1
    34   129   130    1
    35   104   105    1
    36   104    97   am
    37     3     9   am
    38     3     2    1
    39   130   131    1
    40   108   105    1
    41    96    97    1
    42    96    95    1
    43    11    12    2
    44    97    98    2
    45     2     1    1
    46     2     5    1
    47    91    90    2
    48    95    90   am
    49    21    23   ar
    50    21    19   ar
    51   131   132    2
    52    23    22   ar
    53    90    89    1
    54     8     6    1
    55     5     6    1
    56    19    18   ar
    57     6     7    1
    58    22    20   ar
    59    88    89    1
    60    89    92    1
    61    27    26    2
    62    13    14    1
    63   145   143    1
    64    18    20   ar
    65    18    17    1
    66    93    92    1
    67    92    94    1
    68    24    25    1
    69   139   140    1
    70   139   138    1
    71   139   142    1
    72    26    25    1
    73   140   141    2
    74    28    25    1
    75    28    29    1
    76    28    30    1
    77    14    17    1
    78    14    15    1
    79   143   142    1
    80   143   144    1
    81    15    16    2
    82   153   151    1
    83   160   159   ar
    84    79    78    1
    85   151   150    1
    86    84    83    2
    87    76    77    1
    88    76    75    1
    89   159   158    1
    90   159   161   ar
    91   158   155    1
    92    78    77    2
    93    78    80    1
    94    83    82    1
    95    75    74    1
    96   149   148    2
    97   150   152    1
    98   150   147    1
    99    85    82    1
   100    85    86    1
   101    43    44    1
   102    43    42    1
   103   148   147    1
   104   148   154   am
   105   146   147    1
   106   155   154    1
   107   155   156    1
   108   157   156    2
   109    35    32    1
   110    82    81    1
   111    86    87    1
   112    41    42    1
   113    41    40    1
   114    87    81    1
   115    81    72   am
   116    74    71    1
   117    37    40    1
   118    37    38    1
   119    37    36    1
   120    32    33    1
   121    32    31    1
   122    38    39    2
   123    72    71    1
   124    72    73    2
   125    71    70    1
   126    33    34    2
   127    52    50    1
   128    64    63    2
   129    59    58    1
   130    70    63   am
   131    50    49    1
   132    63    62    1
   133    49    51    1
   134    49    46    1
   135    57    58    1
   136    57    54    1
   137    58    60    1
   138    56    55    2
   139    45    46    1
   140    55    54    1
   141    55    61   am
   142    46    47    1
   143    62    61    1
   144    62    65    1
   145    66    65    1
   146    66    67    1
   147    54    53    1
   148    69    67   ar
   149    67    68   ar
   150    47    48    2
