@<TRIPOS>MOLECULE
tmp/5o1aA00.pdb
 140 141 0 0 0
SMALL
GASTEIGER

@<TRIPOS>ATOM
      1  N        100.8200   95.5930  -41.1580 N.3    14  PHE14      -0.1241
      2  CA       100.1160   94.6040  -40.3460 C.3    14  PHE14       0.1605
      3  C        100.5390   94.6900  -38.8870 C.2    14  PHE14       0.2264
      4  O        101.7350   94.7090  -38.5820 O.2    14  PHE14      -0.2867
      5  CB       100.4520   93.2070  -40.8640 C.3    14  PHE14       0.0534
      6  CG        99.8600   92.0930  -40.0450 C.ar   14  PHE14      -0.0203
      7  CD1       98.4960   91.8590  -40.0590 C.ar   14  PHE14      -0.0042
      8  CD2      100.6740   91.2710  -39.2760 C.ar   14  PHE14      -0.0042
      9  CE1       97.9430   90.8290  -39.3260 C.ar   14  PHE14      -0.0003
     10  CE2      100.1310   90.2180  -38.5350 C.ar   14  PHE14      -0.0003
     11  CZ        98.7650   89.9950  -38.5620 C.ar   14  PHE14      -0.0000
     12  N         93.1270   92.2900  -35.8480 N.3    50  LEU50      -0.1231
     13  CA        94.0800   92.4220  -36.9350 C.3    50  LEU50       0.1693
     14  C         93.8800   93.7970  -37.5480 C.2    50  LEU50       0.2592
     15  O         92.7440   94.1840  -37.8380 O.2    50  LEU50      -0.2718
     16  CB        93.8220   91.3490  -37.9920 C.3    50  LEU50       0.0284
     17  CG        93.7710   89.9210  -37.4410 C.3    50  LEU50       0.0019
     18  CD1       93.4360   88.9360  -38.5540 C.3    50  LEU50       0.0001
     19  CD2       95.0860   89.5510  -36.7680 C.3    50  LEU50       0.0001
     20  N         94.9710   94.5410  -37.7070 N.am   51  TRP51      -0.1962
     21  CA        94.9420   95.8820  -38.2740 C.3    51  TRP51       0.1771
     22  C         95.9170   95.9480  -39.4360 C.2    51  TRP51       0.2619
     23  O         97.0190   95.3920  -39.3590 O.2    51  TRP51      -0.2715
     24  CB        95.3810   96.9160  -37.2300 C.3    51  TRP51       0.0590
     25  CG        94.4170   97.1060  -36.1100 C.ar   51  TRP51       0.0006
     26  CD1       94.3910   96.4270  -34.9190 C.ar   51  TRP51       0.0946
     27  CD2       93.3400   98.0460  -36.0580 C.ar   51  TRP51       0.0152
     28  NE1       93.3600   96.8930  -34.1310 N.ar   51  TRP51      -0.2442
     29  CE2       92.6960   97.8790  -34.8130 C.ar   51  TRP51       0.0810
     30  CE3       92.8530   99.0060  -36.9460 C.ar   51  TRP51       0.0012
     31  CZ2       91.5930   98.6440  -34.4360 C.ar   51  TRP51       0.0191
     32  CZ3       91.7490   99.7560  -36.5720 C.ar   51  TRP51       0.0001
     33  CH2       91.1380   99.5750  -35.3290 C.ar   51  TRP51       0.0015
     34  N         95.5100   96.6230  -40.5160 N.am   52  VAL52      -0.1963
     35  CA        96.3910   96.8960  -41.6430 C.3    52  VAL52       0.1727
     36  C         96.1770   98.3340  -42.0920 C.2    52  VAL52       0.2616
     37  O         95.1270   98.9360  -41.8590 O.2    52  VAL52      -0.2715
     38  CB        96.1690   95.9450  -42.8500 C.3    52  VAL52       0.0290
     39  CG1       96.6270   94.5190  -42.5230 C.3    52  VAL52       0.0023
     40  CG2       94.7020   95.9590  -43.2860 C.3    52  VAL52       0.0023
     41  N         97.1940   98.8790  -42.7530 N.am   53  ASP53      -0.1957
     42  CA        97.0480  100.1920  -43.3750 C.3    53  ASP53       0.1840
     43  C         96.4330  100.1080  -44.7670 C.2    53  ASP53       0.2623
     44  O         95.8600  101.0920  -45.2450 O.2    53  ASP53      -0.2715
     45  CB        98.4010  100.8910  -43.4780 C.3    53  ASP53       0.1450
     46  CG        98.9710  101.2660  -42.1300 C.2    53  ASP53       0.3671
     47  OD1       98.1880  101.5800  -41.2070 O.co2  53  ASP53      -0.2456
     48  OD2      100.2120  101.2520  -41.9970 O.co2  53  ASP53      -0.2456
     49  N         96.5640   98.9680  -45.4370 N.am   54  SER54      -0.1936
     50  CA        96.0060   98.7990  -46.7700 C.3    54  SER54       0.2055
     51  C         95.6070   97.3420  -46.9490 C.2    54  SER54       0.2644
     52  O         96.0840   96.4530  -46.2370 O.2    54  SER54      -0.2714
     53  CB        96.9860   99.2480  -47.8640 C.3    54  SER54       0.2130
     54  OG        98.2310   98.5840  -47.7400 O.3    54  SER54      -0.2179
     55  N         94.7230   97.1100  -47.9160 N.am   55  THR55      -0.1937
     56  CA        94.1110   95.7990  -48.0730 C.3    55  THR55       0.2013
     57  C         95.0830   94.8400  -48.7490 C.2    55  THR55       0.2484
     58  O         95.5840   95.1380  -49.8400 O.2    55  THR55      -0.2729
     59  CB        92.8400   95.9070  -48.9070 C.3    55  THR55       0.1807
     60  OG1       91.9490   96.8510  -48.2980 O.3    55  THR55      -0.2208
     61  CG2       92.1560   94.5370  -49.0220 C.3    55  THR55       0.0379
     62  N         95.3650   93.6920  -48.1440 N.am   56  PRO56      -0.2715
     63  CA        96.2230   92.6940  -48.7920 C.3    56  PRO56       0.1521
     64  C         95.4650   91.9700  -49.8900 C.2    56  PRO56       0.2440
     65  O         94.2280   92.0480  -49.9590 O.2    56  PRO56      -0.2731
     66  CB        96.5730   91.7340  -47.6430 C.3    56  PRO56       0.0310
     67  CG        95.4410   91.8760  -46.6720 C.3    56  PRO56       0.0237
     68  CD        94.9810   93.3120  -46.7700 C.3    56  PRO56       0.0939
     69  N         96.1700   91.2610  -50.7710 N.am   57  PRO57      -0.2727
     70  CA        95.5160   90.6480  -51.9370 C.3    57  PRO57       0.1402
     71  C         94.5690   89.5290  -51.5380 C.2    57  PRO57       0.2269
     72  O         94.7230   88.9070  -50.4740 O.2    57  PRO57      -0.2865
     73  CB        96.7020   90.0890  -52.7390 C.3    57  PRO57       0.0296
     74  CG        97.8560   90.9570  -52.3540 C.3    57  PRO57       0.0237
     75  CD        97.6390   91.2310  -50.8920 C.3    57  PRO57       0.0939
     76  N         96.0390   84.3990  -42.3760 N.3    62  VAL62      -0.1245
     77  CA        96.5970   84.7420  -41.0660 C.3    62  VAL62       0.1561
     78  C         96.8100   83.4440  -40.2950 C.2    62  VAL62       0.2260
     79  O         95.8480   82.6950  -40.0680 O.2    62  VAL62      -0.2867
     80  CB        95.6610   85.6800  -40.2860 C.3    62  VAL62       0.0252
     81  CG1       96.2640   86.0190  -38.9120 C.3    62  VAL62       0.0019
     82  CG2       95.3890   86.9480  -41.0760 C.3    62  VAL62       0.0019
     83  N         92.0420   85.7780  -44.7910 N.3   125  CYS125     -0.1221
     84  CA        91.7270   87.1640  -44.4760 C.3   125  CYS125      0.1808
     85  C         90.3420   87.5090  -45.0020 C.2   125  CYS125      0.2601
     86  O         89.9990   87.1720  -46.1380 O.2   125  CYS125     -0.2717
     87  CB        92.7420   88.0930  -45.1300 C.3   125  CYS125      0.0970
     88  SG        94.4030   87.9410  -44.4980 S.3   125  CYS125     -0.0800
     89  N         89.5420   88.1640  -44.1650 N.am  126  GLU126     -0.1966
     90  CA        88.2550   88.7070  -44.5630 C.3   126  GLU126      0.1718
     91  C         88.2170   90.1720  -44.1550 C.2   126  GLU126      0.2458
     92  O         88.7020   90.5230  -43.0730 O.2   126  GLU126     -0.2730
     93  CB        87.1030   87.9780  -43.8550 C.3   126  GLU126      0.0428
     94  CG        87.1560   86.4740  -43.8860 C.3   126  GLU126      0.1163
     95  CD        86.8550   85.8780  -45.2750 C.2   126  GLU126      0.3649
     96  OE1       86.9630   86.5630  -46.2980 O.co2 126  GLU126     -0.2457
     97  OE2       86.5060   84.7030  -45.3140 O.co2 126  GLU126     -0.2457
     98  N         87.6770   91.0480  -44.9970 N.am  127  PRO127     -0.2716
     99  CA        87.5930   92.4650  -44.6380 C.3   127  PRO127      0.1521
    100  C         86.6560   92.6650  -43.4610 C.2   127  PRO127      0.2440
    101  O         85.7880   91.8190  -43.1910 O.2   127  PRO127     -0.2731
    102  CB        87.0330   93.1200  -45.9120 C.3   127  PRO127      0.0310
    103  CG        86.3380   92.0240  -46.6330 C.3   127  PRO127      0.0237
    104  CD        87.1170   90.7780  -46.3330 C.3   127  PRO127      0.0939
    105  N         86.8110   93.7590  -42.7220 N.am  128  PRO128     -0.2727
    106  CA        85.9270   94.0190  -41.5820 C.3   128  PRO128      0.1402
    107  C         84.4740   94.1490  -42.0100 C.2   128  PRO128      0.2269
    108  O         84.1560   94.4740  -43.1560 O.2   128  PRO128     -0.2865
    109  CB        86.4490   95.3530  -41.0330 C.3   128  PRO128      0.0296
    110  CG        87.8790   95.3940  -41.4520 C.3   128  PRO128      0.0237
    111  CD        87.9260   94.7160  -42.7910 C.3   128  PRO128      0.0939
    112  N         86.5650   98.8700  -38.2920 N.3   133  ASP133     -0.1225
    113  CA        87.8460   99.2370  -38.8750 C.3   133  ASP133      0.1805
    114  C         88.8900   98.1370  -38.7960 C.2   133  ASP133      0.2598
    115  O         89.9710   98.2900  -39.3760 O.2   133  ASP133     -0.2718
    116  CB        88.3800  100.5090  -38.2090 C.3   133  ASP133      0.1424
    117  CG        87.5020  101.7040  -38.4840 C.2   133  ASP133      0.3668
    118  OD1       87.1540  101.9170  -39.6650 O.co2 133  ASP133     -0.2456
    119  OD2       87.1430  102.4150  -37.5250 O.co2 133  ASP133     -0.2456
    120  N         88.6040   97.0410  -38.1040 N.am  134  CYS134     -0.1956
    121  CA        89.5350   95.9320  -38.0140 C.3   134  CYS134      0.1843
    122  C         88.7460   94.6330  -38.0390 C.2   134  CYS134      0.2626
    123  O         87.5190   94.6200  -37.9250 O.2   134  CYS134     -0.2714
    124  CB        90.3930   96.0250  -36.7410 C.3   134  CYS134      0.0997
    125  SG        89.5100   95.7370  -35.1820 S.3   134  CYS134     -0.0797
    126  N         89.4690   93.5360  -38.2090 N.am  135  THR135     -0.1950
    127  CA        88.9070   92.1990  -38.1550 C.3   135  THR135      0.1897
    128  C         89.4060   91.5550  -36.8710 C.2   135  THR135      0.2313
    129  O         90.5280   91.8220  -36.4360 O.2   135  THR135     -0.2863
    130  CB        89.3570   91.4170  -39.3990 C.3   135  THR135      0.1794
    131  OG1       88.7750   92.0270  -40.5660 O.3   135  THR135     -0.2208
    132  CG2       88.9390   89.9580  -39.3350 C.3   135  THR135      0.0378
    133  N        100.9830   87.1240  -41.2470 N.3   162  LEU162     -0.1245
    134  CA       100.1900   87.3900  -42.4370 C.3   162  LEU162      0.1561
    135  C        100.9680   86.7670  -43.5890 C.2   162  LEU162      0.2260
    136  O        102.1680   87.0130  -43.7200 O.2   162  LEU162     -0.2867
    137  CB       100.0830   88.9090  -42.6330 C.3   162  LEU162      0.0270
    138  CG        99.1130   89.4000  -43.7020 C.3   162  LEU162      0.0019
    139  CD1       97.6790   89.1500  -43.2600 C.3   162  LEU162      0.0001
    140  CD2       99.3390   90.8840  -44.0030 C.3   162  LEU162      0.0001
@<TRIPOS>BOND
     1    73    74    1
     2    73    70    1
     3    74    75    1
     4    70    71    1
     5    70    69    1
     6    71    72    2
     7    75    69    1
     8    69    64   am
     9    65    64    2
    10    64    63    1
    11    58    57    2
    12    61    59    1
    13    59    60    1
    14    59    56    1
    15    63    62    1
    16    63    66    1
    17    57    62   am
    18    57    56    1
    19    62    68    1
    20    56    55    1
    21    55    51   am
    22    53    54    1
    23    53    50    1
    24    66    67    1
    25    51    50    1
    26    51    52    2
    27    50    49    1
    28    68    67    1
    29   103   104    1
    30   103   102    1
    31   104    98    1
    32    96    95   ar
    33    86    85    2
    34   102    99    1
    35    49    43   am
    36    97    95   ar
    37    95    94    1
    38    44    43    2
    39    87    88    1
    40    87    84    1
    41    85    84    1
    42    85    89   am
    43    98    99    1
    44    98    91   am
    45    83    84    1
    46    43    42    1
    47    99   100    1
    48    90    89    1
    49    90    91    1
    50    90    93    1
    51    91    92    2
    52   140   138    1
    53    94    93    1
    54   136   135    2
    55   138   139    1
    56   138   137    1
    57   135   134    1
    58    45    42    1
    59    45    46    1
    60   100   101    2
    61   100   105   am
    62    42    41    1
    63    40    38    1
    64   108   107    2
    65    38    39    1
    66    38    35    1
    67   111   105    1
    68   111   110    1
    69    41    36   am
    70   105   106    1
    71   137   134    1
    72   134   133    1
    73    76    77    1
    74    46    48   ar
    75    46    47   ar
    76    36    37    2
    77    36    35    1
    78   107   106    1
    79    35    34    1
    80   106   109    1
    81   110   109    1
    82     1     2    1
    83    82    80    1
    84    77    78    1
    85    77    80    1
    86     5     2    1
    87     5     6    1
    88   131   130    1
    89    34    22   am
    90     2     3    1
    91    78    79    2
    92    80    81    1
    93     7     6   ar
    94     7     9   ar
    95     6     8   ar
    96   118   117   ar
    97    22    23    2
    98    22    21    1
    99   130   132    1
   100   130   127    1
   101   115   114    2
   102     9    11   ar
   103     8    10   ar
   104     3     4    2
   105   113   114    1
   106   113   112    1
   107   113   116    1
   108   114   120   am
   109    11    10   ar
   110    18    17    1
   111   117   116    1
   112   117   119   ar
   113    21    20    1
   114    21    24    1
   115   126   127    1
   116   126   122   am
   117   127   128    1
   118   120   121    1
   119   122   121    1
   120   122   123    2
   121   121   124    1
   122    16    17    1
   123    16    13    1
   124    15    14    2
   125    20    14   am
   126    14    13    1
   127    17    19    1
   128    24    25    1
   129    30    32   ar
   130    30    27   ar
   131    13    12    1
   132   128   129    2
   133   124   125    1
   134    32    33   ar
   135    25    27   ar
   136    25    26   ar
   137    27    29   ar
   138    33    31   ar
   139    26    28   ar
   140    29    31   ar
   141    29    28   ar
