@<TRIPOS>MOLECULE
tmp/5o1bA00.pdb
 132 132 0 0 0
SMALL
GASTEIGER

@<TRIPOS>ATOM
      1  N        100.7610   95.6280  -41.2120 N.3    14  PHE14      -0.1241
      2  CA       100.0580   94.6450  -40.3980 C.3    14  PHE14       0.1605
      3  C        100.4870   94.7300  -38.9380 C.2    14  PHE14       0.2264
      4  O        101.6840   94.7490  -38.6360 O.2    14  PHE14      -0.2867
      5  CB       100.3880   93.2530  -40.9310 C.3    14  PHE14       0.0534
      6  CG        99.8010   92.1340  -40.1160 C.ar   14  PHE14      -0.0203
      7  CD1       98.4390   91.8980  -40.1380 C.ar   14  PHE14      -0.0042
      8  CD2      100.6120   91.3150  -39.3290 C.ar   14  PHE14      -0.0042
      9  CE1       97.8810   90.8650  -39.4010 C.ar   14  PHE14      -0.0003
     10  CE2      100.0670   90.2650  -38.5910 C.ar   14  PHE14      -0.0003
     11  CZ        98.6950   90.0430  -38.6260 C.ar   14  PHE14      -0.0000
     12  N         93.1260   92.3430  -35.8940 N.3    50  LEU50      -0.1231
     13  CA        94.0900   92.4770  -36.9710 C.3    50  LEU50       0.1693
     14  C         93.8710   93.8400  -37.5950 C.2    50  LEU50       0.2592
     15  O         92.7320   94.1970  -37.9150 O.2    50  LEU50      -0.2718
     16  CB        93.8590   91.3920  -38.0240 C.3    50  LEU50       0.0284
     17  CG        93.7890   89.9610  -37.4820 C.3    50  LEU50       0.0019
     18  CD1       93.4830   88.9870  -38.6070 C.3    50  LEU50       0.0001
     19  CD2       95.0820   89.5890  -36.7700 C.3    50  LEU50       0.0001
     20  N         94.9510   94.6050  -37.7380 N.am   51  TRP51      -0.1962
     21  CA        94.9120   95.9520  -38.2860 C.3    51  TRP51       0.1771
     22  C         95.8710   96.0150  -39.4600 C.2    51  TRP51       0.2619
     23  O         96.9740   95.4670  -39.3960 O.2    51  TRP51      -0.2715
     24  CB        95.3700   96.9770  -37.2370 C.3    51  TRP51       0.0590
     25  CG        94.4060   97.1570  -36.1100 C.ar   51  TRP51       0.0006
     26  CD1       94.3620   96.4490  -34.9470 C.ar   51  TRP51       0.0946
     27  CD2       93.3460   98.1150  -36.0390 C.ar   51  TRP51       0.0152
     28  NE1       93.3400   96.9140  -34.1500 N.ar   51  TRP51      -0.2442
     29  CE2       92.6940   97.9280  -34.8050 C.ar   51  TRP51       0.0810
     30  CE3       92.8750   99.1020  -36.9090 C.ar   51  TRP51       0.0012
     31  CZ2       91.5990   98.6940  -34.4170 C.ar   51  TRP51       0.0191
     32  CZ3       91.7870   99.8590  -36.5230 C.ar   51  TRP51       0.0001
     33  CH2       91.1650   99.6530  -35.2890 C.ar   51  TRP51       0.0015
     34  N         95.4510   96.6900  -40.5320 N.am   52  VAL52      -0.1977
     35  CA        96.3160   96.9590  -41.6760 C.3    52  VAL52       0.1596
     36  C         96.1110   98.4020  -42.1110 C.2    52  VAL52       0.2287
     37  O         95.0660   99.0070  -41.8690 O.2    52  VAL52      -0.2864
     38  CB        96.0630   96.0210  -42.8830 C.3    52  VAL52       0.0276
     39  CG1       96.4640   94.5870  -42.5590 C.3    52  VAL52       0.0022
     40  CG2       94.5970   96.0970  -43.3190 C.3    52  VAL52       0.0022
     41  N         96.5770   99.0710  -45.4880 N.3    54  SER54      -0.1202
     42  CA        96.0150   98.8960  -46.8190 C.3    54  SER54       0.2020
     43  C         95.5950   97.4420  -46.9850 C.2    54  SER54       0.2619
     44  O         96.0790   96.5530  -46.2830 O.2    54  SER54      -0.2717
     45  CB        96.9960   99.3210  -47.9200 C.3    54  SER54       0.2103
     46  OG        98.2370   98.6640  -47.7820 O.3    54  SER54      -0.2182
     47  N         94.6870   97.2100  -47.9280 N.am   55  THR55      -0.1939
     48  CA        94.0480   95.9030  -48.0490 C.3    55  THR55       0.2013
     49  C         94.9790   94.9140  -48.7410 C.2    55  THR55       0.2484
     50  O         95.4390   95.1820  -49.8570 O.2    55  THR55      -0.2729
     51  CB        92.7600   96.0320  -48.8520 C.3    55  THR55       0.1807
     52  OG1       91.9230   97.0280  -48.2460 O.3    55  THR55      -0.2208
     53  CG2       92.0250   94.6910  -48.9020 C.3    55  THR55       0.0379
     54  N         95.2560   93.7640  -48.1330 N.am   56  PRO56      -0.2715
     55  CA        96.0910   92.7440  -48.7950 C.3    56  PRO56       0.1521
     56  C         95.3180   92.0470  -49.9010 C.2    56  PRO56       0.2440
     57  O         94.0800   92.1160  -49.9470 O.2    56  PRO56      -0.2731
     58  CB        96.4220   91.7560  -47.6620 C.3    56  PRO56       0.0310
     59  CG        95.8430   92.3190  -46.4190 C.3    56  PRO56       0.0237
     60  CD        94.8540   93.3760  -46.7720 C.3    56  PRO56       0.0939
     61  N         96.0110   91.3500  -50.7990 N.am   57  PRO57      -0.2727
     62  CA        95.3470   90.7310  -51.9600 C.3    57  PRO57       0.1402
     63  C         94.4010   89.6110  -51.5590 C.2    57  PRO57       0.2269
     64  O         94.5490   88.9930  -50.4920 O.2    57  PRO57      -0.2865
     65  CB        96.5260   90.1670  -52.7700 C.3    57  PRO57       0.0296
     66  CG        97.7020   90.9960  -52.3720 C.3    57  PRO57       0.0237
     67  CD        97.4810   91.2890  -50.9100 C.3    57  PRO57       0.0939
     68  N         95.9440   84.3740  -42.4030 N.3    62  VAL62      -0.1245
     69  CA        96.4990   84.7410  -41.1000 C.3    62  VAL62       0.1561
     70  C         96.7140   83.4500  -40.3130 C.2    62  VAL62       0.2260
     71  O         95.7590   82.7000  -40.0760 O.2    62  VAL62      -0.2867
     72  CB        95.5770   85.7000  -40.3200 C.3    62  VAL62       0.0252
     73  CG1       96.2000   86.0430  -38.9600 C.3    62  VAL62       0.0019
     74  CG2       95.3060   86.9530  -41.1160 C.3    62  VAL62       0.0019
     75  N         91.9500   85.8100  -44.7560 N.3   125  CYS125     -0.1221
     76  CA        91.6590   87.1950  -44.4210 C.3   125  CYS125      0.1808
     77  C         90.2790   87.5610  -44.9380 C.2   125  CYS125      0.2601
     78  O         89.9390   87.2760  -46.0900 O.2   125  CYS125     -0.2717
     79  CB        92.6740   88.1200  -45.0740 C.3   125  CYS125      0.0970
     80  SG        94.2970   87.9190  -44.4390 S.3   125  CYS125     -0.0800
     81  N         89.4830   88.1890  -44.0860 N.am  126  GLU126     -0.1966
     82  CA        88.2210   88.7350  -44.5300 C.3   126  GLU126      0.1718
     83  C         88.1540   90.1890  -44.0970 C.2   126  GLU126      0.2458
     84  O         88.6540   90.5400  -43.0220 O.2   126  GLU126     -0.2730
     85  CB        87.0410   87.9560  -43.9370 C.3   126  GLU126      0.0428
     86  CG        86.7980   86.6210  -44.6260 C.3   126  GLU126      0.1163
     87  CD        86.6940   86.7500  -46.1380 C.2   126  GLU126      0.3649
     88  OE1       86.0750   87.7280  -46.6140 O.co2 126  GLU126     -0.2457
     89  OE2       87.2350   85.8790  -46.8530 O.co2 126  GLU126     -0.2457
     90  N         87.5700   91.0530  -44.9180 N.am  127  PRO127     -0.2716
     91  CA        87.5060   92.4780  -44.5880 C.3   127  PRO127      0.1521
     92  C         86.6470   92.7130  -43.3600 C.2   127  PRO127      0.2440
     93  O         85.7950   91.8810  -43.0120 O.2   127  PRO127     -0.2731
     94  CB        86.8560   93.0990  -45.8350 C.3   127  PRO127      0.0310
     95  CG        87.0580   92.1120  -46.9190 C.3   127  PRO127      0.0237
     96  CD        87.0330   90.7680  -46.2590 C.3   127  PRO127      0.0939
     97  N         86.8580   93.8270  -42.6640 N.am  128  PRO128     -0.2727
     98  CA        85.9800   94.1760  -41.5430 C.3   128  PRO128      0.1402
     99  C         84.5360   94.3250  -41.9990 C.2   128  PRO128      0.2269
    100  O         84.2530   94.6820  -43.1440 O.2   128  PRO128     -0.2865
    101  CB        86.5400   95.5210  -41.0660 C.3   128  PRO128      0.0296
    102  CG        87.9720   95.5080  -41.4980 C.3   128  PRO128      0.0237
    103  CD        87.9850   94.7610  -42.8020 C.3   128  PRO128      0.0939
    104  N         86.6370   98.9920  -38.3060 N.3   133  ASP133     -0.1225
    105  CA        87.9190   99.3510  -38.8920 C.3   133  ASP133      0.1805
    106  C         88.9520   98.2390  -38.8120 C.2   133  ASP133      0.2598
    107  O         90.0550   98.3970  -39.3430 O.2   133  ASP133     -0.2718
    108  CB        88.4620  100.6200  -38.2330 C.3   133  ASP133      0.1424
    109  CG        87.6040  101.8270  -38.5250 C.2   133  ASP133      0.3668
    110  OD1       87.1670  101.9750  -39.6860 O.co2 133  ASP133     -0.2456
    111  OD2       87.3580  102.6190  -37.5970 O.co2 133  ASP133     -0.2456
    112  N         88.6340   97.1260  -38.1640 N.am  134  CYS134     -0.1956
    113  CA        89.5610   96.0140  -38.0470 C.3   134  CYS134      0.1843
    114  C         88.7670   94.7190  -38.0870 C.2   134  CYS134      0.2626
    115  O         87.5360   94.7120  -38.0070 O.2   134  CYS134     -0.2714
    116  CB        90.3910   96.0950  -36.7530 C.3   134  CYS134      0.0997
    117  SG        89.4730   95.8330  -35.2150 S.3   134  CYS134     -0.0797
    118  N         89.4880   93.6180  -38.2310 N.am  135  THR135     -0.1950
    119  CA        88.9170   92.2840  -38.1980 C.3   135  THR135      0.1897
    120  C         89.4030   91.6180  -36.9200 C.2   135  THR135      0.2313
    121  O         90.5320   91.8530  -36.4900 O.2   135  THR135     -0.2863
    122  CB        89.3770   91.5000  -39.4410 C.3   135  THR135      0.1794
    123  OG1       88.7880   92.0840  -40.6130 O.3   135  THR135     -0.2208
    124  CG2       88.9740   90.0380  -39.3600 C.3   135  THR135      0.0378
    125  N        100.8970   87.1380  -41.2490 N.3   162  LEU162     -0.1245
    126  CA       100.1120   87.3870  -42.4470 C.3   162  LEU162      0.1561
    127  C        100.8750   86.7680  -43.6100 C.2   162  LEU162      0.2260
    128  O        102.0760   87.0000  -43.7500 O.2   162  LEU162     -0.2867
    129  CB        99.9720   88.8970  -42.6450 C.3   162  LEU162      0.0270
    130  CG        98.9850   89.3810  -43.6990 C.3   162  LEU162      0.0019
    131  CD1       97.5630   89.1270  -43.2370 C.3   162  LEU162      0.0001
    132  CD2       99.2000   90.8630  -43.9930 C.3   162  LEU162      0.0001
@<TRIPOS>BOND
     1    65    66    1
     2    65    62    1
     3    66    67    1
     4    62    63    1
     5    62    61    1
     6    63    64    2
     7    67    61    1
     8    61    56   am
     9    57    56    2
    10    56    55    1
    11    50    49    2
    12    53    51    1
    13    51    52    1
    14    51    48    1
    15    55    54    1
    16    55    58    1
    17    49    54   am
    18    49    48    1
    19    54    60    1
    20    48    47    1
    21    47    43   am
    22    45    46    1
    23    45    42    1
    24    58    59    1
    25    43    42    1
    26    43    44    2
    27    95    96    1
    28    95    94    1
    29    89    87   ar
    30    42    41    1
    31    60    59    1
    32    88    87   ar
    33    96    90    1
    34    87    86    1
    35    78    77    2
    36    94    91    1
    37    79    80    1
    38    79    76    1
    39    77    76    1
    40    77    81   am
    41    90    91    1
    42    90    83   am
    43    75    76    1
    44    86    85    1
    45    91    92    1
    46    82    83    1
    47    82    81    1
    48    82    85    1
    49    83    84    2
    50   132   130    1
    51   128   127    2
    52   130   131    1
    53   130   129    1
    54   127   126    1
    55    92    93    2
    56    92    97   am
    57    40    38    1
    58   100    99    2
    59    38    39    1
    60    38    35    1
    61   103    97    1
    62   103   102    1
    63    97    98    1
    64   129   126    1
    65   126   125    1
    66    68    69    1
    67    36    37    2
    68    36    35    1
    69    99    98    1
    70    35    34    1
    71    98   101    1
    72   102   101    1
    73     1     2    1
    74    74    72    1
    75    69    72    1
    76    69    70    1
    77     5     2    1
    78     5     6    1
    79   123   122    1
    80    34    22   am
    81     2     3    1
    82    72    73    1
    83    70    71    2
    84     7     6   ar
    85     7     9   ar
    86     6     8   ar
    87   110   109   ar
    88    22    23    2
    89    22    21    1
    90   122   124    1
    91   122   119    1
    92     9    11   ar
    93   107   106    2
    94     8    10   ar
    95     3     4    2
    96   105   106    1
    97   105   104    1
    98   105   108    1
    99   106   112   am
   100    11    10   ar
   101    18    17    1
   102   109   108    1
   103   109   111   ar
   104    21    20    1
   105    21    24    1
   106   118   119    1
   107   118   114   am
   108   119   120    1
   109   112   113    1
   110   114   113    1
   111   114   115    2
   112   113   116    1
   113    16    17    1
   114    16    13    1
   115    15    14    2
   116    20    14   am
   117    14    13    1
   118    17    19    1
   119    24    25    1
   120    13    12    1
   121   120   121    2
   122    30    32   ar
   123    30    27   ar
   124   116   117    1
   125    32    33   ar
   126    25    27   ar
   127    25    26   ar
   128    27    29   ar
   129    33    31   ar
   130    26    28   ar
   131    29    31   ar
   132    29    28   ar
