@<TRIPOS>MOLECULE
tmp/5o1cB00.pdb
 137 139 0 0 0
SMALL
GASTEIGER

@<TRIPOS>ATOM
      1  N        134.0340  104.7760  -41.0780 N.3    15  PHE15      -0.1241
      2  CA       133.2790  103.8120  -40.2800 C.3    15  PHE15       0.1605
      3  C        133.6720  103.8790  -38.8080 C.2    15  PHE15       0.2264
      4  O        134.8640  103.8570  -38.4760 O.2    15  PHE15      -0.2867
      5  CB       133.5640  102.4060  -40.8110 C.3    15  PHE15       0.0534
      6  CG       132.9360  101.3150  -40.0040 C.ar   15  PHE15      -0.0203
      7  CD1      131.5660  101.1180  -40.0430 C.ar   15  PHE15      -0.0042
      8  CD2      133.7160  100.4630  -39.2250 C.ar   15  PHE15      -0.0042
      9  CE1      130.9740  100.0950  -39.3210 C.ar   15  PHE15      -0.0003
     10  CE2      133.1300   99.4440  -38.4910 C.ar   15  PHE15      -0.0003
     11  CZ       131.7570   99.2610  -38.5430 C.ar   15  PHE15      -0.0000
     12  N        126.1500  101.5830  -36.0760 N.3    51  LEU51      -0.1231
     13  CA       127.1570  101.7480  -37.1160 C.3    51  LEU51       0.1693
     14  C        126.9910  103.1390  -37.7040 C.2    51  LEU51       0.2592
     15  O        125.8740  103.5340  -38.0360 O.2    51  LEU51      -0.2718
     16  CB       126.9710  100.6940  -38.2130 C.3    51  LEU51       0.0284
     17  CG       126.8170   99.2500  -37.7030 C.3    51  LEU51       0.0019
     18  CD1      126.4790   98.3080  -38.8540 C.3    51  LEU51       0.0001
     19  CD2      128.0580   98.7750  -36.9480 C.3    51  LEU51       0.0001
     20  N        128.0890  103.8880  -37.7820 N.am   52  TRP52      -0.1962
     21  CA       128.0960  105.2450  -38.3150 C.3    52  TRP52       0.1771
     22  C        129.0970  105.3190  -39.4580 C.2    52  TRP52       0.2619
     23  O        130.1810  104.7360  -39.3760 O.2    52  TRP52      -0.2715
     24  CB       128.5160  106.2470  -37.2180 C.3    52  TRP52       0.0590
     25  CG       127.5030  106.4150  -36.1270 C.ar   52  TRP52       0.0006
     26  CD1      127.4210  105.7060  -34.9610 C.ar   52  TRP52       0.0946
     27  CD2      126.4270  107.3570  -36.1030 C.ar   52  TRP52       0.0152
     28  NE1      126.3540  106.1580  -34.2070 N.ar   52  TRP52      -0.2442
     29  CE2      125.7310  107.1710  -34.8900 C.ar   52  TRP52       0.0810
     30  CE3      125.9860  108.3430  -36.9930 C.ar   52  TRP52       0.0012
     31  CZ2      124.6110  107.9280  -34.5510 C.ar   52  TRP52       0.0191
     32  CZ3      124.8830  109.1000  -36.6490 C.ar   52  TRP52       0.0001
     33  CH2      124.2080  108.8880  -35.4420 C.ar   52  TRP52       0.0015
     34  N        128.7360  106.0440  -40.5230 N.am   53  VAL53      -0.1977
     35  CA       129.6350  106.2850  -41.6480 C.3    53  VAL53       0.1596
     36  C        129.5010  107.7330  -42.0980 C.2    53  VAL53       0.2287
     37  O        128.4610  108.3690  -41.9070 O.2    53  VAL53      -0.2864
     38  CB       129.3740  105.3480  -42.8510 C.3    53  VAL53       0.0276
     39  CG1      129.6970  103.8990  -42.4730 C.3    53  VAL53       0.0022
     40  CG2      127.9340  105.4880  -43.3200 C.3    53  VAL53       0.0022
     41  N        128.1060  106.5400  -47.7970 N.3    56  THR56      -0.1204
     42  CA       127.4030  105.2630  -47.8740 C.3    56  THR56       0.1979
     43  C        128.2500  104.2290  -48.6060 C.2    56  THR56       0.2460
     44  O        128.6250  104.4550  -49.7620 O.2    56  THR56      -0.2732
     45  CB       126.0790  105.4510  -48.6030 C.3    56  THR56       0.1783
     46  OG1      125.3120  106.4620  -47.9350 O.3    56  THR56      -0.2211
     47  CG2      125.2880  104.1490  -48.6220 C.3    56  THR56       0.0376
     48  N        128.5610  103.0940  -47.9910 N.am   57  PRO57      -0.2718
     49  CA       129.3020  102.0410  -48.7000 C.3    57  PRO57       0.1520
     50  C        128.4180  101.3370  -49.7180 C.2    57  PRO57       0.2440
     51  O        127.1840  101.4630  -49.6790 O.2    57  PRO57      -0.2731
     52  CB       129.7360  101.0950  -47.5680 C.3    57  PRO57       0.0310
     53  CG       128.7850  101.3370  -46.4820 C.3    57  PRO57       0.0237
     54  CD       128.2990  102.7500  -46.5820 C.3    57  PRO57       0.0939
     55  N        129.0150  100.5920  -50.6470 N.am   58  PRO58      -0.2717
     56  CA       128.2550  100.0280  -51.7820 C.3    58  PRO58       0.1521
     57  C        127.2930   98.9320  -51.3550 C.2    58  PRO58       0.2440
     58  O        127.4930   98.2750  -50.3200 O.2    58  PRO58      -0.2731
     59  CB       129.3580   99.4440  -52.6770 C.3    58  PRO58       0.0310
     60  CG       130.5970  100.1560  -52.3010 C.3    58  PRO58       0.0237
     61  CD       130.4710  100.4840  -50.8440 C.3    58  PRO58       0.0939
     62  N        126.2620   98.6630  -52.1630 N.am   59  PRO59      -0.2716
     63  CA       125.4120   97.4920  -51.9130 C.3    59  PRO59       0.1536
     64  C        126.2610   96.2290  -51.8600 C.2    59  PRO59       0.2599
     65  O        127.1740   96.0380  -52.6590 O.2    59  PRO59      -0.2715
     66  CB       124.4720   97.4730  -53.1290 C.3    59  PRO59       0.0310
     67  CG       124.5100   98.8650  -53.6760 C.3    59  PRO59       0.0237
     68  CD       125.8770   99.3850  -53.3920 C.3    59  PRO59       0.0939
     69  N        125.9670   95.3680  -50.8930 N.am   60  GLY60      -0.1941
     70  CA       126.7350   94.1600  -50.6980 C.3    60  GLY60       0.2014
     71  C        127.7780   94.2630  -49.6110 C.2    60  GLY60       0.2639
     72  O        128.3580   93.2380  -49.2280 O.2    60  GLY60      -0.2714
     73  N        128.0230   95.4660  -49.0940 N.am   61  THR61      -0.1950
     74  CA       128.8780   95.6100  -47.9210 C.3    61  THR61       0.1897
     75  C        128.2490   94.8700  -46.7450 C.2    61  THR61       0.2313
     76  O        127.0250   94.8100  -46.6170 O.2    61  THR61      -0.2863
     77  CB       129.0280   97.1020  -47.5990 C.3    61  THR61       0.1794
     78  OG1      129.5440   97.7850  -48.7500 O.3    61  THR61      -0.2208
     79  CG2      129.9840   97.3320  -46.4570 C.3    61  THR61       0.0378
     80  N        124.8660   94.9910  -44.6380 N.3   126  CYS126     -0.1221
     81  CA       124.5310   96.3670  -44.2980 C.3   126  CYS126      0.1808
     82  C        123.1780   96.7350  -44.8810 C.2   126  CYS126      0.2601
     83  O        122.8700   96.4170  -46.0360 O.2   126  CYS126     -0.2717
     84  CB       125.5580   97.3140  -44.8980 C.3   126  CYS126      0.0970
     85  SG       127.2220   97.0870  -44.3070 S.3   126  CYS126     -0.0800
     86  N        122.3780   97.4330  -44.0860 N.am  127  GLU127     -0.1966
     87  CA       121.1020   97.9670  -44.5360 C.3   127  GLU127      0.1718
     88  C        121.0150   99.4390  -44.1630 C.2   127  GLU127      0.2458
     89  O        121.6860   99.8800  -43.2240 O.2   127  GLU127     -0.2730
     90  CB       119.9180   97.1930  -43.9350 C.3   127  GLU127      0.0428
     91  CG       119.7630   95.7950  -44.5150 C.3   127  GLU127      0.1163
     92  CD       119.3750   95.8130  -46.0000 C.2   127  GLU127      0.3649
     93  OE1      118.7160   96.7660  -46.4620 O.co2 127  GLU127     -0.2457
     94  OE2      119.7240   94.8570  -46.7100 O.co2 127  GLU127     -0.2457
     95  N        120.2350  100.2280  -44.9080 N.am  128  PRO128     -0.2716
     96  CA       120.1340  101.6530  -44.5940 C.3   128  PRO128      0.1521
     97  C        119.4430  101.8640  -43.2570 C.2   128  PRO128      0.2440
     98  O        118.6750  101.0030  -42.8000 O.2   128  PRO128     -0.2731
     99  CB       119.2830  102.2150  -45.7500 C.3   128  PRO128      0.0310
    100  CG       119.3410  101.2060  -46.8220 C.3   128  PRO128      0.0237
    101  CD       119.4910   99.8820  -46.1350 C.3   128  PRO128      0.0939
    102  N        119.6980  102.9920  -42.5950 N.am  129  PRO129     -0.2727
    103  CA       118.9770  103.2980  -41.3560 C.3   129  PRO129      0.1402
    104  C        117.4740  103.2960  -41.5730 C.2   129  PRO129      0.2269
    105  O        116.9800  103.5820  -42.6650 O.2   129  PRO129     -0.2865
    106  CB       119.4680  104.7100  -41.0080 C.3   129  PRO129      0.0296
    107  CG       120.8150  104.7970  -41.6220 C.3   129  PRO129      0.0237
    108  CD       120.7470  103.9820  -42.8870 C.3   129  PRO129      0.0939
    109  N        119.5410  108.1890  -38.0180 N.3   134  ASP134     -0.1225
    110  CA       120.7780  108.6250  -38.6510 C.3   134  ASP134      0.1805
    111  C        121.8290  107.5280  -38.7220 C.2   134  ASP134      0.2598
    112  O        122.8900  107.7350  -39.3170 O.2   134  ASP134     -0.2718
    113  CB       121.3580  109.8350  -37.9070 C.3   134  ASP134      0.1424
    114  CG       120.5110  111.0820  -38.0640 C.2   134  ASP134      0.3668
    115  OD1      119.9190  111.2640  -39.1460 O.co2 134  ASP134     -0.2456
    116  OD2      120.4470  111.8820  -37.1050 O.co2 134  ASP134     -0.2456
    117  N        121.5700  106.3720  -38.1260 N.am  135  CYS135     -0.1956
    118  CA       122.5430  105.2970  -38.1340 C.3   135  CYS135      0.1843
    119  C        121.7950  103.9810  -38.2180 C.2   135  CYS135      0.2626
    120  O        120.5740  103.9190  -38.0560 O.2   135  CYS135     -0.2714
    121  CB       123.4290  105.3450  -36.8870 C.3   135  CYS135      0.0997
    122  SG       122.5320  105.0620  -35.3350 S.3   135  CYS135     -0.0797
    123  N        122.5490  102.9240  -38.4690 N.am  136  THR136     -0.1950
    124  CA       122.0100  101.5780  -38.4910 C.3   136  THR136      0.1897
    125  C        122.4410  100.8900  -37.2080 C.2   136  THR136      0.2313
    126  O        123.5470  101.1210  -36.7150 O.2   136  THR136     -0.2863
    127  CB       122.5240  100.8370  -39.7310 C.3   136  THR136      0.1794
    128  OG1      121.9650  101.4590  -40.8900 O.3   136  THR136     -0.2208
    129  CG2      122.1030   99.3710  -39.7230 C.3   136  THR136      0.0378
    130  N        133.8130   96.2710  -41.0420 N.3   163  LEU163     -0.1245
    131  CA       133.0540   96.5480  -42.2500 C.3   163  LEU163      0.1561
    132  C        133.8220   95.9220  -43.4070 C.2   163  LEU163      0.2260
    133  O        135.0320   96.1300  -43.5300 O.2   163  LEU163     -0.2867
    134  CB       132.9560   98.0640  -42.4300 C.3   163  LEU163      0.0270
    135  CG       131.9970   98.5480  -43.5110 C.3   163  LEU163      0.0019
    136  CD1      130.5620   98.3380  -43.0560 C.3   163  LEU163      0.0001
    137  CD2      132.2580  100.0230  -43.8230 C.3   163  LEU163      0.0001
@<TRIPOS>BOND
     1    67    68    1
     2    67    66    1
     3    68    62    1
     4    66    63    1
     5    59    60    1
     6    59    56    1
     7    65    64    2
     8    60    61    1
     9    62    63    1
    10    62    57   am
    11    63    64    1
    12    64    69   am
    13    56    57    1
    14    56    55    1
    15    57    58    2
    16    69    70    1
    17    61    55    1
    18    70    71    1
    19    55    50   am
    20    44    43    2
    21    50    51    2
    22    50    49    1
    23    71    72    2
    24    71    73   am
    25    73    74    1
    26    78    77    1
    27    49    48    1
    28    49    52    1
    29    47    45    1
    30    43    48   am
    31    43    42    1
    32    45    46    1
    33    45    42    1
    34    48    54    1
    35    74    77    1
    36    74    75    1
    37    42    41    1
    38    77    79    1
    39    52    53    1
    40   100   101    1
    41   100    99    1
    42    75    76    2
    43    94    92   ar
    44    54    53    1
    45    93    92   ar
    46   101    95    1
    47    83    82    2
    48    92    91    1
    49    99    96    1
    50    95    96    1
    51    95    88   am
    52    84    85    1
    53    84    81    1
    54    82    81    1
    55    82    86   am
    56    80    81    1
    57    96    97    1
    58    87    88    1
    59    87    86    1
    60    87    90    1
    61    91    90    1
    62    88    89    2
    63   137   135    1
    64   133   132    2
    65   135   136    1
    66   135   134    1
    67   132   131    1
    68    40    38    1
    69    97    98    2
    70    97   102   am
    71   108   102    1
    72   108   107    1
    73    38    39    1
    74    38    35    1
    75   105   104    2
    76   102   103    1
    77   134   131    1
    78   131   130    1
    79    36    37    2
    80    36    35    1
    81    35    34    1
    82   107   106    1
    83   104   103    1
    84   103   106    1
    85     1     2    1
    86   128   127    1
    87     5     2    1
    88     5     6    1
    89    34    22   am
    90     2     3    1
    91     7     6   ar
    92     7     9   ar
    93     6     8   ar
    94   127   129    1
    95   127   124    1
    96    22    23    2
    97    22    21    1
    98     9    11   ar
    99   112   111    2
   100     8    10   ar
   101   115   114   ar
   102    18    17    1
   103     3     4    2
   104   111   110    1
   105   111   117   am
   106   110   109    1
   107   110   113    1
   108    11    10   ar
   109   124   123    1
   110   124   125    1
   111   123   119   am
   112    21    20    1
   113    21    24    1
   114   119   118    1
   115   119   120    2
   116    16    17    1
   117    16    13    1
   118   118   117    1
   119   118   121    1
   120   114   113    1
   121   114   116   ar
   122    15    14    2
   123    20    14   am
   124    14    13    1
   125    17    19    1
   126    24    25    1
   127   125   126    2
   128    13    12    1
   129    30    32   ar
   130    30    27   ar
   131   121   122    1
   132    32    33   ar
   133    25    27   ar
   134    25    26   ar
   135    27    29   ar
   136    33    31   ar
   137    26    28   ar
   138    29    31   ar
   139    29    28   ar
