@<TRIPOS>MOLECULE
tmp/5o1dB00.pdb
 152 152 0 0 0
SMALL
GASTEIGER

@<TRIPOS>ATOM
      1  N        134.0300  104.8670  -41.0630 N.3    15  PHE15      -0.1241
      2  CA       133.2680  103.9080  -40.2680 C.3    15  PHE15       0.1605
      3  C        133.6660  103.9500  -38.7990 C.2    15  PHE15       0.2264
      4  O        134.8580  103.9140  -38.4660 O.2    15  PHE15      -0.2867
      5  CB       133.5450  102.5050  -40.8160 C.3    15  PHE15       0.0534
      6  CG       132.9080  101.3960  -40.0260 C.ar   15  PHE15      -0.0203
      7  CD1      131.5390  101.1830  -40.0880 C.ar   15  PHE15      -0.0042
      8  CD2      133.6820  100.5490  -39.2450 C.ar   15  PHE15      -0.0042
      9  CE1      130.9440  100.1500  -39.3800 C.ar   15  PHE15      -0.0003
     10  CE2      133.0950   99.5100  -38.5270 C.ar   15  PHE15      -0.0003
     11  CZ       131.7250   99.3080  -38.5990 C.ar   15  PHE15      -0.0000
     12  N        126.1920  101.6500  -36.0320 N.3    51  LEU51      -0.1231
     13  CA       127.2080  101.8440  -37.0550 C.3    51  LEU51       0.1693
     14  C        127.0110  103.2380  -37.6260 C.2    51  LEU51       0.2592
     15  O        125.8770  103.6250  -37.9280 O.2    51  LEU51      -0.2718
     16  CB       127.0480  100.8200  -38.1850 C.3    51  LEU51       0.0284
     17  CG       127.1590   99.3300  -37.8470 C.3    51  LEU51       0.0019
     18  CD1      128.2680   99.0490  -36.8450 C.3    51  LEU51       0.0001
     19  CD2      125.8360   98.7760  -37.3690 C.3    51  LEU51       0.0001
     20  N        128.1030  103.9920  -37.7420 N.am   52  TRP52      -0.1962
     21  CA       128.1070  105.3440  -38.2910 C.3    52  TRP52       0.1771
     22  C        129.0990  105.4060  -39.4420 C.2    52  TRP52       0.2619
     23  O        130.1780  104.8120  -39.3700 O.2    52  TRP52      -0.2715
     24  CB       128.5340  106.3660  -37.2170 C.3    52  TRP52       0.0590
     25  CG       127.5310  106.5400  -36.1160 C.ar   52  TRP52       0.0006
     26  CD1      127.4390  105.8130  -34.9640 C.ar   52  TRP52       0.0946
     27  CD2      126.4610  107.4880  -36.0840 C.ar   52  TRP52       0.0152
     28  NE1      126.3790  106.2660  -34.2030 N.ar   52  TRP52      -0.2442
     29  CE2      125.7640  107.2930  -34.8720 C.ar   52  TRP52       0.0810
     30  CE3      126.0240  108.4850  -36.9640 C.ar   52  TRP52       0.0012
     31  CZ2      124.6520  108.0520  -34.5220 C.ar   52  TRP52       0.0191
     32  CZ3      124.9250  109.2520  -36.6070 C.ar   52  TRP52       0.0001
     33  CH2      124.2480  109.0240  -35.3990 C.ar   52  TRP52       0.0015
     34  N        128.7390  106.1340  -40.5040 N.am   53  VAL53      -0.1977
     35  CA       129.6450  106.3720  -41.6210 C.3    53  VAL53       0.1596
     36  C        129.5110  107.8220  -42.0670 C.2    53  VAL53       0.2287
     37  O        128.4820  108.4670  -41.8660 O.2    53  VAL53      -0.2864
     38  CB       129.3840  105.4480  -42.8360 C.3    53  VAL53       0.0276
     39  CG1      129.6740  103.9900  -42.4800 C.3    53  VAL53       0.0022
     40  CG2      127.9540  105.6280  -43.3270 C.3    53  VAL53       0.0022
     41  N        128.0330  106.7520  -47.8550 N.3    56  THR56      -0.1204
     42  CA       127.2880  105.5130  -48.0510 C.3    56  THR56       0.1979
     43  C        128.1790  104.4370  -48.6630 C.2    56  THR56       0.2460
     44  O        128.7250  104.6470  -49.7540 O.2    56  THR56      -0.2732
     45  CB       126.1340  105.8150  -49.0100 C.3    56  THR56       0.1783
     46  OG1      125.3180  106.8630  -48.4680 O.3    56  THR56      -0.2211
     47  CG2      125.2850  104.5730  -49.2410 C.3    56  THR56       0.0376
     48  N        128.3540  103.2840  -48.0200 N.am   57  PRO57      -0.2718
     49  CA       129.0870  102.1780  -48.6580 C.3    57  PRO57       0.1520
     50  C        128.2430  101.5070  -49.7290 C.2    57  PRO57       0.2440
     51  O        127.0120  101.6620  -49.7560 O.2    57  PRO57      -0.2731
     52  CB       129.3710  101.2190  -47.4920 C.3    57  PRO57       0.0310
     53  CG       128.3440  101.5380  -46.4710 C.3    57  PRO57       0.0237
     54  CD       127.9630  102.9790  -46.6320 C.3    57  PRO57       0.0939
     55  N        128.8710  100.7540  -50.6290 N.am   58  PRO58      -0.2717
     56  CA       128.1440  100.1680  -51.7700 C.3    58  PRO58       0.1521
     57  C        127.2010   99.0550  -51.3480 C.2    58  PRO58       0.2440
     58  O        127.4040   98.3970  -50.3160 O.2    58  PRO58      -0.2731
     59  CB       129.2710   99.5950  -52.6430 C.3    58  PRO58       0.0310
     60  CG       130.5070  100.2740  -52.2040 C.3    58  PRO58       0.0237
     61  CD       130.3280  100.5980  -50.7560 C.3    58  PRO58       0.0939
     62  N        126.1850   98.7670  -52.1630 N.am   59  PRO59      -0.2716
     63  CA       125.3470   97.5900  -51.9060 C.3    59  PRO59       0.1536
     64  C        126.2060   96.3340  -51.8420 C.2    59  PRO59       0.2599
     65  O        127.1100   96.1340  -52.6530 O.2    59  PRO59      -0.2715
     66  CB       124.4040   97.5550  -53.1170 C.3    59  PRO59       0.0310
     67  CG       124.4400   98.9490  -53.6860 C.3    59  PRO59       0.0237
     68  CD       125.8160   99.4650  -53.4080 C.3    59  PRO59       0.0939
     69  N        125.9180   95.4840  -50.8650 N.am   60  GLY60      -0.1941
     70  CA       126.6780   94.2700  -50.6600 C.3    60  GLY60       0.2014
     71  C        127.7410   94.3820  -49.5870 C.2    60  GLY60       0.2639
     72  O        128.3290   93.3630  -49.2060 O.2    60  GLY60      -0.2714
     73  N        128.0070   95.5860  -49.0910 N.am   61  THR61      -0.1950
     74  CA       128.8770   95.7380  -47.9310 C.3    61  THR61       0.1897
     75  C        128.2550   95.0180  -46.7360 C.2    61  THR61       0.2313
     76  O        127.0310   94.9530  -46.6030 O.2    61  THR61      -0.2863
     77  CB       129.0600   97.2340  -47.6290 C.3    61  THR61       0.1794
     78  OG1      129.5140   97.9170  -48.8080 O.3    61  THR61      -0.2208
     79  CG2      130.0870   97.4550  -46.5260 C.3    61  THR61       0.0378
     80  N        128.7940   93.7520  -42.2970 N.3    63  VAL63      -0.1245
     81  CA       129.3740   94.0620  -40.9910 C.3    63  VAL63       0.1561
     82  C        129.5620   92.7520  -40.2380 C.2    63  VAL63       0.2260
     83  O        128.6010   91.9930  -40.0580 O.2    63  VAL63      -0.2867
     84  CB       128.4780   95.0070  -40.1730 C.3    63  VAL63       0.0252
     85  CG1      129.0780   95.2290  -38.7750 C.3    63  VAL63       0.0019
     86  CG2      128.3020   96.3310  -40.8830 C.3    63  VAL63       0.0019
     87  N        124.9180   95.1460  -44.6350 N.3   126  CYS126     -0.1221
     88  CA       124.6180   96.5360  -44.3110 C.3   126  CYS126      0.1808
     89  C        123.2650   96.9310  -44.8830 C.2   126  CYS126      0.2601
     90  O        122.9460   96.6270  -46.0380 O.2   126  CYS126     -0.2717
     91  CB       125.6560   97.4580  -44.9410 C.3   126  CYS126      0.0970
     92  SG       127.3260   97.2400  -44.3570 S.3   126  CYS126     -0.0800
     93  N        122.4810   97.6330  -44.0780 N.am  127  GLU127     -0.1966
     94  CA       121.2430   98.2340  -44.5390 C.3   127  GLU127      0.1718
     95  C        121.2340   99.7020  -44.1500 C.2   127  GLU127      0.2458
     96  O        121.7890  100.0750  -43.1140 O.2   127  GLU127     -0.2730
     97  CB       120.0300   97.5400  -43.9060 C.3   127  GLU127      0.0428
     98  CG       119.8180   96.1270  -44.4090 C.3   127  GLU127      0.1163
     99  CD       118.8980   95.3200  -43.5160 C.2   127  GLU127      0.3649
    100  OE1      118.5020   95.8260  -42.4440 O.co2 127  GLU127     -0.2457
    101  OE2      118.5750   94.1710  -43.8860 O.co2 127  GLU127     -0.2457
    102  N        120.6150  100.5520  -44.9600 N.am  128  PRO128     -0.2716
    103  CA       120.5920  101.9870  -44.6610 C.3   128  PRO128      0.1521
    104  C        119.8100  102.2610  -43.3910 C.2   128  PRO128      0.2440
    105  O        118.9520  101.4590  -42.9920 O.2   128  PRO128     -0.2731
    106  CB       119.8710  102.5930  -45.8780 C.3   128  PRO128      0.0310
    107  CG       119.8630  101.5430  -46.9160 C.3   128  PRO128      0.0237
    108  CD       119.9240  100.2270  -46.2180 C.3   128  PRO128      0.0939
    109  N        120.0690  103.3870  -42.7300 N.am  129  PRO129     -0.2727
    110  CA       119.2700  103.7420  -41.5540 C.3   129  PRO129      0.1402
    111  C        117.7890  103.8030  -41.8910 C.2   129  PRO129      0.2269
    112  O        117.3960  104.1430  -43.0080 O.2   129  PRO129     -0.2865
    113  CB       119.8010  105.1290  -41.1750 C.3   129  PRO129      0.0296
    114  CG       121.2070  105.1330  -41.6720 C.3   129  PRO129      0.0237
    115  CD       121.1980  104.3120  -42.9340 C.3   129  PRO129      0.0939
    116  N        119.7240  108.4270  -38.1250 N.3   134  ASP134     -0.1225
    117  CA       120.9720  108.8180  -38.7620 C.3   134  ASP134      0.1805
    118  C        122.0050  107.7040  -38.7790 C.2   134  ASP134      0.2598
    119  O        123.0850  107.8850  -39.3490 O.2   134  ASP134     -0.2718
    120  CB       121.5640  110.0410  -38.0560 C.3   134  ASP134      0.1424
    121  CG       120.7340  111.2880  -38.2450 C.2   134  ASP134      0.3668
    122  OD1      120.1770  111.4700  -39.3470 O.co2 134  ASP134     -0.2456
    123  OD2      120.6460  112.0890  -37.2900 O.co2 134  ASP134     -0.2456
    124  N        121.7100  106.5660  -38.1610 N.am  135  CYS135     -0.1956
    125  CA       122.6470  105.4560  -38.1100 C.3   135  CYS135      0.1843
    126  C        121.8700  104.1540  -38.1760 C.2   135  CYS135      0.2626
    127  O        120.6410  104.1270  -38.0610 O.2   135  CYS135     -0.2714
    128  CB       123.4980  105.5010  -36.8350 C.3   135  CYS135      0.0997
    129  SG       122.5640  105.2390  -35.3090 S.3   135  CYS135     -0.0797
    130  N        122.6020  103.0680  -38.3670 N.am  136  THR136     -0.1950
    131  CA       122.0320  101.7330  -38.3920 C.3   136  THR136      0.1897
    132  C        122.4500  101.0250  -37.1140 C.2   136  THR136      0.2313
    133  O        123.5550  101.2430  -36.6060 O.2   136  THR136     -0.2863
    134  CB       122.5090  100.9800  -39.6370 C.3   136  THR136      0.1794
    135  OG1      121.9430  101.6230  -40.7820 O.3   136  THR136     -0.2208
    136  CG2      122.0690   99.5200  -39.6140 C.3   136  THR136      0.0378
    137  N        122.7220   97.2640  -35.0650 N.3   138  ILE138     -0.1245
    138  CA       122.6920   95.8080  -35.0190 C.3   138  ILE138      0.1561
    139  C        122.4800   95.4090  -33.5690 C.2   138  ILE138      0.2260
    140  O        123.0520   96.0190  -32.6610 O.2   138  ILE138     -0.2867
    141  CB       123.9900   95.1840  -35.5680 C.3   138  ILE138      0.0252
    142  CG1      124.1720   95.5480  -37.0440 C.3   138  ILE138      0.0019
    143  CG2      123.9810   93.6640  -35.3720 C.3   138  ILE138      0.0019
    144  CD1      125.4940   95.0950  -37.6210 C.3   138  ILE138      0.0001
    145  N        133.8280   96.3820  -41.0800 N.3   163  LEU163     -0.1245
    146  CA       133.0540   96.6670  -42.2770 C.3   163  LEU163      0.1561
    147  C        133.8210   96.0360  -43.4330 C.2   163  LEU163      0.2260
    148  O        135.0320   96.2450  -43.5550 O.2   163  LEU163     -0.2867
    149  CB       132.9630   98.1830  -42.4590 C.3   163  LEU163      0.0270
    150  CG       132.0470   98.6830  -43.5710 C.3   163  LEU163      0.0019
    151  CD1      130.5890   98.4770  -43.1760 C.3   163  LEU163      0.0001
    152  CD2      132.3310  100.1540  -43.8740 C.3   163  LEU163      0.0001
@<TRIPOS>BOND
     1    67    68    1
     2    67    66    1
     3    68    62    1
     4    66    63    1
     5    65    64    2
     6    59    60    1
     7    59    56    1
     8    60    61    1
     9    62    63    1
    10    62    57   am
    11    63    64    1
    12    64    69   am
    13    56    57    1
    14    56    55    1
    15    57    58    2
    16    69    70    1
    17    61    55    1
    18    70    71    1
    19    55    50   am
    20    51    50    2
    21    44    43    2
    22    50    49    1
    23    71    72    2
    24    71    73   am
    25    47    45    1
    26    73    74    1
    27    45    46    1
    28    45    42    1
    29    78    77    1
    30    43    42    1
    31    43    48   am
    32    49    48    1
    33    49    52    1
    34    42    41    1
    35    48    54    1
    36    74    77    1
    37    74    75    1
    38    77    79    1
    39    52    53    1
    40   107   108    1
    41   107   106    1
    42    75    76    2
    43    54    53    1
    44   108   102    1
    45    90    89    2
    46   106   103    1
    47   102   103    1
    48   102    95   am
    49    91    92    1
    50    91    88    1
    51    89    88    1
    52    89    93   am
    53   103   104    1
    54    87    88    1
    55    94    95    1
    56    94    93    1
    57    94    97    1
    58    98    97    1
    59    98    99    1
    60    95    96    2
    61   101    99   ar
    62   152   150    1
    63   150   151    1
    64   150   149    1
    65   148   147    2
    66    99   100   ar
    67   147   146    1
    68   104   105    2
    69   104   109   am
    70    40    38    1
    71   112   111    2
    72   115   109    1
    73   115   114    1
    74    38    39    1
    75    38    35    1
    76   109   110    1
    77   149   146    1
    78    80    81    1
    79   146   145    1
    80    36    37    2
    81    36    35    1
    82   111   110    1
    83   114   113    1
    84    35    34    1
    85   110   113    1
    86     1     2    1
    87    81    82    1
    88    81    84    1
    89    86    84    1
    90     5     2    1
    91     5     6    1
    92   135   134    1
    93    34    22   am
    94     2     3    1
    95    82    83    2
    96    84    85    1
    97     7     6   ar
    98     7     9   ar
    99     6     8   ar
   100   134   136    1
   101   134   131    1
   102    22    23    2
   103    22    21    1
   104     9    11   ar
   105   119   118    2
   106   122   121   ar
   107     8    10   ar
   108     3     4    2
   109   118   117    1
   110   118   124   am
   111   117   116    1
   112   117   120    1
   113    11    10   ar
   114   131   130    1
   115   131   132    1
   116   130   126   am
   117    21    20    1
   118    21    24    1
   119   121   120    1
   120   121   123   ar
   121    16    17    1
   122    16    13    1
   123   126   125    1
   124   126   127    2
   125   124   125    1
   126   125   128    1
   127    15    14    2
   128    17    19    1
   129    17    18    1
   130    20    14   am
   131    14    13    1
   132   144   142    1
   133    24    25    1
   134   132   133    2
   135    13    12    1
   136   142   141    1
   137    30    32   ar
   138    30    27   ar
   139   128   129    1
   140    32    33   ar
   141    25    27   ar
   142    25    26   ar
   143    27    29   ar
   144   141   143    1
   145   141   138    1
   146    33    31   ar
   147   137   138    1
   148   138   139    1
   149    26    28   ar
   150    29    31   ar
   151    29    28   ar
   152   139   140    2
