@<TRIPOS>MOLECULE
tmp/5o1gA00.pdb
 150 151 0 0 0
SMALL
GASTEIGER

@<TRIPOS>ATOM
      1  N        100.8400   95.5690  -41.1140 N.3    14  PHE14      -0.1241
      2  CA       100.1350   94.5860  -40.3000 C.3    14  PHE14       0.1605
      3  C        100.5540   94.6660  -38.8340 C.2    14  PHE14       0.2264
      4  O        101.7500   94.6950  -38.5280 O.2    14  PHE14      -0.2867
      5  CB       100.4600   93.1950  -40.8400 C.3    14  PHE14       0.0534
      6  CG        99.8770   92.0740  -40.0330 C.ar   14  PHE14      -0.0203
      7  CD1       98.5140   91.8230  -40.0640 C.ar   14  PHE14      -0.0042
      8  CD2      100.6910   91.2560  -39.2650 C.ar   14  PHE14      -0.0042
      9  CE1       97.9640   90.7830  -39.3410 C.ar   14  PHE14      -0.0003
     10  CE2      100.1460   90.2000  -38.5310 C.ar   14  PHE14      -0.0003
     11  CZ        98.7770   89.9670  -38.5730 C.ar   14  PHE14      -0.0000
     12  N         93.1850   92.2760  -35.8510 N.3    50  LEU50      -0.1231
     13  CA        94.1620   92.4120  -36.9200 C.3    50  LEU50       0.1693
     14  C         93.9500   93.7740  -37.5530 C.2    50  LEU50       0.2592
     15  O         92.8150   94.1250  -37.8870 O.2    50  LEU50      -0.2718
     16  CB        93.9430   91.3260  -37.9710 C.3    50  LEU50       0.0284
     17  CG        93.8820   89.8950  -37.4330 C.3    50  LEU50       0.0019
     18  CD1       93.5450   88.9440  -38.5580 C.3    50  LEU50       0.0001
     19  CD2       95.2120   89.5070  -36.8010 C.3    50  LEU50       0.0001
     20  N         95.0290   94.5470  -37.6860 N.am   51  TRP51      -0.1962
     21  CA        94.9780   95.8930  -38.2420 C.3    51  TRP51       0.1771
     22  C         95.9480   95.9640  -39.4090 C.2    51  TRP51       0.2619
     23  O         97.0390   95.3930  -39.3450 O.2    51  TRP51      -0.2715
     24  CB        95.4160   96.9190  -37.1850 C.3    51  TRP51       0.0590
     25  CG        94.4300   97.0910  -36.0690 C.ar   51  TRP51       0.0006
     26  CD1       94.3750   96.3910  -34.8910 C.ar   51  TRP51       0.0946
     27  CD2       93.3530   98.0270  -36.0290 C.ar   51  TRP51       0.0152
     28  NE1       93.3250   96.8440  -34.1230 N.ar   51  TRP51      -0.2442
     29  CE2       92.6850   97.8500  -34.7970 C.ar   51  TRP51       0.0810
     30  CE3       92.8920   99.0050  -36.9120 C.ar   51  TRP51       0.0012
     31  CZ2       91.5740   98.6070  -34.4360 C.ar   51  TRP51       0.0191
     32  CZ3       91.7890   99.7590  -36.5480 C.ar   51  TRP51       0.0001
     33  CH2       91.1450   99.5550  -35.3240 C.ar   51  TRP51       0.0015
     34  N         95.5570   96.6760  -40.4700 N.am   52  VAL52      -0.1977
     35  CA        96.4380   96.9430  -41.5990 C.3    52  VAL52       0.1596
     36  C         96.2540   98.3950  -42.0160 C.2    52  VAL52       0.2287
     37  O         95.2170   99.0120  -41.7660 O.2    52  VAL52      -0.2864
     38  CB        96.1930   96.0230  -42.8220 C.3    52  VAL52       0.0276
     39  CG1       96.5350   94.5740  -42.4990 C.3    52  VAL52       0.0022
     40  CG2       94.7530   96.1480  -43.3220 C.3    52  VAL52       0.0022
     41  N         96.6820   99.0730  -45.3780 N.3    54  SER54      -0.1202
     42  CA        96.1110   98.9300  -46.7090 C.3    54  SER54       0.2020
     43  C         95.7020   97.4780  -46.9030 C.2    54  SER54       0.2619
     44  O         96.2160   96.5740  -46.2380 O.2    54  SER54      -0.2717
     45  CB        97.0760   99.3940  -47.8090 C.3    54  SER54       0.2103
     46  OG        98.3080   98.7000  -47.7400 O.3    54  SER54      -0.2182
     47  N         94.7750   97.2680  -47.8240 N.am   55  THR55      -0.1939
     48  CA        94.1420   95.9680  -47.9890 C.3    55  THR55       0.2013
     49  C         95.1110   94.9850  -48.6400 C.2    55  THR55       0.2484
     50  O         95.6550   95.2740  -49.7130 O.2    55  THR55      -0.2729
     51  CB        92.9250   96.1340  -48.8960 C.3    55  THR55       0.1807
     52  OG1       92.0680   97.1720  -48.3900 O.3    55  THR55      -0.2208
     53  CG2       92.1640   94.8110  -49.0130 C.3    55  THR55       0.0379
     54  N         95.3360   93.8160  -48.0510 N.am   56  PRO56      -0.2715
     55  CA        96.1610   92.7950  -48.7150 C.3    56  PRO56       0.1521
     56  C         95.3710   92.0870  -49.8040 C.2    56  PRO56       0.2440
     57  O         94.1410   92.2270  -49.8850 O.2    56  PRO56      -0.2731
     58  CB        96.5070   91.8310  -47.5700 C.3    56  PRO56       0.0310
     59  CG        95.3730   91.9710  -46.6310 C.3    56  PRO56       0.0237
     60  CD        94.9230   93.4050  -46.6970 C.3    56  PRO56       0.0939
     61  N         96.0400   91.3100  -50.6530 N.am   57  PRO57      -0.2717
     62  CA        95.3610   90.6680  -51.7930 C.3    57  PRO57       0.1521
     63  C         94.3780   89.5920  -51.3630 C.2    57  PRO57       0.2440
     64  O         94.5100   88.9980  -50.2810 O.2    57  PRO57      -0.2731
     65  CB        96.5250   90.0390  -52.5740 C.3    57  PRO57       0.0310
     66  CG        97.7080   90.8630  -52.2170 C.3    57  PRO57       0.0237
     67  CD        97.5070   91.2250  -50.7750 C.3    57  PRO57       0.0939
     68  N         93.3990   89.2780  -52.2140 N.am   58  PRO58      -0.2716
     69  CA        92.5680   88.0920  -51.9760 C.3    58  PRO58       0.1536
     70  C         93.4480   86.8540  -51.8680 C.2    58  PRO58       0.2599
     71  O         94.3990   86.6760  -52.6280 O.2    58  PRO58      -0.2715
     72  CB        91.6820   88.0220  -53.2270 C.3    58  PRO58       0.0310
     73  CG        91.7490   89.3760  -53.8480 C.3    58  PRO58       0.0237
     74  CD        93.0970   89.9210  -53.5060 C.3    58  PRO58       0.0939
     75  N         93.1280   85.9910  -50.9120 N.am   59  GLY59      -0.1941
     76  CA        93.9260   84.8070  -50.6780 C.3    59  GLY59       0.2014
     77  C         94.9720   84.9600  -49.5930 C.2    59  GLY59       0.2639
     78  O         95.6020   83.9670  -49.2130 O.2    59  GLY59      -0.2714
     79  N         95.1730   86.1700  -49.0800 N.am   60  THR60      -0.1950
     80  CA        96.0330   86.3410  -47.9210 C.3    60  THR60       0.1897
     81  C         95.4160   85.6140  -46.7270 C.2    60  THR60       0.2313
     82  O         94.1910   85.5360  -46.5890 O.2    60  THR60      -0.2863
     83  CB        96.1920   87.8440  -47.6320 C.3    60  THR60       0.1794
     84  OG1       96.6180   88.5290  -48.8210 O.3    60  THR60      -0.2208
     85  CG2       97.2200   88.0870  -46.5470 C.3    60  THR60       0.0378
     86  N         95.9920   84.3780  -42.2900 N.3    62  VAL62      -0.1245
     87  CA        96.5510   84.7070  -40.9770 C.3    62  VAL62       0.1561
     88  C         96.7770   83.4020  -40.2260 C.2    62  VAL62       0.2260
     89  O         95.8240   82.6490  -39.9880 O.2    62  VAL62      -0.2867
     90  CB        95.6120   85.6190  -40.1700 C.3    62  VAL62       0.0252
     91  CG1       96.2000   85.8780  -38.7860 C.3    62  VAL62       0.0019
     92  CG2       95.3770   86.9290  -40.8960 C.3    62  VAL62       0.0019
     93  N         92.0610   85.7640  -44.6560 N.3   125  CYS125     -0.1221
     94  CA        91.7470   87.1490  -44.3430 C.3   125  CYS125      0.1808
     95  C         90.3750   87.4980  -44.8890 C.2   125  CYS125      0.2601
     96  O         90.0390   87.1600  -46.0270 O.2   125  CYS125     -0.2717
     97  CB        92.7510   88.0840  -45.0030 C.3   125  CYS125      0.0970
     98  SG        94.4120   87.9050  -44.4100 S.3   125  CYS125     -0.0800
     99  N         89.5870   88.1950  -44.0780 N.am  126  GLU126     -0.1966
    100  CA        88.3230   88.7460  -44.5250 C.3   126  GLU126      0.1718
    101  C         88.3080   90.2290  -44.1870 C.2   126  GLU126      0.2458
    102  O         88.8560   90.6320  -43.1540 O.2   126  GLU126     -0.2730
    103  CB        87.1570   88.0440  -43.8180 C.3   126  GLU126      0.0428
    104  CG        86.9680   86.5980  -44.2530 C.3   126  GLU126      0.1163
    105  CD        85.9820   85.8430  -43.3800 C.2   126  GLU126      0.3649
    106  OE1       85.3260   86.4820  -42.5280 O.co2 126  GLU126     -0.2457
    107  OE2       85.8610   84.6100  -43.5480 O.co2 126  GLU126     -0.2457
    108  N         87.7180   91.0630  -45.0360 N.am  127  PRO127     -0.2716
    109  CA        87.6640   92.4960  -44.7410 C.3   127  PRO127      0.1521
    110  C         86.7940   92.7570  -43.5250 C.2   127  PRO127      0.2440
    111  O         85.9260   91.9400  -43.1880 O.2   127  PRO127     -0.2731
    112  CB        87.0420   93.0960  -46.0130 C.3   127  PRO127      0.0310
    113  CG        86.3170   91.9760  -46.6570 C.3   127  PRO127      0.0237
    114  CD        87.0910   90.7330  -46.3280 C.3   127  PRO127      0.0939
    115  N         87.0170   93.8690  -42.8250 N.am  128  PRO128     -0.2727
    116  CA        86.1600   94.2040  -41.6830 C.3   128  PRO128      0.1402
    117  C         84.6960   94.2920  -42.0890 C.2   128  PRO128      0.2269
    118  O         84.3600   94.6200  -43.2280 O.2   128  PRO128     -0.2865
    119  CB        86.6870   95.5720  -41.2360 C.3   128  PRO128      0.0296
    120  CG        88.1210   95.5700  -41.6680 C.3   128  PRO128      0.0237
    121  CD        88.1520   94.7960  -42.9600 C.3   128  PRO128      0.0939
    122  N         86.6340   98.8950  -38.3250 N.3   133  ASP133     -0.1225
    123  CA        87.9090   99.2910  -38.8990 C.3   133  ASP133      0.1805
    124  C         88.9660   98.2030  -38.8240 C.2   133  ASP133      0.2598
    125  O         90.0720   98.3960  -39.3410 O.2   133  ASP133     -0.2718
    126  CB        88.4270  100.5570  -38.2060 C.3   133  ASP133      0.1424
    127  CG        87.6050  101.7780  -38.5450 C.2   133  ASP133      0.3668
    128  OD1       87.1380  101.8810  -39.7000 O.co2 133  ASP133     -0.2456
    129  OD2       87.4330  102.6340  -37.6560 O.co2 133  ASP133     -0.2456
    130  N         88.6630   97.0770  -38.1920 N.am  134  CYS134     -0.1956
    131  CA        89.5910   95.9670  -38.0970 C.3   134  CYS134      0.1843
    132  C         88.7940   94.6770  -38.1260 C.2   134  CYS134      0.2626
    133  O         87.5610   94.6760  -38.0820 O.2   134  CYS134     -0.2714
    134  CB        90.4250   96.0390  -36.8090 C.3   134  CYS134      0.0997
    135  SG        89.4940   95.7380  -35.2790 S.3   134  CYS134     -0.0797
    136  N         89.5120   93.5710  -38.2240 N.am  135  THR135     -0.1950
    137  CA        88.8980   92.2590  -38.1420 C.3   135  THR135      0.1897
    138  C         89.4210   91.5600  -36.8970 C.2   135  THR135      0.2313
    139  O         90.5300   91.8240  -36.4320 O.2   135  THR135     -0.2863
    140  CB        89.1690   91.4250  -39.4010 C.3   135  THR135      0.1794
    141  OG1       88.3140   90.2760  -39.4120 O.3   135  THR135     -0.2208
    142  CG2       90.6060   90.9810  -39.4320 C.3   135  THR135      0.0378
    143  N        100.9760   87.0980  -41.1590 N.3   162  LEU162     -0.1245
    144  CA       100.1850   87.3750  -42.3460 C.3   162  LEU162      0.1561
    145  C        100.9490   86.7620  -43.5110 C.2   162  LEU162      0.2260
    146  O        102.1520   86.9910  -43.6440 O.2   162  LEU162     -0.2867
    147  CB       100.0680   88.8870  -42.5310 C.3   162  LEU162      0.0270
    148  CG        99.0930   89.3550  -43.6060 C.3   162  LEU162      0.0019
    149  CD1       97.6630   89.1190  -43.1620 C.3   162  LEU162      0.0001
    150  CD2       99.3150   90.8330  -43.9270 C.3   162  LEU162      0.0001
@<TRIPOS>BOND
     1    73    74    1
     2    73    72    1
     3    74    68    1
     4    72    69    1
     5    71    70    2
     6    65    66    1
     7    65    62    1
     8    66    67    1
     9    68    69    1
    10    68    63   am
    11    69    70    1
    12    70    75   am
    13    62    63    1
    14    62    61    1
    15    63    64    2
    16    75    76    1
    17    67    61    1
    18    76    77    1
    19    61    56   am
    20    57    56    2
    21    56    55    1
    22    50    49    2
    23    77    78    2
    24    77    79   am
    25    79    80    1
    26    53    51    1
    27    51    52    1
    28    51    48    1
    29    84    83    1
    30    55    54    1
    31    55    58    1
    32    49    54   am
    33    49    48    1
    34    54    60    1
    35    48    47    1
    36    80    83    1
    37    80    81    1
    38    47    43   am
    39    45    46    1
    40    45    42    1
    41    83    85    1
    42    58    59    1
    43    43    42    1
    44    43    44    2
    45    81    82    2
    46    42    41    1
    47    60    59    1
    48   113   114    1
    49   113   112    1
    50   114   108    1
    51    96    95    2
    52   112   109    1
    53   108   109    1
    54   108   101   am
    55    97    98    1
    56    97    94    1
    57    95    94    1
    58    95    99   am
    59   109   110    1
    60    93    94    1
    61   100   101    1
    62   100    99    1
    63   100   103    1
    64   104   103    1
    65   104   105    1
    66   101   102    2
    67   150   148    1
    68   146   145    2
    69   148   149    1
    70   148   147    1
    71   107   105   ar
    72   110   111    2
    73   110   115   am
    74   145   144    1
    75   105   106   ar
    76    40    38    1
    77   118   117    2
    78   121   115    1
    79   121   120    1
    80   115   116    1
    81    38    39    1
    82    38    35    1
    83   147   144    1
    84   144   143    1
    85    86    87    1
    86   117   116    1
    87    36    37    2
    88    36    35    1
    89   116   119    1
    90   120   119    1
    91    35    34    1
    92     1     2    1
    93    87    88    1
    94    87    90    1
    95    92    90    1
    96     5     2    1
    97     5     6    1
    98    34    22   am
    99     2     3    1
   100    88    89    2
   101    90    91    1
   102     7     6   ar
   103     7     9   ar
   104     6     8   ar
   105   128   127   ar
   106   142   140    1
   107   141   140    1
   108    22    23    2
   109    22    21    1
   110   140   137    1
   111   125   124    2
   112     9    11   ar
   113     8    10   ar
   114   123   124    1
   115   123   122    1
   116   123   126    1
   117     3     4    2
   118   124   130   am
   119    11    10   ar
   120    18    17    1
   121   127   126    1
   122   127   129   ar
   123    21    20    1
   124    21    24    1
   125   136   137    1
   126   136   132   am
   127   130   131    1
   128   137   138    1
   129   132   131    1
   130   132   133    2
   131   131   134    1
   132    16    17    1
   133    16    13    1
   134    15    14    2
   135    20    14   am
   136    14    13    1
   137    17    19    1
   138    24    25    1
   139    13    12    1
   140    30    32   ar
   141    30    27   ar
   142   138   139    2
   143   134   135    1
   144    32    33   ar
   145    25    27   ar
   146    25    26   ar
   147    27    29   ar
   148    33    31   ar
   149    26    28   ar
   150    29    31   ar
   151    29    28   ar
