@<TRIPOS>MOLECULE
tmp/5o1hB00.pdb
 144 145 0 0 0
SMALL
GASTEIGER

@<TRIPOS>ATOM
      1  N        133.9000  105.0660  -41.0180 N.3    15  PHE15      -0.1241
      2  CA       133.1360  104.1130  -40.2200 C.3    15  PHE15       0.1605
      3  C        133.5390  104.1570  -38.7490 C.2    15  PHE15       0.2264
      4  O        134.7320  104.1200  -38.4260 O.2    15  PHE15      -0.2867
      5  CB       133.4200  102.7150  -40.7660 C.3    15  PHE15       0.0534
      6  CG       132.7880  101.6050  -39.9760 C.ar   15  PHE15      -0.0203
      7  CD1      131.4210  101.3900  -40.0380 C.ar   15  PHE15      -0.0042
      8  CD2      133.5600  100.7590  -39.1860 C.ar   15  PHE15      -0.0042
      9  CE1      130.8290  100.3590  -39.3330 C.ar   15  PHE15      -0.0003
     10  CE2      132.9720   99.7170  -38.4690 C.ar   15  PHE15      -0.0003
     11  CZ       131.6030   99.5210  -38.5450 C.ar   15  PHE15      -0.0000
     12  N        126.0600  101.8700  -35.9770 N.3    51  LEU51      -0.1231
     13  CA       127.0750  102.0590  -36.9990 C.3    51  LEU51       0.1693
     14  C        126.8870  103.4530  -37.5760 C.2    51  LEU51       0.2592
     15  O        125.7590  103.8480  -37.8680 O.2    51  LEU51      -0.2718
     16  CB       126.9200  100.9980  -38.0890 C.3    51  LEU51       0.0284
     17  CG       126.7930   99.5810  -37.5170 C.3    51  LEU51       0.0019
     18  CD1      126.2840   98.6060  -38.5600 C.3    51  LEU51       0.0001
     19  CD2      128.1210   99.1030  -36.9420 C.3    51  LEU51       0.0001
     20  N        127.9860  104.1940  -37.7030 N.am   52  TRP52      -0.1962
     21  CA       127.9880  105.5460  -38.2460 C.3    52  TRP52       0.1771
     22  C        128.9820  105.6090  -39.3940 C.2    52  TRP52       0.2619
     23  O        130.0570  105.0080  -39.3210 O.2    52  TRP52      -0.2715
     24  CB       128.4120  106.5630  -37.1600 C.3    52  TRP52       0.0590
     25  CG       127.4030  106.7380  -36.0630 C.ar   52  TRP52       0.0006
     26  CD1      127.3040  106.0140  -34.9050 C.ar   52  TRP52       0.0946
     27  CD2      126.3400  107.6940  -36.0300 C.ar   52  TRP52       0.0152
     28  NE1      126.2440  106.4740  -34.1480 N.ar   52  TRP52      -0.2442
     29  CE2      125.6380  107.5030  -34.8200 C.ar   52  TRP52       0.0810
     30  CE3      125.9090  108.6930  -36.9120 C.ar   52  TRP52       0.0012
     31  CZ2      124.5280  108.2700  -34.4750 C.ar   52  TRP52       0.0191
     32  CZ3      124.8210  109.4640  -36.5570 C.ar   52  TRP52       0.0001
     33  CH2      124.1370  109.2430  -35.3550 C.ar   52  TRP52       0.0015
     34  N        128.6240  106.3420  -40.4560 N.am   53  VAL53      -0.1977
     35  CA       129.5320  106.5910  -41.5690 C.3    53  VAL53       0.1596
     36  C        129.3910  108.0360  -42.0240 C.2    53  VAL53       0.2287
     37  O        128.3590  108.6780  -41.8280 O.2    53  VAL53      -0.2864
     38  CB       129.2800  105.6700  -42.7850 C.3    53  VAL53       0.0276
     39  CG1      129.5710  104.2170  -42.4350 C.3    53  VAL53       0.0022
     40  CG2      127.8560  105.8420  -43.2900 C.3    53  VAL53       0.0022
     41  N        127.9190  106.9400  -47.8280 N.3    56  THR56      -0.1204
     42  CA       127.1690  105.7050  -48.0080 C.3    56  THR56       0.1979
     43  C        128.0490  104.6280  -48.6320 C.2    56  THR56       0.2460
     44  O        128.5870  104.8420  -49.7290 O.2    56  THR56      -0.2732
     45  CB       126.0010  106.0020  -48.9490 C.3    56  THR56       0.1783
     46  OG1      125.2240  107.0920  -48.4300 O.3    56  THR56      -0.2211
     47  CG2      125.1160  104.7710  -49.1160 C.3    56  THR56       0.0376
     48  N        128.2140  103.4680  -47.9980 N.am   57  PRO57      -0.2718
     49  CA       128.9570  102.3690  -48.6380 C.3    57  PRO57       0.1520
     50  C        128.1340  101.7050  -49.7300 C.2    57  PRO57       0.2440
     51  O        126.9060  101.8660  -49.7880 O.2    57  PRO57      -0.2731
     52  CB       129.2280  101.4010  -47.4730 C.3    57  PRO57       0.0310
     53  CG       128.1760  101.6940  -46.4880 C.3    57  PRO57       0.0237
     54  CD       127.8090  103.1410  -46.6170 C.3    57  PRO57       0.0939
     55  N        128.7790  100.9490  -50.6160 N.am   58  PRO58      -0.2717
     56  CA       128.0740  100.3460  -51.7660 C.3    58  PRO58       0.1521
     57  C        127.1150   99.2450  -51.3470 C.2    58  PRO58       0.2440
     58  O        127.3080   98.5890  -50.3100 O.2    58  PRO58      -0.2731
     59  CB       129.2180   99.7550  -52.6040 C.3    58  PRO58       0.0310
     60  CG       130.4420  100.4600  -52.1680 C.3    58  PRO58       0.0237
     61  CD       130.2420  100.8350  -50.7350 C.3    58  PRO58       0.0939
     62  N        126.1000   98.9610  -52.1690 N.am   59  PRO59      -0.2716
     63  CA       125.2610   97.7780  -51.9280 C.3    59  PRO59       0.1536
     64  C        126.1180   96.5220  -51.8300 C.2    59  PRO59       0.2599
     65  O        127.0550   96.3250  -52.6030 O.2    59  PRO59      -0.2715
     66  CB       124.3470   97.7360  -53.1600 C.3    59  PRO59       0.0310
     67  CG       124.3870   99.1250  -53.7180 C.3    59  PRO59       0.0237
     68  CD       125.7540   99.6420  -53.4300 C.3    59  PRO59       0.0939
     69  N        125.8080   95.6750  -50.8540 N.am   60  GLY60      -0.1941
     70  CA       126.5690   94.4610  -50.6360 C.3    60  GLY60       0.2014
     71  C        127.6330   94.5790  -49.5640 C.2    60  GLY60       0.2639
     72  O        128.2360   93.5650  -49.1930 O.2    60  GLY60      -0.2714
     73  N        127.8840   95.7800  -49.0590 N.am   61  THR61      -0.1950
     74  CA       128.7550   95.9260  -47.9010 C.3    61  THR61       0.1897
     75  C        128.1270   95.2130  -46.7050 C.2    61  THR61       0.2313
     76  O        126.9030   95.1500  -46.5760 O.2    61  THR61      -0.2863
     77  CB       128.9430   97.4260  -47.6020 C.3    61  THR61       0.1794
     78  OG1      129.3940   98.1080  -48.7820 O.3    61  THR61      -0.2208
     79  CG2      129.9680   97.6480  -46.5140 C.3    61  THR61       0.0378
     80  N        128.6860   93.9320  -42.2780 N.3    63  VAL63      -0.1245
     81  CA       129.2630   94.2490  -40.9690 C.3    63  VAL63       0.1561
     82  C        129.4510   92.9400  -40.2090 C.2    63  VAL63       0.2260
     83  O        128.4890   92.1810  -40.0310 O.2    63  VAL63      -0.2867
     84  CB       128.3690   95.1980  -40.1480 C.3    63  VAL63       0.0252
     85  CG1      128.9770   95.4200  -38.7580 C.3    63  VAL63       0.0019
     86  CG2      128.1870   96.5260  -40.8490 C.3    63  VAL63       0.0019
     87  N        124.7890   95.3100  -44.6070 N.3   126  CYS126     -0.1221
     88  CA       124.5100   96.7010  -44.2670 C.3   126  CYS126      0.1808
     89  C        123.1600   97.1070  -44.8380 C.2   126  CYS126      0.2601
     90  O        122.8670   96.8420  -46.0110 O.2   126  CYS126     -0.2717
     91  CB       125.5630   97.6180  -44.8850 C.3   126  CYS126      0.0970
     92  SG       127.2160   97.3760  -44.2810 S.3   126  CYS126     -0.0800
     93  N        122.3550   97.7810  -44.0210 N.am  127  GLU127     -0.1966
     94  CA       121.1040   98.3760  -44.4570 C.3   127  GLU127      0.1718
     95  C        121.1160   99.8460  -44.0670 C.2   127  GLU127      0.2458
     96  O        121.6470  100.1980  -43.0110 O.2   127  GLU127     -0.2730
     97  CB       119.9040   97.7050  -43.7790 C.3   127  GLU127      0.0428
     98  CG       119.6410   96.2820  -44.2080 C.3   127  GLU127      0.1163
     99  CD       118.4390   95.7070  -43.4830 C.2   127  GLU127      0.3649
    100  OE1      118.6210   94.8460  -42.6140 O.co2 127  GLU127     -0.2457
    101  OE2      117.3110   96.1280  -43.7830 O.co2 127  GLU127     -0.2457
    102  N        120.5400  100.7220  -44.8820 N.am  128  PRO128     -0.2716
    103  CA       120.5450  102.1510  -44.5520 C.3   128  PRO128      0.1521
    104  C        119.6970  102.4270  -43.3250 C.2   128  PRO128      0.2440
    105  O        118.8320  101.6160  -42.9610 O.2   128  PRO128     -0.2731
    106  CB       119.9370  102.8060  -45.8030 C.3   128  PRO128      0.0310
    107  CG       119.1690  101.7270  -46.4610 C.3   128  PRO128      0.0237
    108  CD       119.9100  100.4560  -46.1870 C.3   128  PRO128      0.0939
    109  N        119.9230  103.5580  -42.6560 N.am  129  PRO129     -0.2727
    110  CA       119.1160  103.8910  -41.4800 C.3   129  PRO129      0.1402
    111  C        117.6370  103.9530  -41.8230 C.2   129  PRO129      0.2269
    112  O        117.2470  104.2850  -42.9440 O.2   129  PRO129     -0.2865
    113  CB       119.6420  105.2730  -41.0740 C.3   129  PRO129      0.0296
    114  CG       121.0520  105.2850  -41.5620 C.3   129  PRO129      0.0237
    115  CD       121.0350  104.5050  -42.8490 C.3   129  PRO129      0.0939
    116  N        119.5640  108.6300  -38.0790 N.3   134  ASP134     -0.1225
    117  CA       120.8220  109.0220  -38.6970 C.3   134  ASP134      0.1805
    118  C        121.8570  107.9070  -38.7100 C.2   134  ASP134      0.2598
    119  O        122.9370  108.0870  -39.2850 O.2   134  ASP134     -0.2718
    120  CB       121.4140  110.2350  -37.9660 C.3   134  ASP134      0.1424
    121  CG       120.6050  111.4970  -38.1770 C.2   134  ASP134      0.3668
    122  OD1      119.9960  111.6330  -39.2570 O.co2 134  ASP134     -0.2456
    123  OD2      120.5840  112.3560  -37.2670 O.co2 134  ASP134     -0.2456
    124  N        121.5650  106.7720  -38.0850 N.am  135  CYS135     -0.1956
    125  CA       122.4940  105.6540  -38.0360 C.3   135  CYS135      0.1843
    126  C        121.7080  104.3550  -38.1070 C.2   135  CYS135      0.2626
    127  O        120.4790  104.3320  -37.9800 O.2   135  CYS135     -0.2714
    128  CB       123.3480  105.6930  -36.7630 C.3   135  CYS135      0.0997
    129  SG       122.4080  105.4440  -35.2360 S.3   135  CYS135     -0.0797
    130  N        122.4320  103.2670  -38.3180 N.am  136  THR136     -0.1950
    131  CA       121.8600  101.9330  -38.3330 C.3   136  THR136      0.1897
    132  C        122.2870  101.2190  -37.0590 C.2   136  THR136      0.2313
    133  O        123.4000  101.4270  -36.5650 O.2   136  THR136     -0.2863
    134  CB       122.3340  101.1790  -39.5830 C.3   136  THR136      0.1794
    135  OG1      121.7500  101.8050  -40.7300 O.3   136  THR136     -0.2208
    136  CG2      121.9350   99.6980  -39.5510 C.3   136  THR136      0.0378
    137  N        133.7000   96.5930  -41.0330 N.3   163  LEU163     -0.1245
    138  CA       132.9280   96.8730  -42.2330 C.3   163  LEU163      0.1561
    139  C        133.7020   96.2440  -43.3870 C.2   163  LEU163      0.2260
    140  O        134.9150   96.4440  -43.4990 O.2   163  LEU163     -0.2867
    141  CB       132.8300   98.3880  -42.4240 C.3   163  LEU163      0.0270
    142  CG       131.9080   98.8900  -43.5370 C.3   163  LEU163      0.0019
    143  CD1      130.4570   98.6780  -43.1360 C.3   163  LEU163      0.0001
    144  CD2      132.1800  100.3640  -43.8550 C.3   163  LEU163      0.0001
@<TRIPOS>BOND
     1    67    68    1
     2    67    66    1
     3    68    62    1
     4    66    63    1
     5    59    60    1
     6    59    56    1
     7    65    64    2
     8    62    63    1
     9    62    57   am
    10    60    61    1
    11    63    64    1
    12    64    69   am
    13    56    57    1
    14    56    55    1
    15    57    58    2
    16    69    70    1
    17    61    55    1
    18    70    71    1
    19    55    50   am
    20    51    50    2
    21    50    49    1
    22    44    43    2
    23    71    72    2
    24    71    73   am
    25    47    45    1
    26    73    74    1
    27    45    46    1
    28    45    42    1
    29    78    77    1
    30    49    48    1
    31    49    52    1
    32    43    42    1
    33    43    48   am
    34    42    41    1
    35    48    54    1
    36    74    77    1
    37    74    75    1
    38    77    79    1
    39    52    53    1
    40    75    76    2
    41    54    53    1
    42   107   108    1
    43   107   106    1
    44   108   102    1
    45    90    89    2
    46   106   103    1
    47    91    92    1
    48    91    88    1
    49   102   103    1
    50   102    95   am
    51    89    88    1
    52    89    93   am
    53    87    88    1
    54   103   104    1
    55    94    95    1
    56    94    93    1
    57    94    97    1
    58    98    97    1
    59    98    99    1
    60    95    96    2
    61   144   142    1
    62   101    99   ar
    63   142   143    1
    64   142   141    1
    65   140   139    2
    66    99   100   ar
    67   139   138    1
    68   104   105    2
    69   104   109   am
    70    40    38    1
    71   112   111    2
    72   115   109    1
    73   115   114    1
    74    38    39    1
    75    38    35    1
    76   109   110    1
    77   141   138    1
    78    80    81    1
    79   138   137    1
    80    36    37    2
    81    36    35    1
    82   111   110    1
    83    35    34    1
    84   114   113    1
    85   110   113    1
    86     1     2    1
    87    81    82    1
    88    81    84    1
    89    86    84    1
    90     5     2    1
    91     5     6    1
    92   135   134    1
    93    34    22   am
    94     2     3    1
    95    82    83    2
    96    84    85    1
    97     7     6   ar
    98     7     9   ar
    99     6     8   ar
   100   134   136    1
   101   134   131    1
   102    22    23    2
   103    22    21    1
   104     9    11   ar
   105   119   118    2
   106   122   121   ar
   107     8    10   ar
   108     3     4    2
   109   118   117    1
   110   118   124   am
   111   117   116    1
   112   117   120    1
   113    18    17    1
   114    11    10   ar
   115   131   130    1
   116   131   132    1
   117   130   126   am
   118    21    20    1
   119    21    24    1
   120   121   120    1
   121   121   123   ar
   122   126   125    1
   123   126   127    2
   124    16    17    1
   125    16    13    1
   126   124   125    1
   127   125   128    1
   128    15    14    2
   129    20    14   am
   130    14    13    1
   131    17    19    1
   132    24    25    1
   133   132   133    2
   134    13    12    1
   135    30    32   ar
   136    30    27   ar
   137   128   129    1
   138    32    33   ar
   139    25    27   ar
   140    25    26   ar
   141    27    29   ar
   142    33    31   ar
   143    26    28   ar
   144    29    31   ar
   145    29    28   ar
