@<TRIPOS>MOLECULE
tmp/5o1iA00.pdb
 165 166 0 0 0
SMALL
GASTEIGER

@<TRIPOS>ATOM
      1  N        100.5550   95.5660  -41.1740 N.3    14  PHE14      -0.1241
      2  CA        99.8530   94.5780  -40.3630 C.3    14  PHE14       0.1605
      3  C        100.2810   94.6530  -38.9000 C.2    14  PHE14       0.2264
      4  O        101.4770   94.6780  -38.5970 O.2    14  PHE14      -0.2867
      5  CB       100.1700   93.1910  -40.9110 C.3    14  PHE14       0.0534
      6  CG        99.5980   92.0690  -40.0930 C.ar   14  PHE14      -0.0203
      7  CD1       98.2350   91.8090  -40.1160 C.ar   14  PHE14      -0.0042
      8  CD2      100.4220   91.2480  -39.3230 C.ar   14  PHE14      -0.0042
      9  CE1       97.6950   90.7610  -39.3830 C.ar   14  PHE14      -0.0003
     10  CE2       99.8910   90.1870  -38.5890 C.ar   14  PHE14      -0.0003
     11  CZ        98.5260   89.9460  -38.6150 C.ar   14  PHE14      -0.0000
     12  N         92.9350   92.2390  -35.8690 N.3    50  LEU50      -0.1231
     13  CA        93.8930   92.3890  -36.9540 C.3    50  LEU50       0.1693
     14  C         93.6670   93.7580  -37.5660 C.2    50  LEU50       0.2592
     15  O         92.5280   94.1080  -37.8860 O.2    50  LEU50      -0.2718
     16  CB        93.6840   91.3090  -38.0230 C.3    50  LEU50       0.0284
     17  CG        93.6100   89.8840  -37.4710 C.3    50  LEU50       0.0019
     18  CD1       93.3090   88.8870  -38.5600 C.3    50  LEU50       0.0001
     19  CD2       94.8980   89.5170  -36.7400 C.3    50  LEU50       0.0001
     20  N         94.7410   94.5310  -37.6960 N.am   51  TRP51      -0.1962
     21  CA        94.7050   95.8790  -38.2460 C.3    51  TRP51       0.1771
     22  C         95.6550   95.9430  -39.4300 C.2    51  TRP51       0.2619
     23  O         96.7590   95.3890  -39.3760 O.2    51  TRP51      -0.2715
     24  CB        95.1680   96.8950  -37.1970 C.3    51  TRP51       0.0590
     25  CG        94.2060   97.0720  -36.0700 C.ar   51  TRP51       0.0006
     26  CD1       94.1610   96.3570  -34.8990 C.ar   51  TRP51       0.0946
     27  CD2       93.1470   98.0350  -35.9930 C.ar   51  TRP51       0.0152
     28  NE1       93.1320   96.8230  -34.1030 N.ar   51  TRP51      -0.2442
     29  CE2       92.4930   97.8450  -34.7570 C.ar   51  TRP51       0.0810
     30  CE3       92.6800   99.0310  -36.8570 C.ar   51  TRP51       0.0012
     31  CZ2       91.4020   98.6140  -34.3650 C.ar   51  TRP51       0.0191
     32  CZ3       91.5920   99.7890  -36.4660 C.ar   51  TRP51       0.0001
     33  CH2       90.9700   99.5790  -35.2330 C.ar   51  TRP51       0.0015
     34  N         95.2250   96.6090  -40.5040 N.am   52  VAL52      -0.1977
     35  CA        96.0870   96.8770  -41.6490 C.3    52  VAL52       0.1596
     36  C         95.8890   98.3220  -42.0820 C.2    52  VAL52       0.2287
     37  O         94.8420   98.9280  -41.8390 O.2    52  VAL52      -0.2864
     38  CB        95.8230   95.9330  -42.8470 C.3    52  VAL52       0.0276
     39  CG1       96.2080   94.5050  -42.5010 C.3    52  VAL52       0.0022
     40  CG2       94.3640   96.0100  -43.2740 C.3    52  VAL52       0.0022
     41  N         96.3380   99.0020  -45.4310 N.3    54  SER54      -0.1202
     42  CA        95.7700   98.8350  -46.7620 C.3    54  SER54       0.2020
     43  C         95.3440   97.3840  -46.9380 C.2    54  SER54       0.2619
     44  O         95.8440   96.4770  -46.2640 O.2    54  SER54      -0.2717
     45  CB        96.7340   99.2660  -47.8750 C.3    54  SER54       0.2103
     46  OG        97.9570   98.5670  -47.7850 O.3    54  SER54      -0.2182
     47  N         94.4200   97.1820  -47.8530 N.am   55  THR55      -0.1939
     48  CA        93.7660   95.8920  -48.0260 C.3    55  THR55       0.2013
     49  C         94.7000   94.9030  -48.7180 C.2    55  THR55       0.2484
     50  O         95.1850   95.1840  -49.8180 O.2    55  THR55      -0.2729
     51  CB        92.5410   96.0980  -48.8990 C.3    55  THR55       0.1807
     52  OG1       91.6660   97.0390  -48.2670 O.3    55  THR55      -0.2208
     53  CG2       91.8200   94.8010  -49.1040 C.3    55  THR55       0.0379
     54  N         94.9480   93.7370  -48.1340 N.am   56  PRO56      -0.2715
     55  CA        95.8160   92.7480  -48.7880 C.3    56  PRO56       0.1521
     56  C         95.0650   92.0070  -49.8820 C.2    56  PRO56       0.2440
     57  O         93.8280   92.0750  -49.9560 O.2    56  PRO56      -0.2731
     58  CB        96.1870   91.8040  -47.6350 C.3    56  PRO56       0.0310
     59  CG        95.0200   91.8760  -46.7330 C.3    56  PRO56       0.0237
     60  CD        94.5100   93.2900  -46.8000 C.3    56  PRO56       0.0939
     61  N         95.7760   91.2920  -50.7510 N.am   57  PRO57      -0.2717
     62  CA        95.1350   90.6580  -51.9160 C.3    57  PRO57       0.1521
     63  C         94.1810   89.5450  -51.5190 C.2    57  PRO57       0.2440
     64  O         94.3320   88.9140  -50.4600 O.2    57  PRO57      -0.2731
     65  CB        96.3290   90.0770  -52.6910 C.3    57  PRO57       0.0310
     66  CG        97.4810   90.9390  -52.3070 C.3    57  PRO57       0.0237
     67  CD        97.2460   91.2760  -50.8570 C.3    57  PRO57       0.0939
     68  N         93.2090   89.2340  -52.3780 N.am   58  PRO58      -0.2716
     69  CA        92.3790   88.0460  -52.1520 C.3    58  PRO58       0.1536
     70  C         93.2560   86.8130  -52.0130 C.2    58  PRO58       0.2599
     71  O         94.2350   86.6420  -52.7400 O.2    58  PRO58      -0.2715
     72  CB        91.5210   87.9700  -53.4200 C.3    58  PRO58       0.0310
     73  CG        91.5230   89.3630  -53.9720 C.3    58  PRO58       0.0237
     74  CD        92.8690   89.9210  -53.6390 C.3    58  PRO58       0.0939
     75  N         92.9100   85.9570  -51.0520 N.am   59  GLY59      -0.1941
     76  CA        93.6980   84.7740  -50.7770 C.3    59  GLY59       0.2014
     77  C         94.7030   84.9330  -49.6550 C.2    59  GLY59       0.2639
     78  O         95.3270   83.9410  -49.2600 O.2    59  GLY59      -0.2714
     79  N         94.8890   86.1470  -49.1430 N.am   60  THR60      -0.1950
     80  CA        95.7420   86.3350  -47.9750 C.3    60  THR60       0.1897
     81  C         95.1450   85.5960  -46.7810 C.2    60  THR60       0.2313
     82  O         93.9230   85.5180  -46.6320 O.2    60  THR60      -0.2863
     83  CB        95.8660   87.8380  -47.6710 C.3    60  THR60       0.1794
     84  OG1       96.3610   88.5290  -48.8280 O.3    60  THR60      -0.2208
     85  CG2       96.8200   88.0860  -46.5060 C.3    60  THR60       0.0378
     86  N         95.7810   84.3060  -42.3590 N.3    62  VAL62      -0.1245
     87  CA        96.3210   84.6760  -41.0500 C.3    62  VAL62       0.1561
     88  C         96.5460   83.3870  -40.2730 C.2    62  VAL62       0.2260
     89  O         95.5940   82.6330  -40.0300 O.2    62  VAL62      -0.2867
     90  CB        95.3740   85.6040  -40.2640 C.3    62  VAL62       0.0252
     91  CG1       95.9820   85.9650  -38.9070 C.3    62  VAL62       0.0019
     92  CG2       95.0650   86.8520  -41.0390 C.3    62  VAL62       0.0019
     93  N         91.2800   82.4060  -43.6610 N.3   124  PRO124     -0.2102
     94  CA        91.3160   83.4720  -44.6690 C.3   124  PRO124      0.1504
     95  C         91.1910   84.8350  -44.0100 C.2   124  PRO124      0.2576
     96  O         90.4910   85.0030  -43.0120 O.2   124  PRO124     -0.2718
     97  CB        90.0810   83.1840  -45.5330 C.3   124  PRO124      0.0282
     98  CG        89.7810   81.7480  -45.3040 C.3   124  PRO124      0.0208
     99  CD        90.1300   81.5060  -43.8570 C.3   124  PRO124      0.0893
    100  N         91.8820   85.8020  -44.5950 N.am  125  CYS125     -0.1957
    101  CA        91.6540   87.1900  -44.2390 C.3   125  CYS125      0.1843
    102  C         90.2740   87.6040  -44.7000 C.2   125  CYS125      0.2625
    103  O         89.8960   87.3910  -45.8580 O.2   125  CYS125     -0.2714
    104  CB        92.6780   88.0750  -44.9180 C.3   125  CYS125      0.0997
    105  SG        94.2700   87.7350  -44.3050 S.3   125  CYS125     -0.0797
    106  N         89.5220   88.1910  -43.7870 N.am  126  GLU126     -0.1964
    107  CA        88.2610   88.7870  -44.1850 C.3   126  GLU126      0.1718
    108  C         88.2440   90.2710  -43.8450 C.2   126  GLU126      0.2458
    109  O         88.7450   90.6730  -42.7920 O.2   126  GLU126     -0.2730
    110  CB        87.0810   88.0820  -43.5060 C.3   126  GLU126      0.0428
    111  CG        86.7230   86.7570  -44.1590 C.3   126  GLU126      0.1163
    112  CD        86.3640   86.9240  -45.6310 C.2   126  GLU126      0.3649
    113  OE1       85.6870   87.9030  -45.9720 O.co2 126  GLU126     -0.2457
    114  OE2       86.7660   86.0830  -46.4460 O.co2 126  GLU126     -0.2457
    115  N         87.6920   91.1010  -44.7220 N.am  127  PRO127     -0.2716
    116  CA        87.6340   92.5340  -44.4500 C.3   127  PRO127      0.1521
    117  C         86.7460   92.8190  -43.2550 C.2   127  PRO127      0.2440
    118  O         85.8660   92.0150  -42.9150 O.2   127  PRO127     -0.2731
    119  CB        87.0230   93.1090  -45.7380 C.3   127  PRO127      0.0310
    120  CG        86.2260   91.9810  -46.2990 C.3   127  PRO127      0.0237
    121  CD        87.0510   90.7570  -46.0040 C.3   127  PRO127      0.0939
    122  N         86.9550   93.9490  -42.5840 N.am  128  PRO128     -0.2727
    123  CA        86.0520   94.3410  -41.4990 C.3   128  PRO128      0.1402
    124  C         84.6240   94.4500  -42.0050 C.2   128  PRO128      0.2269
    125  O         84.3770   94.7800  -43.1660 O.2   128  PRO128     -0.2865
    126  CB        86.5840   95.7170  -41.0750 C.3   128  PRO128      0.0296
    127  CG        88.0110   95.7300  -41.5220 C.3   128  PRO128      0.0237
    128  CD        88.0280   94.9270  -42.7890 C.3   128  PRO128      0.0939
    129  N         86.4920   98.9690  -38.2770 N.3   133  ASP133     -0.1225
    130  CA        87.7780   99.3400  -38.8430 C.3   133  ASP133      0.1805
    131  C         88.8040   98.2270  -38.7460 C.2   133  ASP133      0.2598
    132  O         89.9240   98.3900  -39.2400 O.2   133  ASP133     -0.2718
    133  CB        88.3180  100.6010  -38.1670 C.3   133  ASP133      0.1424
    134  CG        87.4320  101.8000  -38.3910 C.2   133  ASP133      0.3668
    135  OD1       86.9590  101.9840  -39.5310 O.co2 133  ASP133     -0.2456
    136  OD2       87.2180  102.5560  -37.4240 O.co2 133  ASP133     -0.2456
    137  N         88.4580   97.1090  -38.1170 N.am  134  CYS134     -0.1956
    138  CA        89.3700   95.9840  -38.0190 C.3   134  CYS134      0.1843
    139  C         88.5530   94.7060  -38.0670 C.2   134  CYS134      0.2626
    140  O         87.3210   94.7270  -38.0390 O.2   134  CYS134     -0.2714
    141  CB        90.2010   96.0470  -36.7290 C.3   134  CYS134      0.0997
    142  SG        89.2740   95.7500  -35.1980 S.3   134  CYS134     -0.0797
    143  N         89.2580   93.5890  -38.1680 N.am  135  THR135     -0.1950
    144  CA        88.6310   92.2870  -38.0790 C.3   135  THR135      0.1897
    145  C         89.1790   91.5760  -36.8520 C.2   135  THR135      0.2313
    146  O         90.2900   91.8500  -36.3920 O.2   135  THR135     -0.2863
    147  CB        88.8730   91.4650  -39.3450 C.3   135  THR135      0.1794
    148  OG1       87.9770   90.3480  -39.3670 O.3   135  THR135     -0.2208
    149  CG2       90.2950   90.9760  -39.3730 C.3   135  THR135      0.0378
    150  N         89.6940   87.8150  -34.7980 N.3   137  ILE137     -0.1245
    151  CA        89.7130   86.3570  -34.7520 C.3   137  ILE137      0.1561
    152  C         89.5350   85.9540  -33.2950 C.2   137  ILE137      0.2260
    153  O         90.1180   86.5730  -32.3980 O.2   137  ILE137     -0.2867
    154  CB        91.0190   85.7620  -35.3240 C.3   137  ILE137      0.0252
    155  CG1       91.1820   86.0970  -36.8030 C.3   137  ILE137      0.0019
    156  CG2       91.0490   84.2320  -35.1420 C.3   137  ILE137      0.0019
    157  CD1       92.5030   85.6360  -37.3720 C.3   137  ILE137      0.0001
    158  N        100.7210   87.0850  -41.2070 N.3   162  LEU162     -0.1245
    159  CA        99.9210   87.3580  -42.3890 C.3   162  LEU162      0.1561
    160  C        100.6760   86.7390  -43.5580 C.2   162  LEU162      0.2260
    161  O        101.8780   86.9730  -43.7070 O.2   162  LEU162     -0.2867
    162  CB        99.8050   88.8730  -42.5790 C.3   162  LEU162      0.0270
    163  CG        98.8190   89.3660  -43.6380 C.3   162  LEU162      0.0019
    164  CD1       97.3850   89.1020  -43.1660 C.3   162  LEU162      0.0001
    165  CD2       99.0190   90.8450  -43.9450 C.3   162  LEU162      0.0001
@<TRIPOS>BOND
     1    73    74    1
     2    73    72    1
     3    74    68    1
     4    72    69    1
     5    71    70    2
     6    65    66    1
     7    65    62    1
     8    68    69    1
     9    68    63   am
    10    66    67    1
    11    69    70    1
    12    70    75   am
    13    62    63    1
    14    62    61    1
    15    63    64    2
    16    75    76    1
    17    67    61    1
    18    76    77    1
    19    61    56   am
    20    57    56    2
    21    56    55    1
    22    50    49    2
    23    77    78    2
    24    77    79   am
    25    79    80    1
    26    53    51    1
    27    51    52    1
    28    51    48    1
    29    84    83    1
    30    55    54    1
    31    55    58    1
    32    49    54   am
    33    49    48    1
    34    54    60    1
    35    48    47    1
    36    80    83    1
    37    80    81    1
    38    45    46    1
    39    45    42    1
    40    47    43   am
    41    83    85    1
    42    58    59    1
    43    43    42    1
    44    43    44    2
    45    60    59    1
    46    81    82    2
    47    42    41    1
    48   114   112   ar
    49   120   121    1
    50   120   119    1
    51   121   115    1
    52   113   112   ar
    53   103   102    2
    54   119   116    1
    55   112   111    1
    56    97    98    1
    57    97    94    1
    58    98    99    1
    59   104   105    1
    60   104   101    1
    61   115   116    1
    62   115   108   am
    63   102   101    1
    64   102   106   am
    65    94    95    1
    66    94    93    1
    67   100   101    1
    68   100    95   am
    69   116   117    1
    70   107   108    1
    71   107   106    1
    72   107   110    1
    73   111   110    1
    74    95    96    2
    75   165   163    1
    76    99    93    1
    77   108   109    2
    78   161   160    2
    79   163   164    1
    80   163   162    1
    81   160   159    1
    82    40    38    1
    83   117   118    2
    84   117   122   am
    85   125   124    2
    86    38    39    1
    87    38    35    1
    88   128   122    1
    89   128   127    1
    90   122   123    1
    91   162   159    1
    92   159   158    1
    93    86    87    1
    94    36    37    2
    95    36    35    1
    96   124   123    1
    97    35    34    1
    98   127   126    1
    99   123   126    1
   100     1     2    1
   101    87    88    1
   102    87    90    1
   103    92    90    1
   104     5     2    1
   105     5     6    1
   106    34    22   am
   107     2     3    1
   108    88    89    2
   109    90    91    1
   110     7     6   ar
   111     7     9   ar
   112     6     8   ar
   113   135   134   ar
   114    22    23    2
   115    22    21    1
   116     9    11   ar
   117   149   147    1
   118   148   147    1
   119   147   144    1
   120     8    10   ar
   121   132   131    2
   122     3     4    2
   123   130   131    1
   124   130   129    1
   125   130   133    1
   126   131   137   am
   127    11    10   ar
   128    18    17    1
   129   134   133    1
   130   134   136   ar
   131    21    20    1
   132    21    24    1
   133   143   144    1
   134   143   139   am
   135   137   138    1
   136   144   145    1
   137   139   140    2
   138   139   138    1
   139    16    17    1
   140    16    13    1
   141   138   141    1
   142    15    14    2
   143    20    14   am
   144    14    13    1
   145    17    19    1
   146   157   155    1
   147    24    25    1
   148    13    12    1
   149    30    32   ar
   150    30    27   ar
   151   145   146    2
   152   155   154    1
   153   141   142    1
   154    32    33   ar
   155    25    27   ar
   156    25    26   ar
   157    27    29   ar
   158   154   156    1
   159   154   151    1
   160    33    31   ar
   161    26    28   ar
   162   150   151    1
   163    29    31   ar
   164    29    28   ar
   165   151   152    1
   166   152   153    2
