@<TRIPOS>MOLECULE
tmp/5o1jA01.pdb
 93 87 0 0 0
SMALL
GASTEIGER

@<TRIPOS>ATOM
      1  N          2.0100  139.1240   12.2540 N.3   445  GLU445     -0.1245
      2  CA         1.8230  137.6600   12.1110 C.3   445  GLU445      0.1567
      3  C          2.2630  137.1930   10.7050 C.2   445  GLU445      0.2260
      4  O          2.9960  136.2470   10.5550 O.2   445  GLU445     -0.2867
      5  CB         0.3410  137.2620   12.3550 C.3   445  GLU445      0.0388
      6  CG        -0.1050  137.0830   13.8180 C.3   445  GLU445      0.1160
      7  CD         0.5410  135.8930   14.5580 C.2   445  GLU445      0.3649
      8  OE1        1.3830  135.1490   13.9960 O.co2 445  GLU445     -0.2457
      9  OE2        0.2370  135.7180   15.7710 O.co2 445  GLU445     -0.2457
     10  N          3.0780  128.9040    9.0500 N.3   454  SER454     -0.1202
     11  CA         4.2460  128.7650    9.9020 C.3   454  SER454      0.2020
     12  C          4.7490  127.3080    9.9550 C.2   454  SER454      0.2619
     13  O          4.0980  126.4100    9.4410 O.2   454  SER454     -0.2717
     14  CB         3.9450  129.2940   11.3000 C.3   454  SER454      0.2103
     15  OG         3.1770  128.3330   11.9900 O.3   454  SER454     -0.2182
     16  N          5.9040  127.0950   10.5870 N.am  455  ARG455     -0.1965
     17  CA         6.4640  125.7390   10.7860 C.3   455  ARG455      0.1729
     18  C          5.5020  124.6920   11.3800 C.2   455  ARG455      0.2616
     19  O          5.4820  123.5340   10.9540 O.2   455  ARG455     -0.2715
     20  CB         7.7740  125.7910   11.6200 C.3   455  ARG455      0.0348
     21  CG         8.9300  126.5770   10.9830 C.3   455  ARG455      0.0492
     22  CD         9.1160  126.2970    9.4900 C.3   455  ARG455      0.2205
     23  NE         8.9060  124.8850    9.1390 N.pl3 455  ARG455     -0.0865
     24  CZ         8.7230  124.4210    7.9010 C.cat 455  ARG455      0.5346
     25  NH1        8.7290  125.2420    6.8560 N.pl3 455  ARG455      0.1354
     26  NH2        8.5350  123.1240    7.7070 N.pl3 455  ARG455      0.1354
     27  N          4.6970  125.1210   12.3450 N.am  456  VAL456     -0.1977
     28  CA         3.8650  124.2480   13.1520 C.3   456  VAL456      0.1596
     29  C          2.4640  124.2040   12.5280 C.2   456  VAL456      0.2287
     30  O          1.5340  123.5460   13.0210 O.2   456  VAL456     -0.2864
     31  CB         3.8560  124.7960   14.6010 C.3   456  VAL456      0.0276
     32  CG1        2.7740  125.8520   14.8180 C.3   456  VAL456      0.0022
     33  CG2        3.7540  123.6930   15.6210 C.3   456  VAL456      0.0022
     34  N          0.4040  126.9940   11.6400 N.3   458  ALA458     -0.1245
     35  CA        -0.4420  128.2270   11.6780 C.3   458  ALA458      0.1562
     36  C         -0.6340  128.8150   10.2550 C.2   458  ALA458      0.2260
     37  O          0.3220  129.0070    9.5200 O.2   458  ALA458     -0.2867
     38  CB         0.1180  129.2950   12.6350 C.3   458  ALA458      0.0290
     39  N         -2.7230  133.7880   10.9270 N.3   463  GLN463     -0.1245
     40  CA        -1.9130  132.7020   11.4760 C.3   463  GLN463      0.1566
     41  C         -2.7020  131.9310   12.5260 C.2   463  GLN463      0.2260
     42  O         -2.2580  131.7850   13.6630 O.2   463  GLN463     -0.2867
     43  CB        -0.5850  133.2220   12.0460 C.3   463  GLN463      0.0367
     44  CG         0.3900  133.6810   10.9740 C.3   463  GLN463      0.0905
     45  CD         1.0010  132.4890   10.2220 C.2   463  GLN463      0.2608
     46  OE1        1.9700  131.8630   10.6780 O.2   463  GLN463     -0.2717
     47  NE2        0.4170  132.1590    9.0680 N.am  463  GLN463     -0.0878
     48  N         -4.2360  128.5700   14.1620 N.3   465  MET465     -0.1245
     49  CA        -3.8780  127.1710   14.2190 C.3   465  MET465      0.1570
     50  C         -5.0800  126.3310   13.7710 C.2   465  MET465      0.2261
     51  O         -6.2070  126.6790   14.0900 O.2   465  MET465     -0.2867
     52  CB        -3.4770  126.7800   15.6560 C.3   465  MET465      0.0387
     53  CG        -2.1390  127.3600   16.1350 C.3   465  MET465      0.0595
     54  SD        -0.7890  126.7040   15.0990 S.3   465  MET465     -0.1393
     55  CE        -0.6850  125.0140   15.7130 C.3   465  MET465      0.0692
     56  N         -2.9110  135.4230   22.2700 N.3   515  TYR515     -0.1227
     57  CA        -3.0470  135.0580   20.8460 C.3   515  TYR515      0.1736
     58  C         -1.8600  134.2200   20.4140 C.2   515  TYR515      0.2595
     59  O         -2.0220  133.1640   19.7660 O.2   515  TYR515     -0.2718
     60  CB        -3.1140  136.3100   19.9610 C.3   515  TYR515      0.0548
     61  CG        -3.6710  136.0300   18.5480 C.ar  515  TYR515     -0.0200
     62  CD1       -2.8630  135.5550   17.5120 C.ar  515  TYR515     -0.0009
     63  CD2       -5.0410  136.2100   18.2890 C.ar  515  TYR515     -0.0009
     64  CE1       -3.3970  135.3070   16.2430 C.ar  515  TYR515      0.0417
     65  CE2       -5.5850  135.9670   17.0600 C.ar  515  TYR515      0.0417
     66  CZ        -4.7800  135.5120   16.0420 C.ar  515  TYR515      0.1957
     67  OH        -5.4200  135.3160   14.8300 O.3   515  TYR515     -0.2866
     68  N         -0.6700  134.7370   20.7220 N.am  516  ASN516     -0.1960
     69  CA         0.5860  134.1850   20.2870 C.3   516  ASN516      0.1819
     70  C          1.0260  132.9310   21.0780 C.2   516  ASN516      0.2621
     71  O          1.5650  131.9980   20.5020 O.2   516  ASN516     -0.2715
     72  CB         1.6930  135.2430   20.3750 C.3   516  ASN516      0.1195
     73  CG         3.0890  134.6620   20.0720 C.2   516  ASN516      0.2630
     74  OD1        3.4510  134.4340   18.9060 O.2   516  ASN516     -0.2716
     75  ND2        3.8880  134.4550   21.1180 N.am  516  ASN516     -0.0877
     76  N          0.8240  132.9170   22.3860 N.am  517  ALA517     -0.1963
     77  CA         1.4030  131.8430   23.2360 C.3   517  ALA517      0.1728
     78  C          0.3500  130.9990   23.9490 C.2   517  ALA517      0.2616
     79  O          0.6900  130.0540   24.6560 O.2   517  ALA517     -0.2715
     80  CB         2.3520  132.4480   24.2680 C.3   517  ALA517      0.0334
     81  N         -0.9110  131.3850   23.8180 N.am  518  GLY518     -0.1955
     82  CA        -1.9820  130.6880   24.4930 C.3   518  GLY518      0.1869
     83  C         -2.4380  131.4830   25.7110 C.2   518  GLY518      0.2309
     84  O         -1.6100  132.0210   26.4710 O.2   518  GLY518     -0.2863
     85  N         10.1310  135.4080   21.8420 N.3   544  GLU544     -0.1245
     86  CA         9.3560  135.5740   20.6300 C.3   544  GLU544      0.1567
     87  C          8.1010  136.3570   20.9900 C.2   544  GLU544      0.2260
     88  O          7.7250  137.2860   20.2560 O.2   544  GLU544     -0.2867
     89  CB         8.9700  134.2010   19.9940 C.3   544  GLU544      0.0388
     90  CG         7.8660  134.2530   18.8910 C.3   544  GLU544      0.1160
     91  CD         6.6840  133.2240   19.0040 C.2   544  GLU544      0.3649
     92  OE1        6.5630  132.4580   19.9770 O.co2 544  GLU544     -0.2457
     93  OE2        5.8150  133.1750   18.1070 O.co2 544  GLU544     -0.2457
@<TRIPOS>BOND
     1    25    24    1
     2    26    24    1
     3    24    23    2
     4    10    11    1
     5    47    45   am
     6    23    22    1
     7    13    12    2
     8    22    21    1
     9    37    36    2
    10    11    12    1
    11    11    14    1
    12    12    16   am
    13    45    46    2
    14    45    44    1
    15    36    35    1
    16     4     3    2
    17    16    17    1
    18     3     2    1
    19    17    18    1
    20    17    20    1
    21    39    40    1
    22    19    18    2
    23    44    43    1
    24    21    20    1
    25    14    15    1
    26    18    27   am
    27    40    43    1
    28    40    41    1
    29    34    35    1
    30    35    38    1
    31     2     1    1
    32     2     5    1
    33    27    28    1
    34     5     6    1
    35    41    42    2
    36    29    30    2
    37    29    28    1
    38    28    31    1
    39    50    51    2
    40    50    49    1
    41     6     7    1
    42     8     7   ar
    43    48    49    1
    44    49    52    1
    45     7     9   ar
    46    31    32    1
    47    31    33    1
    48    67    66    1
    49    54    55    1
    50    54    53    1
    51    52    53    1
    52    66    64   ar
    53    66    65   ar
    54    64    62   ar
    55    65    63   ar
    56    62    61   ar
    57    93    91   ar
    58    63    61   ar
    59    61    60    1
    60    90    91    1
    61    90    89    1
    62    74    73    2
    63    91    92   ar
    64    59    58    2
    65    60    57    1
    66    89    86    1
    67    73    72    1
    68    73    75   am
    69    88    87    2
    70    69    72    1
    71    69    68    1
    72    69    70    1
    73    58    68   am
    74    58    57    1
    75    71    70    2
    76    86    87    1
    77    86    85    1
    78    57    56    1
    79    70    76   am
    80    76    77    1
    81    77    78    1
    82    77    80    1
    83    81    78   am
    84    81    82    1
    85    78    79    2
    86    82    83    1
    87    83    84    2
