@<TRIPOS>MOLECULE
tmp/5o1jA02.pdb
 90 88 0 0 0
SMALL
GASTEIGER

@<TRIPOS>ATOM
      1  N         -2.7230  133.7880   10.9270 N.3   463  GLN463     -0.1231
      2  CA        -1.9130  132.7020   11.4760 C.3   463  GLN463      0.1698
      3  C         -2.7020  131.9310   12.5260 C.2   463  GLN463      0.2592
      4  O         -2.2580  131.7850   13.6630 O.2   463  GLN463     -0.2718
      5  CB        -0.5850  133.2220   12.0460 C.3   463  GLN463      0.0381
      6  CG         0.3900  133.6810   10.9740 C.3   463  GLN463      0.0905
      7  CD         1.0010  132.4890   10.2220 C.2   463  GLN463      0.2608
      8  OE1        1.9700  131.8630   10.6780 O.2   463  GLN463     -0.2717
      9  NE2        0.4170  132.1590    9.0680 N.am  463  GLN463     -0.0878
     10  N         -3.8640  131.4030   12.1100 N.am  464  VAL464     -0.1966
     11  CA        -4.7330  130.6800   12.9970 C.3   464  VAL464      0.1727
     12  C         -4.3690  129.2080   12.9870 C.2   464  VAL464      0.2616
     13  O         -4.2190  128.6600   11.9230 O.2   464  VAL464     -0.2715
     14  CB        -6.2130  130.8780   12.5740 C.3   464  VAL464      0.0290
     15  CG1       -7.1860  130.0220   13.4200 C.3   464  VAL464      0.0023
     16  CG2       -6.5750  132.3560   12.6960 C.3   464  VAL464      0.0023
     17  N         -4.2360  128.5700   14.1620 N.am  465  MET465     -0.1977
     18  CA        -3.8780  127.1710   14.2190 C.3   465  MET465      0.1605
     19  C         -5.0800  126.3310   13.7710 C.2   465  MET465      0.2287
     20  O         -6.2070  126.6790   14.0900 O.2   465  MET465     -0.2864
     21  CB        -3.4770  126.7800   15.6560 C.3   465  MET465      0.0413
     22  CG        -2.1390  127.3600   16.1350 C.3   465  MET465      0.0598
     23  SD        -0.7890  126.7040   15.0990 S.3   465  MET465     -0.1393
     24  CE        -0.6850  125.0140   15.7130 C.3   465  MET465      0.0692
     25  N         -7.4410  125.4400   16.8050 N.3   468  THR468     -0.1218
     26  CA        -8.2280  126.6400   17.1420 C.3   468  THR468      0.1862
     27  C         -9.3450  126.9150   16.1360 C.2   468  THR468      0.2287
     28  O        -10.4970  127.1750   16.5070 O.2   468  THR468     -0.2866
     29  CB        -7.3040  127.8930   17.2450 C.3   468  THR468      0.1770
     30  OG1       -6.1900  127.5700   18.0840 O.3   468  THR468     -0.2211
     31  CG2       -8.0830  129.0830   17.8780 C.3   468  THR468      0.0375
     32  N        -11.2510  135.2060   17.3850 N.3   496  TYR496     -0.1241
     33  CA       -10.3790  134.7050   18.4500 C.3   496  TYR496      0.1605
     34  C         -9.7180  135.8640   19.2210 C.2   496  TYR496      0.2264
     35  O         -9.4890  135.7510   20.4280 O.2   496  TYR496     -0.2867
     36  CB        -9.3370  133.7580   17.8580 C.3   496  TYR496      0.0534
     37  CG        -8.5820  132.9210   18.8770 C.ar  496  TYR496     -0.0201
     38  CD1       -9.2460  132.0440   19.7110 C.ar  496  TYR496     -0.0009
     39  CD2       -7.2140  133.0520   19.0150 C.ar  496  TYR496     -0.0009
     40  CE1       -8.5690  131.3050   20.6730 C.ar  496  TYR496      0.0417
     41  CE2       -6.5070  132.3040   19.9280 C.ar  496  TYR496      0.0417
     42  CZ        -7.1860  131.4300   20.7450 C.ar  496  TYR496      0.1957
     43  OH        -6.5050  130.7030   21.6930 O.3   496  TYR496     -0.2866
     44  N         -2.9110  135.4230   22.2700 N.3   515  TYR515     -0.1227
     45  CA        -3.0470  135.0580   20.8460 C.3   515  TYR515      0.1736
     46  C         -1.8600  134.2200   20.4140 C.2   515  TYR515      0.2595
     47  O         -2.0220  133.1640   19.7660 O.2   515  TYR515     -0.2718
     48  CB        -3.1140  136.3100   19.9610 C.3   515  TYR515      0.0548
     49  CG        -3.6710  136.0300   18.5480 C.ar  515  TYR515     -0.0200
     50  CD1       -2.8630  135.5550   17.5120 C.ar  515  TYR515     -0.0009
     51  CD2       -5.0410  136.2100   18.2890 C.ar  515  TYR515     -0.0009
     52  CE1       -3.3970  135.3070   16.2430 C.ar  515  TYR515      0.0417
     53  CE2       -5.5850  135.9670   17.0600 C.ar  515  TYR515      0.0417
     54  CZ        -4.7800  135.5120   16.0420 C.ar  515  TYR515      0.1957
     55  OH        -5.4200  135.3160   14.8300 O.3   515  TYR515     -0.2866
     56  N         -0.6700  134.7370   20.7220 N.am  516  ASN516     -0.1960
     57  CA         0.5860  134.1850   20.2870 C.3   516  ASN516      0.1819
     58  C          1.0260  132.9310   21.0780 C.2   516  ASN516      0.2621
     59  O          1.5650  131.9980   20.5020 O.2   516  ASN516     -0.2715
     60  CB         1.6930  135.2430   20.3750 C.3   516  ASN516      0.1195
     61  CG         3.0890  134.6620   20.0720 C.2   516  ASN516      0.2630
     62  OD1        3.4510  134.4340   18.9060 O.2   516  ASN516     -0.2716
     63  ND2        3.8880  134.4550   21.1180 N.am  516  ASN516     -0.0877
     64  N          0.8240  132.9170   22.3860 N.am  517  ALA517     -0.1963
     65  CA         1.4030  131.8430   23.2360 C.3   517  ALA517      0.1728
     66  C          0.3500  130.9990   23.9490 C.2   517  ALA517      0.2617
     67  O          0.6900  130.0540   24.6560 O.2   517  ALA517     -0.2715
     68  CB         2.3520  132.4480   24.2680 C.3   517  ALA517      0.0334
     69  N         -0.9110  131.3850   23.8180 N.am  518  GLY518     -0.1941
     70  CA        -1.9820  130.6880   24.4930 C.3   518  GLY518      0.1998
     71  C         -2.4380  131.4830   25.7110 C.2   518  GLY518      0.2480
     72  O         -1.6100  132.0210   26.4710 O.2   518  GLY518     -0.2729
     73  N         -3.7630  131.5770   25.9090 N.am  519  PRO519     -0.2726
     74  CA        -4.2600  132.3360   27.0550 C.3   519  PRO519      0.1402
     75  C         -3.7510  131.7420   28.3910 C.2   519  PRO519      0.2269
     76  O         -3.5130  132.4920   29.3640 O.2   519  PRO519     -0.2865
     77  CB        -5.7690  132.2090   26.9160 C.3   519  PRO519      0.0296
     78  CG        -5.9680  132.1530   25.4260 C.3   519  PRO519      0.0237
     79  CD        -4.8510  131.2240   24.9740 C.3   519  PRO519      0.0939
     80  N         -0.7940  130.7200   28.9550 N.3   521  ARG521     -0.1245
     81  CA         0.5430  131.2690   29.2770 C.3   521  ARG521      0.1563
     82  C          0.4830  132.7140   29.6620 C.2   521  ARG521      0.2260
     83  O          1.1900  133.1450   30.5860 O.2   521  ARG521     -0.2867
     84  CB         1.5670  131.0300   28.1670 C.3   521  ARG521      0.0307
     85  CG         1.6850  129.5760   27.8340 C.3   521  ARG521      0.0489
     86  CD         3.1290  129.2240   27.5880 C.3   521  ARG521      0.2205
     87  NE         3.2320  127.8270   27.1710 N.pl3 521  ARG521     -0.0865
     88  CZ         3.0440  127.4060   25.9230 C.cat 521  ARG521      0.5346
     89  NH1        2.7370  128.2720   24.9530 N.pl3 521  ARG521      0.1354
     90  NH2        3.1670  126.1150   25.6530 N.pl3 521  ARG521      0.1354
@<TRIPOS>BOND
     1     9     7   am
     2     7     8    2
     3     7     6    1
     4     1     2    1
     5     6     5    1
     6     2     5    1
     7     2     3    1
     8    13    12    2
     9    10     3   am
    10    10    11    1
    11     3     4    2
    12    14    16    1
    13    14    11    1
    14    14    15    1
    15    12    11    1
    16    12    17   am
    17    19    20    2
    18    19    18    1
    19    17    18    1
    20    18    21    1
    21    55    54    1
    22    23    24    1
    23    23    22    1
    24    21    22    1
    25    54    52   ar
    26    54    53   ar
    27    27    28    2
    28    27    26    1
    29    52    50   ar
    30    25    26    1
    31    53    51   ar
    32    26    29    1
    33    29    31    1
    34    29    30    1
    35    32    33    1
    36    50    49   ar
    37    36    33    1
    38    36    37    1
    39    51    49   ar
    40    33    34    1
    41    49    48    1
    42    37    39   ar
    43    37    38   ar
    44    62    61    2
    45    39    41   ar
    46    34    35    2
    47    38    40   ar
    48    47    46    2
    49    41    42   ar
    50    48    45    1
    51    61    60    1
    52    61    63   am
    53    57    60    1
    54    57    56    1
    55    57    58    1
    56    46    56   am
    57    46    45    1
    58    59    58    2
    59    40    42   ar
    60    42    43    1
    61    45    44    1
    62    58    64   am
    63    64    65    1
    64    65    66    1
    65    65    68    1
    66    69    66   am
    67    69    70    1
    68    66    67    2
    69    70    71    1
    70    89    88    1
    71    79    78    1
    72    79    73    1
    73    78    77    1
    74    90    88    1
    75    71    73   am
    76    71    72    2
    77    73    74    1
    78    88    87    2
    79    77    74    1
    80    74    75    1
    81    87    86    1
    82    86    85    1
    83    85    84    1
    84    84    81    1
    85    75    76    2
    86    80    81    1
    87    81    82    1
    88    82    83    2
