@<TRIPOS>MOLECULE
tmp/5o1mB00.pdb
 234 222 0 0 0
SMALL
GASTEIGER

@<TRIPOS>ATOM
      1  N         43.7160   35.1810   43.2200 N.3   116  ARG116     -0.1231
      2  CA        44.3280   36.4120   42.6870 C.3   116  ARG116      0.1694
      3  C         43.3980   37.2370   41.8470 C.2   116  ARG116      0.2591
      4  O         43.4380   38.4610   41.9170 O.2   116  ARG116     -0.2718
      5  CB        45.5970   36.1120   41.9260 C.3   116  ARG116      0.0321
      6  CG        46.7110   35.8510   42.9510 C.3   116  ARG116      0.0489
      7  CD        47.8820   35.2590   42.2270 C.3   116  ARG116      0.2205
      8  NE        49.0860   35.1620   43.0130 N.pl3 116  ARG116     -0.0865
      9  CZ        50.2090   34.5690   42.6050 C.cat 116  ARG116      0.5346
     10  NH1       50.2610   34.0550   41.3630 N.pl3 116  ARG116      0.1354
     11  NH2       51.2900   34.5640   43.4030 N.pl3 116  ARG116      0.1354
     12  N         42.5720   36.5520   41.0670 N.am  117  GLU117     -0.1979
     13  CA        41.5810   37.2070   40.2450 C.3   117  GLU117      0.1602
     14  C         40.5390   37.8570   41.1690 C.2   117  GLU117      0.2287
     15  O         40.1620   38.9970   40.9990 O.2   117  GLU117     -0.2864
     16  CB        40.8820   36.2170   39.2970 C.3   117  GLU117      0.0415
     17  CG        41.7200   35.6830   38.1700 C.3   117  GLU117      0.1163
     18  CD        40.9600   34.7070   37.2090 C.2   117  GLU117      0.3649
     19  OE1       41.6430   33.7270   36.7380 O.co2 117  GLU117     -0.2457
     20  OE2       39.7340   34.8870   36.8580 O.co2 117  GLU117     -0.2457
     21  N         42.2890   40.9270   42.9880 N.3   120  ALA120     -0.1231
     22  CA        42.4810   42.0110   42.0090 C.3   120  ALA120      0.1694
     23  C         41.1520   42.6940   41.5750 C.2   120  ALA120      0.2591
     24  O         41.0520   43.8950   41.5340 O.2   120  ALA120     -0.2718
     25  CB        43.2190   41.4690   40.7680 C.3   120  ALA120      0.0304
     26  N         40.1440   41.8950   41.2790 N.am  121  VAL121     -0.1980
     27  CA        38.8690   42.4140   40.8380 C.3   121  VAL121      0.1595
     28  C         38.2080   43.1560   41.9770 C.2   121  VAL121      0.2287
     29  O         37.6340   44.2390   41.7700 O.2   121  VAL121     -0.2864
     30  CB        37.9250   41.2990   40.2980 C.3   121  VAL121      0.0276
     31  CG1       36.5100   41.8160   40.0850 C.3   121  VAL121      0.0022
     32  CG2       38.4440   40.7500   38.9700 C.3   121  VAL121      0.0022
     33  N         40.1910   46.3980   42.8260 N.3   124  SER124     -0.1217
     34  CA        40.5590   47.2900   41.7150 C.3   124  SER124      0.1889
     35  C         39.7600   48.6000   41.8490 C.2   124  SER124      0.2288
     36  O         38.5860   48.5820   42.1870 O.2   124  SER124     -0.2866
     37  CB        40.3040   46.6000   40.3950 C.3   124  SER124      0.2089
     38  OG        40.6220   47.4220   39.3190 O.3   124  SER124     -0.2183
     39  N         37.9250   51.6060   37.6410 N.3   127  GLY127     -0.1210
     40  CA        37.6500   50.9320   36.3980 C.3   127  GLY127      0.1956
     41  C         36.1510   50.8530   36.2120 C.2   127  GLY127      0.2611
     42  O         35.4080   51.7580   36.5780 O.2   127  GLY127     -0.2717
     43  N         35.7350   49.7190   35.6940 N.am  128  ALA128     -0.1979
     44  CA        34.3670   49.3910   35.4440 C.3   128  ALA128      0.1597
     45  C         33.6340   49.2410   36.7510 C.2   128  ALA128      0.2287
     46  O         34.2530   48.9550   37.7790 O.2   128  ALA128     -0.2864
     47  CB        34.3160   48.0550   34.6540 C.3   128  ALA128      0.0319
     48  N         29.8080   45.1440   35.9630 N.3   132  ASP132     -0.1225
     49  CA        30.5390   44.8250   34.7260 C.3   132  ASP132      0.1805
     50  C         31.8430   44.0650   35.0080 C.2   132  ASP132      0.2597
     51  O         32.1150   43.0680   34.3380 O.2   132  ASP132     -0.2718
     52  CB        30.7900   46.0890   33.8810 C.3   132  ASP132      0.1424
     53  CG        29.4750   46.7800   33.4490 C.2   132  ASP132      0.3668
     54  OD1       28.6120   46.0920   32.8710 O.co2 132  ASP132     -0.2456
     55  OD2       29.2920   48.0020   33.6840 O.co2 132  ASP132     -0.2456
     56  N         32.6370   44.4860   35.9950 N.am  133  ARG133     -0.1979
     57  CA        33.9110   43.7800   36.3420 C.3   133  ARG133      0.1597
     58  C         33.7560   42.2440   36.5080 C.2   133  ARG133      0.2287
     59  O         34.6430   41.4440   36.1230 O.2   133  ARG133     -0.2864
     60  CB        34.4830   44.2690   37.6670 C.3   133  ARG133      0.0334
     61  CG        35.0230   45.6610   37.7630 C.3   133  ARG133      0.0492
     62  CD        36.1960   45.7230   38.7560 C.3   133  ARG133      0.2205
     63  NE        35.9080   45.6330   40.1750 N.pl3 133  ARG133     -0.0865
     64  CZ        35.4380   46.6000   40.9710 C.cat 133  ARG133      0.5346
     65  NH1       35.0090   47.7500   40.4860 N.pl3 133  ARG133      0.1354
     66  NH2       35.3030   46.3350   42.2650 N.pl3 133  ARG133      0.1354
     67  N         33.4730   40.1050   33.2670 N.3   136  LYS136     -0.1231
     68  CA        34.3900   40.5430   32.2140 C.3   136  LYS136      0.1693
     69  C         35.0230   39.3630   31.3880 C.2   136  LYS136      0.2592
     70  O         35.2530   39.5200   30.1990 O.2   136  LYS136     -0.2718
     71  CB        35.5120   41.4140   32.7690 C.3   136  LYS136      0.0285
     72  CG        36.5760   40.6110   33.4980 C.3   136  LYS136      0.0035
     73  CD        37.4790   41.4380   34.3580 C.3   136  LYS136      0.0206
     74  CE        38.2750   40.5280   35.3080 C.3   136  LYS136      0.1093
     75  NZ        39.3930   39.9050   34.5820 N.3   136  LYS136     -0.1314
     76  N         35.3370   38.2480   32.0410 N.am  137  THR137     -0.1953
     77  CA        35.9640   37.1050   31.3540 C.3   137  THR137      0.1897
     78  C         34.9750   36.3660   30.4930 C.2   137  THR137      0.2313
     79  O         35.3010   35.9330   29.3820 O.2   137  THR137     -0.2863
     80  CB        36.7790   36.1900   32.3100 C.3   137  THR137      0.1794
     81  OG1       35.9540   35.5310   33.2560 O.3   137  THR137     -0.2208
     82  CG2       37.8320   37.0130   33.0870 C.3   137  THR137      0.0378
     83  N         34.2030   38.6300   27.5270 N.3   140  LEU140     -0.1245
     84  CA        35.3060   38.4810   26.5920 C.3   140  LEU140      0.1561
     85  C         35.3990   37.0270   25.9530 C.2   140  LEU140      0.2260
     86  O         35.5760   36.9200   24.7340 O.2   140  LEU140     -0.2867
     87  CB        36.6480   38.9210   27.1900 C.3   140  LEU140      0.0270
     88  CG        37.7000   39.1470   26.0890 C.3   140  LEU140      0.0019
     89  CD1       38.6280   40.3310   26.3340 C.3   140  LEU140      0.0001
     90  CD2       38.5470   37.9110   25.8460 C.3   140  LEU140      0.0001
     91  N         42.1310   45.5290   26.4360 N.3   163  THR163     -0.1218
     92  CA        42.1520   44.7310   27.6620 C.3   163  THR163      0.1862
     93  C         43.6210   44.6260   28.1590 C.2   163  THR163      0.2287
     94  O         43.8990   44.7030   29.3490 O.2   163  THR163     -0.2866
     95  CB        41.6040   43.3170   27.4010 C.3   163  THR163      0.1770
     96  OG1       40.2320   43.3980   26.9930 O.3   163  THR163     -0.2211
     97  CG2       41.7390   42.4470   28.6390 C.3   163  THR163      0.0375
     98  N         44.4230   47.7370   29.9110 N.3   166  VAL166     -0.1231
     99  CA        43.8000   47.7620   31.2340 C.3   166  VAL166      0.1692
    100  C         44.6230   46.9270   32.2780 C.2   166  VAL166      0.2592
    101  O         44.8780   47.3880   33.4150 O.2   166  VAL166     -0.2718
    102  CB        42.3730   47.2540   31.1450 C.3   166  VAL166      0.0266
    103  CG1       41.7460   47.0620   32.5530 C.3   166  VAL166      0.0020
    104  CG2       41.5100   48.2490   30.3530 C.3   166  VAL166      0.0020
    105  N         45.1020   45.7390   31.8700 N.am  167  HIS167     -0.1976
    106  CA        45.9070   44.9170   32.7580 C.3   167  HIS167      0.1656
    107  C         47.2290   45.6110   33.0800 C.2   167  HIS167      0.2291
    108  O         47.6450   45.5970   34.2080 O.2   167  HIS167     -0.2864
    109  CB        46.1840   43.5510   32.1410 C.3   167  HIS167      0.0771
    110  CG        44.9840   42.6610   32.0940 C.ar  167  HIS167      0.0820
    111  ND1       44.8760   41.6110   31.2250 N.ar  167  HIS167     -0.2267
    112  CD2       43.8620   42.6360   32.8620 C.ar  167  HIS167      0.1154
    113  CE1       43.7290   40.9800   31.4530 C.ar  167  HIS167      0.1986
    114  NE2       43.0860   41.5990   32.4320 N.ar  167  HIS167     -0.2212
    115  N         46.4940   48.3040   35.6680 N.3   170  VAL170     -0.1245
    116  CA        46.2360   47.7280   36.9700 C.3   170  VAL170      0.1561
    117  C         47.5470   47.2980   37.6710 C.2   170  VAL170      0.2260
    118  O         47.6520   47.3730   38.8840 O.2   170  VAL170     -0.2867
    119  CB        45.2380   46.5010   36.8820 C.3   170  VAL170      0.0252
    120  CG1       45.0230   45.8210   38.2350 C.3   170  VAL170      0.0019
    121  CG2       43.8670   46.9260   36.3730 C.3   170  VAL170      0.0019
    122  N         50.8570   42.5650   40.3090 N.3   190  PRO190     -0.2102
    123  CA        49.7700   41.6410   39.9630 C.3   190  PRO190      0.1504
    124  C         49.7430   41.2860   38.4650 C.2   190  PRO190      0.2575
    125  O         50.4270   41.8620   37.6400 O.2   190  PRO190     -0.2718
    126  CB        48.5400   42.4760   40.2780 C.3   190  PRO190      0.0282
    127  CG        48.9580   43.8610   39.8410 C.3   190  PRO190      0.0208
    128  CD        50.3940   43.9750   40.2920 C.3   190  PRO190      0.0893
    129  N         48.9150   40.3230   38.1670 N.am  191  ILE191     -0.1980
    130  CA        48.6050   39.8130   36.8500 C.3   191  ILE191      0.1595
    131  C         49.8530   39.3680   36.0880 C.2   191  ILE191      0.2287
    132  O         50.1820   39.9110   35.0030 O.2   191  ILE191     -0.2864
    133  CB        47.7740   40.8010   35.9790 C.3   191  ILE191      0.0276
    134  CG1       46.7120   41.4860   36.8320 C.3   191  ILE191      0.0022
    135  CG2       47.0940   40.0620   34.8580 C.3   191  ILE191      0.0022
    136  CD1       45.9460   42.5100   36.0290 C.3   191  ILE191      0.0001
    137  N         49.3490   34.0120   35.7420 N.3   195  ASP195     -0.1225
    138  CA        47.9930   34.3170   36.2140 C.3   195  ASP195      0.1805
    139  C         47.0310   34.3750   35.0720 C.2   195  ASP195      0.2597
    140  O         45.9730   33.7740   35.1500 O.2   195  ASP195     -0.2718
    141  CB        47.8860   35.6540   36.9870 C.3   195  ASP195      0.1424
    142  CG        48.6350   35.6570   38.3350 C.2   195  ASP195      0.3668
    143  OD1       48.6370   34.6700   39.1110 O.co2 195  ASP195     -0.2456
    144  OD2       49.2430   36.7140   38.6390 O.co2 195  ASP195     -0.2456
    145  N         47.4040   35.0440   34.0100 N.am  196  ILE196     -0.1980
    146  CA        46.5970   35.1080   32.8100 C.3   196  ILE196      0.1595
    147  C         46.2910   33.6950   32.2390 C.2   196  ILE196      0.2287
    148  O         45.1570   33.4130   31.8130 O.2   196  ILE196     -0.2864
    149  CB        47.2990   36.0050   31.7040 C.3   196  ILE196      0.0276
    150  CG1       47.3240   37.4580   32.2400 C.3   196  ILE196      0.0022
    151  CG2       46.5450   35.9960   30.3740 C.3   196  ILE196      0.0022
    152  CD1       48.0410   38.3960   31.3250 C.3   196  ILE196      0.0001
    153  N         43.5650   31.9320   34.0920 N.3   199  THR199     -0.1203
    154  CA        42.2190   32.3660   33.6320 C.3   199  THR199      0.1994
    155  C         41.8490   31.7180   32.2980 C.2   199  THR199      0.2617
    156  O         40.7220   31.3080   32.0740 O.2   199  THR199     -0.2717
    157  CB        42.1550   33.9050   33.5130 C.3   199  THR199      0.1784
    158  OG1       42.5790   34.4820   34.7580 O.3   199  THR199     -0.2211
    159  CG2       40.7270   34.4430   33.1400 C.3   199  THR199      0.0376
    160  N         42.8150   31.6570   31.4040 N.am  200  TRP200     -0.1975
    161  CA        42.6840   30.9990   30.1580 C.3   200  TRP200      0.1640
    162  C         42.2460   29.5370   30.3140 C.2   200  TRP200      0.2290
    163  O         41.3770   29.0970   29.5670 O.2   200  TRP200     -0.2864
    164  CB        44.0370   31.0800   29.3800 C.3   200  TRP200      0.0576
    165  CG        43.9930   30.7610   27.9490 C.ar  200  TRP200      0.0006
    166  CD1       43.8780   31.6680   26.9270 C.ar  200  TRP200      0.0946
    167  CD2       44.0840   29.4660   27.3270 C.ar  200  TRP200      0.0152
    168  NE1       43.8560   31.0120   25.7190 N.ar  200  TRP200     -0.2442
    169  CE2       44.0220   29.6750   25.9200 C.ar  200  TRP200      0.0810
    170  CE3       44.1550   28.1490   27.8090 C.ar  200  TRP200      0.0012
    171  CZ2       44.1530   28.6450   25.0030 C.ar  200  TRP200      0.0191
    172  CZ3       44.2680   27.1080   26.8780 C.ar  200  TRP200      0.0001
    173  CH2       44.2580   27.3500   25.5080 C.ar  200  TRP200      0.0015
    174  N         38.6850   29.2960   31.1410 N.3   203  LEU203     -0.1245
    175  CA        37.8620   29.5690   29.9740 C.3   203  LEU203      0.1561
    176  C         37.9900   28.4080   28.9300 C.2   203  LEU203      0.2260
    177  O         37.2130   27.4760   28.9890 O.2   203  LEU203     -0.2867
    178  CB        38.2190   30.8850   29.3470 C.3   203  LEU203      0.0270
    179  CG        37.8610   32.0920   30.2150 C.3   203  LEU203      0.0019
    180  CD1       38.6310   33.3150   29.8470 C.3   203  LEU203      0.0001
    181  CD2       36.3670   32.4820   30.2390 C.3   203  LEU203      0.0001
    182  N         41.4890   30.4940   20.4530 N.3   230  TRP230     -0.1241
    183  CA        41.9880   30.7960   21.7870 C.3   230  TRP230      0.1605
    184  C         43.5010   31.0780   21.8970 C.2   230  TRP230      0.2264
    185  O         43.9080   31.8690   22.7890 O.2   230  TRP230     -0.2867
    186  CB        41.5220   29.7450   22.8320 C.3   230  TRP230      0.0550
    187  CG        40.1030   30.0790   23.2330 C.ar  230  TRP230      0.0003
    188  CD1       38.9660   29.6880   22.6120 C.ar  230  TRP230      0.0946
    189  CD2       39.6880   31.0000   24.2630 C.ar  230  TRP230      0.0152
    190  NE1       37.8760   30.2770   23.2220 N.ar  230  TRP230     -0.2442
    191  CE2       38.3140   31.0570   24.2520 C.ar  230  TRP230      0.0810
    192  CE3       40.3580   31.7940   25.1840 C.ar  230  TRP230      0.0012
    193  CZ2       37.6160   31.8690   25.1220 C.ar  230  TRP230      0.0191
    194  CZ3       39.6270   32.5570   26.0590 C.ar  230  TRP230      0.0001
    195  CH2       38.3120   32.5970   26.0050 C.ar  230  TRP230      0.0015
    196  N         46.0900   39.1640   23.7090 N.3   237  LEU237     -0.1245
    197  CA        46.0850   39.6470   25.0820 C.3   237  LEU237      0.1561
    198  C         47.4440   39.9660   25.7040 C.2   237  LEU237      0.2260
    199  O         47.4520   40.6070   26.7410 O.2   237  LEU237     -0.2867
    200  CB        45.3100   38.7040   26.0440 C.3   237  LEU237      0.0270
    201  CG        43.8100   38.6170   25.7620 C.3   237  LEU237      0.0019
    202  CD1       43.0770   37.3970   26.3570 C.3   237  LEU237      0.0001
    203  CD2       43.1360   39.9230   26.1810 C.3   237  LEU237      0.0001
    204  N         29.8810   47.7210   27.8340 N.3   365  ILE365     -0.1245
    205  CA        30.6020   48.9950   28.0260 C.3   365  ILE365      0.1561
    206  C         31.9440   49.0170   27.2640 C.2   365  ILE365      0.2260
    207  O         32.5470   47.9510   26.8960 O.2   365  ILE365     -0.2867
    208  CB        30.8110   49.4320   29.5180 C.3   365  ILE365      0.0252
    209  CG1       31.7230   48.4390   30.3140 C.3   365  ILE365      0.0019
    210  CG2       29.4400   49.7270   30.1420 C.3   365  ILE365      0.0019
    211  CD1       32.7560   49.0800   31.2430 C.3   365  ILE365      0.0001
    212  N         35.7590   49.4440   26.8340 N.3   367  ILE367     -0.1231
    213  CA        36.8710   49.0310   27.6970 C.3   367  ILE367      0.1692
    214  C         37.7820   50.2590   27.8970 C.2   367  ILE367      0.2592
    215  O         38.3850   50.7490   26.9480 O.2   367  ILE367     -0.2718
    216  CB        37.5780   47.8260   27.0690 C.3   367  ILE367      0.0266
    217  CG1       36.5910   46.6730   27.0270 C.3   367  ILE367      0.0019
    218  CG2       38.8150   47.4780   27.8730 C.3   367  ILE367      0.0020
    219  CD1       37.0310   45.4670   26.2220 C.3   367  ILE367      0.0001
    220  N         37.8150   50.7670   29.1280 N.am  368  ASP368     -0.1974
    221  CA        38.4140   52.0490   29.4760 C.3   368  ASP368      0.1709
    222  C         39.6590   51.8220   30.3340 C.2   368  ASP368      0.2293
    223  O         39.6500   50.9500   31.1790 O.2   368  ASP368     -0.2864
    224  CB        37.4150   52.9000   30.2980 C.3   368  ASP368      0.1436
    225  CG        36.3900   53.6670   29.4200 C.2   368  ASP368      0.3671
    226  OD1       36.6950   54.1030   28.2800 O.co2 368  ASP368     -0.2456
    227  OD2       35.2250   53.8690   29.8710 O.co2 368  ASP368     -0.2456
    228  N         41.5900   52.4030   33.5370 N.2   370  PRO370     -0.2584
    229  CA        41.1340   52.9140   34.8630 C.3   370  PRO370      0.1895
    230  C         41.8550   54.2120   35.3150 C.2   370  PRO370      0.2359
    231  O         43.0180   54.3970   34.9660 O.2   370  PRO370     -0.2858
    232  CB        41.3950   51.7350   35.8440 C.2   370  PRO370      0.0071
    233  CG        42.1450   50.7200   35.0630 C.2   370  PRO370      0.0180
    234  CD        42.1490   51.0440   33.6090 C.2   370  PRO370      0.0937
@<TRIPOS>BOND
     1   182   183    1
     2   183   184    1
     3   183   186    1
     4   184   185    2
     5   188   190   ar
     6   188   187   ar
     7   186   187    1
     8   190   191   ar
     9   187   189   ar
    10   196   197    1
    11   191   189   ar
    12   191   193   ar
    13   189   192   ar
    14    86    85    2
    15   171   173   ar
    16   171   169   ar
    17   197   198    1
    18   197   200    1
    19   193   195   ar
    20   192   194   ar
    21   173   172   ar
    22   198   199    2
    23   168   169   ar
    24   168   166   ar
    25   201   200    1
    26   201   203    1
    27   201   202    1
    28    90    88    1
    29   169   167   ar
    30    85    84    1
    31   195   194   ar
    32    88    89    1
    33    88    87    1
    34   219   217    1
    35    91    92    1
    36    84    87    1
    37    84    83    1
    38   212   213    1
    39   172   170   ar
    40   207   206    2
    41   166   165   ar
    42   215   214    2
    43    96    95    1
    44   217   216    1
    45   216   213    1
    46   216   218    1
    47   206   205    1
    48   167   170   ar
    49   167   165   ar
    50    95    92    1
    51    95    97    1
    52    92    93    1
    53   213   214    1
    54   204   205    1
    55   214   220   am
    56   165   164    1
    57   205   208    1
    58    93    94    2
    59   226   225   ar
    60   176   177    2
    61   176   175    1
    62   220   221    1
    63   178   175    1
    64   178   179    1
    65   164   161    1
    66    79    78    2
    67   225   227   ar
    68   225   224    1
    69   221   224    1
    70   221   222    1
    71   208   210    1
    72   208   209    1
    73   163   162    2
    74   180   179    1
    75    98    99    1
    76   175   174    1
    77   161   162    1
    78   161   160    1
    79    70    69    2
    80   179   181    1
    81   209   211    1
    82   222   223    2
    83   104   102    1
    84   151   149    1
    85    78    77    1
    86   102    99    1
    87   102   103    1
    88   111   113   ar
    89   111   110   ar
    90    99   100    1
    91   152   150    1
    92    77    76    1
    93    77    80    1
    94    69    76   am
    95    69    68    1
    96   160   155   am
    97   113   114   ar
    98   149   150    1
    99   149   146    1
   100   148   147    2
   101   105   100   am
   102   105   106    1
   103   156   155    2
   104   110   109    1
   105   110   112   ar
   106   109   106    1
   107    68    71    1
   108    68    67    1
   109   147   146    1
   110   100   101    2
   111   155   154    1
   112    80    82    1
   113    80    81    1
   114   114   112   ar
   115   106   107    1
   116    71    72    1
   117   146   145    1
   118    54    53   ar
   119   107   108    2
   120   159   157    1
   121    53    55   ar
   122    53    52    1
   123    72    73    1
   124   157   154    1
   125   157   158    1
   126   228   234    2
   127   228   229    1
   128   234   233    1
   129   154   153    1
   130    52    49    1
   131   145   139   am
   132    51    50    2
   133    73    74    1
   134    75    74    1
   135    47    44    1
   136    49    50    1
   137    49    48    1
   138   135   133    1
   139   229   230    1
   140   229   232    1
   141   231   230    2
   142   132   131    2
   143    50    56   am
   144   233   232    2
   145   139   140    2
   146   139   138    1
   147    44    43    1
   148    44    45    1
   149   115   116    1
   150    43    41   am
   151   137   138    1
   152   133   134    1
   153   133   130    1
   154    56    57    1
   155   136   134    1
   156   131   130    1
   157    59    58    2
   158    41    40    1
   159    41    42    2
   160   138   141    1
   161    57    58    1
   162    57    60    1
   163   121   119    1
   164    40    39    1
   165    19    18   ar
   166    45    46    2
   167   130   129    1
   168    20    18   ar
   169   119   116    1
   170   119   120    1
   171   116   117    1
   172   141   142    1
   173    18    17    1
   174   125   124    2
   175    60    61    1
   176   117   118    2
   177    61    62    1
   178   129   124   am
   179    17    16    1
   180   142   144   ar
   181   142   143   ar
   182   124   123    1
   183    62    63    1
   184    32    30    1
   185    16    13    1
   186    38    37    1
   187   127   126    1
   188   127   128    1
   189   123   126    1
   190   123   122    1
   191    31    30    1
   192    63    64    2
   193    13    12    1
   194    13    14    1
   195   128   122    1
   196    30    27    1
   197    37    34    1
   198    65    64    1
   199    25    22    1
   200    27    26    1
   201    27    28    1
   202    64    66    1
   203    15    14    2
   204    12     3   am
   205    26    23   am
   206    10     9    1
   207    24    23    2
   208    23    22    1
   209    34    35    1
   210    34    33    1
   211    29    28    2
   212     3     4    2
   213     3     2    1
   214    35    36    2
   215     5     2    1
   216     5     6    1
   217    22    21    1
   218     7     6    1
   219     7     8    1
   220     9     8    2
   221     9    11    1
   222     2     1    1
