@<TRIPOS>MOLECULE
tmp/5o1nA01.pdb
 83 80 0 0 0
SMALL
GASTEIGER

@<TRIPOS>ATOM
      1  N          3.4610   82.7880  165.8180 N.3    11  ILE11      -0.1245
      2  CA         4.2290   81.7270  165.1470 C.3    11  ILE11       0.1561
      3  C          3.4220   80.4210  165.0920 C.2    11  ILE11       0.2260
      4  O          3.5530   79.6490  164.1380 O.2    11  ILE11      -0.2867
      5  CB         5.5970   81.4750  165.8400 C.3    11  ILE11       0.0252
      6  CG1        6.4590   82.7490  165.8230 C.3    11  ILE11       0.0019
      7  CG2        6.3570   80.3320  165.1650 C.3    11  ILE11       0.0019
      8  CD1        7.6310   82.7210  166.7850 C.3    11  ILE11       0.0001
      9  N         12.1340   75.9840  166.7340 N.3    96  ALA96      -0.1231
     10  CA        12.1670   77.1410  165.8380 C.3    96  ALA96       0.1694
     11  C         13.4850   77.9100  165.9550 C.2    96  ALA96       0.2592
     12  O         14.1850   78.1200  164.9660 O.2    96  ALA96      -0.2718
     13  CB        10.9900   78.0640  166.1210 C.3    96  ALA96       0.0304
     14  N         13.8290   78.3110  167.1760 N.am   97  SER97      -0.1952
     15  CA        14.9950   79.1730  167.4240 C.3    97  SER97       0.1924
     16  C         16.3360   78.4000  167.4080 C.2    97  SER97       0.2314
     17  O         16.3820   77.2510  166.9660 O.2    97  SER97      -0.2863
     18  CB        14.7640   79.9890  168.7140 C.3    97  SER97       0.2116
     19  OG        13.8310   79.3590  169.5740 O.3    97  SER97      -0.2180
     20  N         15.1710   76.0790  162.7540 N.3   121  LEU121     -0.1231
     21  CA        14.1360   76.0700  161.7000 C.3   121  LEU121      0.1693
     22  C         13.3130   77.3580  161.7060 C.2   121  LEU121      0.2593
     23  O         12.8880   77.8140  162.7570 O.2   121  LEU121     -0.2718
     24  CB        13.1940   74.8750  161.8820 C.3   121  LEU121      0.0284
     25  CG        13.7190   73.4920  161.4900 C.3   121  LEU121      0.0019
     26  CD1       12.8890   72.3960  162.1490 C.3   121  LEU121      0.0001
     27  CD2       13.7320   73.3290  159.9760 C.3   121  LEU121      0.0001
     28  N         13.0630   77.9180  160.5270 N.am  122  GLY122     -0.1942
     29  CA        12.3260   79.1790  160.3940 C.3   122  GLY122      0.2014
     30  C         12.9520   80.0740  159.3450 C.2   122  GLY122      0.2639
     31  O         13.4990   79.5840  158.3610 O.2   122  GLY122     -0.2714
     32  N         12.8510   81.3850  159.5450 N.am  123  LEU123     -0.1963
     33  CA        13.4370   82.3700  158.6310 C.3   123  LEU123      0.1728
     34  C         14.9490   82.4920  158.8340 C.2   123  LEU123      0.2616
     35  O         15.7310   82.1510  157.9430 O.2   123  LEU123     -0.2715
     36  CB        12.7540   83.7380  158.8050 C.3   123  LEU123      0.0311
     37  CG        13.3130   84.9520  158.0490 C.3   123  LEU123      0.0022
     38  CD1       13.3530   84.7240  156.5440 C.3   123  LEU123      0.0001
     39  CD2       12.4870   86.1840  158.3800 C.3   123  LEU123      0.0001
     40  N         15.3420   82.9790  160.0100 N.am  124  ASP124     -0.1958
     41  CA        16.7330   83.3100  160.3150 C.3   124  ASP124      0.1825
     42  C         16.9840   83.1960  161.8370 C.2   124  ASP124      0.2464
     43  O         16.7360   84.1590  162.5670 O.2   124  ASP124     -0.2730
     44  CB        17.0230   84.7330  159.8120 C.3   124  ASP124      0.1450
     45  CG        18.5050   85.0510  159.7460 C.2   124  ASP124      0.3671
     46  OD1       19.3020   84.4670  160.5120 O.co2 124  ASP124     -0.2456
     47  OD2       18.8840   85.8930  158.9080 O.co2 124  ASP124     -0.2456
     48  N         17.4790   82.0550  162.3350 N.am  125  PRO125     -0.2727
     49  CA        17.9750   80.9200  161.5470 C.3   125  PRO125      0.1402
     50  C         16.8850   80.0450  160.9170 C.2   125  PRO125      0.2269
     51  O         15.7450   80.0210  161.3970 O.2   125  PRO125     -0.2865
     52  CB        18.7400   80.1080  162.5900 C.3   125  PRO125      0.0296
     53  CG        17.9550   80.3190  163.8390 C.3   125  PRO125      0.0237
     54  CD        17.4240   81.7300  163.7720 C.3   125  PRO125      0.0939
     55  N          7.0330   91.9210  167.4740 N.3   172  TRP172     -0.1241
     56  CA         7.1920   91.5610  168.8900 C.3   172  TRP172      0.1605
     57  C          8.1030   92.5830  169.5970 C.2   172  TRP172      0.2264
     58  O          8.5070   93.5770  168.9860 O.2   172  TRP172     -0.2867
     59  CB         7.7120   90.1160  169.0210 C.3   172  TRP172      0.0550
     60  CG         9.0330   89.8410  168.3520 C.ar  172  TRP172      0.0003
     61  CD1       10.2740   90.1450  168.8310 C.ar  172  TRP172      0.0946
     62  CD2        9.2390   89.1840  167.0940 C.ar  172  TRP172      0.0152
     63  NE1       11.2410   89.7310  167.9460 N.ar  172  TRP172     -0.2442
     64  CE2       10.6350   89.1330  166.8730 C.ar  172  TRP172      0.0810
     65  CE3        8.3820   88.6340  166.1310 C.ar  172  TRP172      0.0012
     66  CZ2       11.1940   88.5600  165.7250 C.ar  172  TRP172      0.0191
     67  CZ3        8.9400   88.0600  164.9880 C.ar  172  TRP172      0.0001
     68  CH2       10.3340   88.0300  164.7980 C.ar  172  TRP172      0.0015
     69  N          6.3780   87.3880  157.9690 N.3   386  MET386     -0.1245
     70  CA         7.1630   86.9340  159.1170 C.3   386  MET386      0.1570
     71  C          6.6400   85.6030  159.6600 C.2   386  MET386      0.2261
     72  O          7.4210   84.6810  159.8980 O.2   386  MET386     -0.2867
     73  CB         7.1370   87.9960  160.2240 C.3   386  MET386      0.0387
     74  CG         7.9610   87.6640  161.4610 C.3   386  MET386      0.0595
     75  SD         9.7250   87.5860  161.1150 S.3   386  MET386     -0.1393
     76  CE        10.1160   89.3310  161.1640 C.3   386  MET386      0.0692
     77  N          8.7870   82.1160  159.3240 N.3   390  VAL390     -0.1245
     78  CA         9.1920   81.5220  160.6070 C.3   390  VAL390      0.1561
     79  C          8.4290   80.2190  160.8840 C.2   390  VAL390      0.2260
     80  O          9.0230   79.2290  161.3200 O.2   390  VAL390     -0.2867
     81  CB         8.9980   82.5180  161.7810 C.3   390  VAL390      0.0252
     82  CG1        9.2640   81.8550  163.1310 C.3   390  VAL390      0.0019
     83  CG2        9.9070   83.7300  161.6100 C.3   390  VAL390      0.0019
@<TRIPOS>BOND
     1    38    37    1
     2    35    34    2
     3    69    70    1
     4    37    39    1
     5    37    36    1
     6    31    30    2
     7    33    36    1
     8    33    34    1
     9    33    32    1
    10    34    40   am
    11    47    45   ar
    12    70    71    1
    13    70    73    1
    14    77    78    1
    15    30    32   am
    16    30    29    1
    17    71    72    2
    18    45    44    1
    19    45    46   ar
    20    44    41    1
    21    27    25    1
    22    40    41    1
    23    73    74    1
    24    41    42    1
    25    29    28    1
    26    28    22   am
    27    78    79    1
    28    78    81    1
    29    79    80    2
    30    50    51    2
    31    50    49    1
    32    75    76    1
    33    75    74    1
    34    25    24    1
    35    25    26    1
    36    49    48    1
    37    49    52    1
    38    83    81    1
    39    21    22    1
    40    21    24    1
    41    21    20    1
    42    22    23    2
    43    81    82    1
    44    42    48   am
    45    42    43    2
    46    48    54    1
    47    52    53    1
    48    54    53    1
    49     4     3    2
    50    68    67   ar
    51    68    66   ar
    52    12    11    2
    53    67    65   ar
    54     3     2    1
    55     2     1    1
    56     2     5    1
    57     7     5    1
    58    66    64   ar
    59     6     5    1
    60     6     8    1
    61    10    11    1
    62    10    13    1
    63    10     9    1
    64    11    14   am
    65    65    62   ar
    66    64    62   ar
    67    64    63   ar
    68    17    16    2
    69    62    60   ar
    70    14    15    1
    71    16    15    1
    72    15    18    1
    73    55    56    1
    74    63    61   ar
    75    60    61   ar
    76    60    59    1
    77    18    19    1
    78    56    59    1
    79    56    57    1
    80    58    57    2
