@<TRIPOS>MOLECULE
tmp/5o1nA00.pdb
 121 114 0 0 0
SMALL
GASTEIGER

@<TRIPOS>ATOM
      1  N         17.4190   79.0460  167.8480 N.3    98  TYR98      -0.1241
      2  CA        18.7740   78.4670  167.8140 C.3    98  TYR98       0.1605
      3  C         18.9120   77.2010  168.6660 C.2    98  TYR98       0.2264
      4  O         18.1640   77.0040  169.6280 O.2    98  TYR98      -0.2867
      5  CB        19.8230   79.4810  168.3130 C.3    98  TYR98       0.0534
      6  CG        19.8570   80.8110  167.5850 C.ar   98  TYR98      -0.0201
      7  CD1       20.5670   80.9630  166.3930 C.ar   98  TYR98      -0.0009
      8  CD2       19.1960   81.9290  168.1030 C.ar   98  TYR98      -0.0009
      9  CE1       20.6020   82.1840  165.7270 C.ar   98  TYR98       0.0417
     10  CE2       19.2240   83.1520  167.4460 C.ar   98  TYR98       0.0417
     11  CZ        19.9290   83.2770  166.2610 C.ar   98  TYR98       0.1957
     12  OH        19.9590   84.4900  165.6100 O.3    98  TYR98      -0.2866
     13  N         12.8510   81.3850  159.5450 N.3   123  LEU123     -0.1231
     14  CA        13.4370   82.3700  158.6310 C.3   123  LEU123      0.1693
     15  C         14.9490   82.4920  158.8340 C.2   123  LEU123      0.2592
     16  O         15.7310   82.1510  157.9430 O.2   123  LEU123     -0.2718
     17  CB        12.7540   83.7380  158.8050 C.3   123  LEU123      0.0284
     18  CG        13.3130   84.9520  158.0490 C.3   123  LEU123      0.0019
     19  CD1       13.3530   84.7240  156.5440 C.3   123  LEU123      0.0001
     20  CD2       12.4870   86.1840  158.3800 C.3   123  LEU123      0.0001
     21  N         15.3420   82.9790  160.0100 N.am  124  ASP124     -0.1974
     22  CA        16.7330   83.3100  160.3150 C.3   124  ASP124      0.1709
     23  C         16.9840   83.1960  161.8370 C.2   124  ASP124      0.2293
     24  O         16.7360   84.1590  162.5670 O.2   124  ASP124     -0.2864
     25  CB        17.0230   84.7330  159.8120 C.3   124  ASP124      0.1436
     26  CG        18.5050   85.0510  159.7460 C.2   124  ASP124      0.3671
     27  OD1       19.3020   84.4670  160.5120 O.co2 124  ASP124     -0.2456
     28  OD2       18.8840   85.8930  158.9080 O.co2 124  ASP124     -0.2456
     29  N         19.6320   89.6870  155.5600 N.3   153  CYS153     -0.1221
     30  CA        18.2240   89.3430  155.7790 C.3   153  CYS153      0.1808
     31  C         17.5380   90.4170  156.6110 C.2   153  CYS153      0.2602
     32  O         18.1620   91.0340  157.4670 O.2   153  CYS153     -0.2717
     33  CB        18.1090   87.9990  156.4970 C.3   153  CYS153      0.0970
     34  SG        16.4090   87.5200  156.8880 S.3   153  CYS153     -0.0800
     35  N         16.2490   90.6290  156.3700 N.am  154  GLY154     -0.1942
     36  CA        15.4980   91.6400  157.1050 C.3   154  GLY154      0.2014
     37  C         13.9990   91.4420  157.0560 C.2   154  GLY154      0.2639
     38  O         13.4340   91.2060  155.9860 O.2   154  GLY154     -0.2714
     39  N         13.3690   91.5200  158.2270 N.am  155  GLY155     -0.1954
     40  CA        11.9200   91.6290  158.3500 C.3   155  GLY155      0.1869
     41  C         11.5820   93.0850  158.6050 C.2   155  GLY155      0.2309
     42  O         12.1150   93.6870  159.5320 O.2   155  GLY155     -0.2863
     43  N          9.7490  101.6900  160.4790 N.3   168  TYR168     -0.1241
     44  CA         9.5950  100.3530  161.0310 C.3   168  TYR168      0.1605
     45  C          8.3180  100.1900  161.8500 C.2   168  TYR168      0.2264
     46  O          7.7670  101.1630  162.3660 O.2   168  TYR168     -0.2867
     47  CB        10.8150  100.0200  161.8930 C.3   168  TYR168      0.0534
     48  CG        11.0770   98.5440  162.0060 C.ar  168  TYR168     -0.0201
     49  CD1       11.7540   97.8590  160.9990 C.ar  168  TYR168     -0.0009
     50  CD2       10.6390   97.8250  163.1140 C.ar  168  TYR168     -0.0009
     51  CE1       11.9920   96.4970  161.0940 C.ar  168  TYR168      0.0417
     52  CE2       10.8700   96.4660  163.2210 C.ar  168  TYR168      0.0417
     53  CZ        11.5480   95.7990  162.2120 C.ar  168  TYR168      0.1957
     54  OH        11.7780   94.4450  162.3200 O.3   168  TYR168     -0.2866
     55  N          7.0330   91.9210  167.4740 N.3   172  TRP172     -0.1241
     56  CA         7.1920   91.5610  168.8900 C.3   172  TRP172      0.1605
     57  C          8.1030   92.5830  169.5970 C.2   172  TRP172      0.2264
     58  O          8.5070   93.5770  168.9860 O.2   172  TRP172     -0.2867
     59  CB         7.7120   90.1160  169.0210 C.3   172  TRP172      0.0550
     60  CG         9.0330   89.8410  168.3520 C.ar  172  TRP172      0.0003
     61  CD1       10.2740   90.1450  168.8310 C.ar  172  TRP172      0.0946
     62  CD2        9.2390   89.1840  167.0940 C.ar  172  TRP172      0.0152
     63  NE1       11.2410   89.7310  167.9460 N.ar  172  TRP172     -0.2442
     64  CE2       10.6350   89.1330  166.8730 C.ar  172  TRP172      0.0810
     65  CE3        8.3820   88.6340  166.1310 C.ar  172  TRP172      0.0012
     66  CZ2       11.1940   88.5600  165.7250 C.ar  172  TRP172      0.0191
     67  CZ3        8.9400   88.0600  164.9880 C.ar  172  TRP172      0.0001
     68  CH2       10.3340   88.0300  164.7980 C.ar  172  TRP172      0.0015
     69  N         16.5530   93.5940  169.5690 N.3   177  VAL177     -0.1245
     70  CA        17.1120   94.3890  168.4540 C.3   177  VAL177      0.1561
     71  C         17.7400   95.7180  168.8970 C.2   177  VAL177      0.2260
     72  O         18.7520   96.1380  168.3310 O.2   177  VAL177     -0.2867
     73  CB        16.0910   94.6420  167.3060 C.3   177  VAL177      0.0252
     74  CG1       15.6210   93.3250  166.6990 C.3   177  VAL177      0.0019
     75  CG2       14.9040   95.4920  167.7560 C.3   177  VAL177      0.0019
     76  N         21.0670   94.8140  170.5270 N.3   180  ASN180     -0.1240
     77  CA        22.0420   94.4150  169.4940 C.3   180  ASN180      0.1653
     78  C         22.8720   95.5720  168.9230 C.2   180  ASN180      0.2266
     79  O         23.9950   95.3550  168.4630 O.2   180  ASN180     -0.2867
     80  CB        21.3540   93.6680  168.3380 C.3   180  ASN180      0.1155
     81  CG        20.8380   92.2930  168.7400 C.2   180  ASN180      0.2627
     82  OD1       21.1240   91.7910  169.8300 O.2   180  ASN180     -0.2716
     83  ND2       20.0650   91.6760  167.8510 N.am  180  ASN180     -0.0877
     84  N         25.7490   91.4060  161.5080 N.3   222  ASN222     -0.1240
     85  CA        25.1770   90.7140  162.6670 C.3   222  ASN222      0.1653
     86  C         26.2110   90.4900  163.7580 C.2   222  ASN222      0.2266
     87  O         27.4060   90.7120  163.5560 O.2   222  ASN222     -0.2867
     88  CB        24.6000   89.3470  162.2610 C.3   222  ASN222      0.1155
     89  CG        23.3780   89.4560  161.3720 C.2   222  ASN222      0.2627
     90  OD1       22.6990   90.4820  161.3430 O.2   222  ASN222     -0.2716
     91  ND2       23.0800   88.3820  160.6490 N.am  222  ASN222     -0.0877
     92  N         24.4500   89.8950  157.8130 N.3   243  GLY243     -0.1210
     93  CA        23.9230   91.1910  158.2340 C.3   243  GLY243      0.1956
     94  C         22.4120   91.2790  158.2400 C.2   243  GLY243      0.2612
     95  O         21.7200   90.3460  157.8260 O.2   243  GLY243     -0.2717
     96  N         21.9150   92.4170  158.7230 N.am  244  THR244     -0.1952
     97  CA        20.4840   92.6780  158.8600 C.3   244  THR244      0.1897
     98  C         20.1000   93.8790  157.9950 C.2   244  THR244      0.2313
     99  O         20.8700   94.8330  157.8860 O.2   244  THR244     -0.2863
    100  CB        20.1190   92.9280  160.3380 C.3   244  THR244      0.1794
    101  OG1       20.4310   91.7580  161.1000 O.3   244  THR244     -0.2208
    102  CG2       18.6340   93.2500  160.5130 C.3   244  THR244      0.0378
    103  N         17.4090   97.0170  156.9660 N.3   246  ARG246     -0.1245
    104  CA        16.3830   97.9680  157.3860 C.3   246  ARG246      0.1563
    105  C         16.2640   99.0380  156.3000 C.2   246  ARG246      0.2260
    106  O         17.1020   99.0960  155.3960 O.2   246  ARG246     -0.2867
    107  CB        16.7690   98.6070  158.7250 C.3   246  ARG246      0.0307
    108  CG        16.7280   97.6650  159.9250 C.3   246  ARG246      0.0489
    109  CD        15.3050   97.4540  160.4210 C.3   246  ARG246      0.2205
    110  NE        15.2340   96.5500  161.5710 N.pl3 246  ARG246     -0.0865
    111  CZ        15.3020   95.2150  161.5190 C.cat 246  ARG246      0.5346
    112  NH1       15.4590   94.5680  160.3620 N.pl3 246  ARG246      0.1354
    113  NH2       15.2180   94.5120  162.6470 N.pl3 246  ARG246      0.1354
    114  N          6.3780   87.3880  157.9690 N.3   386  MET386     -0.1245
    115  CA         7.1630   86.9340  159.1170 C.3   386  MET386      0.1570
    116  C          6.6400   85.6030  159.6600 C.2   386  MET386      0.2261
    117  O          7.4210   84.6810  159.8980 O.2   386  MET386     -0.2867
    118  CB         7.1370   87.9960  160.2240 C.3   386  MET386      0.0387
    119  CG         7.9610   87.6640  161.4610 C.3   386  MET386      0.0595
    120  SD         9.7250   87.5860  161.1150 S.3   386  MET386     -0.1393
    121  CE        10.1160   89.3310  161.1640 C.3   386  MET386      0.0692
@<TRIPOS>BOND
     1   106   105    2
     2    29    30    1
     3    30    33    1
     4    30    31    1
     5    38    37    2
     6   105   104    1
     7    35    31   am
     8    35    36    1
     9    33    34    1
    10    19    18    1
    11    31    32    2
    12   103   104    1
    13    37    36    1
    14    37    39   am
    15   104   107    1
    16    92    93    1
    17    95    94    2
    18    99    98    2
    19    16    15    2
    20   114   115    1
    21    98    97    1
    22    18    20    1
    23    18    17    1
    24    39    40    1
    25    93    94    1
    26    94    96   am
    27    40    41    1
    28    41    42    2
    29    14    17    1
    30    14    15    1
    31    14    13    1
    32    96    97    1
    33   107   108    1
    34    15    21   am
    35    97   100    1
    36    28    26   ar
    37   115   116    1
    38   115   118    1
    39   116   117    2
    40    26    25    1
    41    26    27   ar
    42    25    22    1
    43   108   109    1
    44    21    22    1
    45   118   119    1
    46    22    23    1
    47   100   102    1
    48   100   101    1
    49   112   111    1
    50   109   110    1
    51    43    44    1
    52    91    89   am
    53    49    51   ar
    54    49    48   ar
    55    44    45    1
    56    44    47    1
    57    51    53   ar
    58   120   121    1
    59   120   119    1
    60    90    89    2
    61    89    88    1
    62    84    85    1
    63   111   110    2
    64   111   113    1
    65    23    24    2
    66    45    46    2
    67    47    48    1
    68    48    50   ar
    69    53    54    1
    70    53    52   ar
    71    88    85    1
    72    85    86    1
    73    50    52   ar
    74    87    86    2
    75    68    67   ar
    76    68    66   ar
    77    67    65   ar
    78    12    11    1
    79    66    64   ar
    80     9    11   ar
    81     9     7   ar
    82    65    62   ar
    83    11    10   ar
    84     7     6   ar
    85    74    73    1
    86    64    62   ar
    87    64    63   ar
    88    62    60   ar
    89    73    75    1
    90    73    70    1
    91    10     8   ar
    92    55    56    1
    93     6     8   ar
    94     6     5    1
    95     2     1    1
    96     2     5    1
    97     2     3    1
    98    83    81   am
    99    63    61   ar
   100    72    71    2
   101    80    81    1
   102    80    77    1
   103    60    61   ar
   104    60    59    1
   105    70    71    1
   106    70    69    1
   107    79    78    2
   108     3     4    2
   109    81    82    2
   110    56    59    1
   111    56    57    1
   112    78    77    1
   113    58    57    2
   114    77    76    1
