@<TRIPOS>MOLECULE
tmp/5o1oA00.pdb
 76 70 0 0 0
SMALL
GASTEIGER

@<TRIPOS>ATOM
      1  N         -7.5820    4.9570    7.6480 N.3   123  LEU123     -0.1231
      2  CA        -7.0260    3.8640    8.4540 C.3   123  LEU123      0.1693
      3  C         -5.5200    3.7390    8.2340 C.2   123  LEU123      0.2592
      4  O         -4.7380    3.8590    9.1800 O.2   123  LEU123     -0.2718
      5  CB        -7.7300    2.5380    8.1260 C.3   123  LEU123      0.0284
      6  CG        -7.2850    1.2700    8.8690 C.3   123  LEU123      0.0019
      7  CD1       -7.3440    1.4490   10.3790 C.3   123  LEU123      0.0001
      8  CD2       -8.1400    0.0870    8.4410 C.3   123  LEU123      0.0001
      9  N         -5.1300    3.4970    6.9830 N.am  124  ASP124     -0.1974
     10  CA        -3.7260    3.3000    6.6120 C.3   124  ASP124      0.1709
     11  C         -3.5440    3.5740    5.1060 C.2   124  ASP124      0.2293
     12  O         -3.9630    2.7490    4.2900 O.2   124  ASP124     -0.2864
     13  CB        -3.2860    1.8680    6.9610 C.3   124  ASP124      0.1436
     14  CG        -1.7990    1.6130    6.6990 C.2   124  ASP124      0.3671
     15  OD1       -1.0030    2.5760    6.6280 O.co2 124  ASP124     -0.2456
     16  OD2       -1.4220    0.4290    6.5760 O.co2 124  ASP124     -0.2456
     17  N         -1.3990   -4.1560   11.6850 N.3   153  CYS153     -0.1221
     18  CA        -2.8070   -3.7920   11.4700 C.3   153  CYS153      0.1808
     19  C         -3.4920   -4.7230   10.4710 C.2   153  CYS153      0.2602
     20  O         -2.8830   -5.1310    9.4850 O.2   153  CYS153     -0.2717
     21  CB        -2.9200   -2.3500   10.9700 C.3   153  CYS153      0.0970
     22  SG        -4.5940   -1.8720   10.4680 S.3   153  CYS153     -0.0800
     23  N         -4.7620   -5.0370   10.7170 N.am  154  GLY154     -0.1942
     24  CA        -5.5220   -5.9300    9.8400 C.3   154  GLY154      0.2014
     25  C         -7.0230   -5.7080    9.8910 C.2   154  GLY154      0.2639
     26  O         -7.6010   -5.5890   10.9730 O.2   154  GLY154     -0.2714
     27  N         -7.6450   -5.6490    8.7120 N.am  155  GLY155     -0.1954
     28  CA        -9.0990   -5.5760    8.5760 C.3   155  GLY155      0.1869
     29  C         -9.6410   -6.9650    8.3070 C.2   155  GLY155      0.2309
     30  O         -9.3320   -7.5590    7.2710 O.2   155  GLY155     -0.2863
     31  N        -11.7700  -15.5710    6.1460 N.3   168  TYR168     -0.1241
     32  CA       -11.8030  -14.2290    5.5640 C.3   168  TYR168      0.1605
     33  C        -13.0320  -14.0510    4.6720 C.2   168  TYR168      0.2264
     34  O        -13.5980  -15.0290    4.1760 O.2   168  TYR168     -0.2867
     35  CB       -10.5200  -13.9820    4.7560 C.3   168  TYR168      0.0534
     36  CG       -10.1990  -12.5200    4.5260 C.ar  168  TYR168     -0.0201
     37  CD1       -9.6100  -11.7510    5.5310 C.ar  168  TYR168     -0.0009
     38  CD2      -10.4750  -11.9040    3.3020 C.ar  168  TYR168     -0.0009
     39  CE1       -9.3100  -10.4110    5.3280 C.ar  168  TYR168      0.0417
     40  CE2      -10.1780  -10.5620    3.0910 C.ar  168  TYR168      0.0417
     41  CZ        -9.5950   -9.8200    4.1070 C.ar  168  TYR168      0.1957
     42  OH        -9.2950   -8.4900    3.9110 O.3   168  TYR168     -0.2866
     43  N          5.2720   -6.5550    5.5610 N.3   222  ASN222     -0.1240
     44  CA         4.7280   -6.1880    4.2430 C.3   222  ASN222      0.1653
     45  C          5.5450   -5.1040    3.5350 C.2   222  ASN222      0.2266
     46  O          5.9500   -4.1240    4.1570 O.2   222  ASN222     -0.2867
     47  CB         3.2430   -5.7780    4.3430 C.3   222  ASN222      0.1155
     48  CG         2.9570   -4.7900    5.4680 C.2   222  ASN222      0.2627
     49  OD1        3.8180   -4.0150    5.8820 O.2   222  ASN222     -0.2716
     50  ND2        1.7270   -4.8120    5.9630 N.am  222  ASN222     -0.0877
     51  N          0.9630   -6.9180    8.5720 N.3   244  THR244     -0.1218
     52  CA        -0.4790   -7.1240    8.4200 C.3   244  THR244      0.1862
     53  C         -0.9270   -8.2880    9.3050 C.2   244  THR244      0.2287
     54  O         -0.2030   -9.2740    9.4430 O.2   244  THR244     -0.2866
     55  CB        -0.8470   -7.4300    6.9520 C.3   244  THR244      0.1770
     56  OG1       -0.3840   -6.3690    6.1090 O.3   244  THR244     -0.2211
     57  CG2       -2.3610   -7.5850    6.7730 C.3   244  THR244      0.0375
     58  N         -3.7760  -11.3030   10.1420 N.3   246  ARG246     -0.1245
     59  CA        -4.7970  -12.1960    9.5870 C.3   246  ARG246      0.1563
     60  C         -5.1010  -13.3020   10.5990 C.2   246  ARG246      0.2260
     61  O         -4.3380  -13.5020   11.5480 O.2   246  ARG246     -0.2867
     62  CB        -4.3100  -12.8180    8.2720 C.3   246  ARG246      0.0307
     63  CG        -4.1990  -11.8570    7.0930 C.3   246  ARG246      0.0489
     64  CD        -5.5600  -11.5220    6.5050 C.3   246  ARG246      0.2205
     65  NE        -5.4700  -10.6060    5.3630 N.pl3 246  ARG246     -0.0865
     66  CZ        -5.4290   -9.2710    5.4250 C.cat 246  ARG246      0.5346
     67  NH1       -5.4610   -8.6190    6.5900 N.pl3 246  ARG246      0.1354
     68  NH2       -5.3520   -8.5700    4.2950 N.pl3 246  ARG246      0.1354
     69  N        -14.3380   -0.8030    8.7770 N.3   384  MET384     -0.1245
     70  CA       -13.4330   -0.3070    7.7300 C.3   384  MET384      0.1570
     71  C        -13.8990    1.0440    7.1770 C.2   384  MET384      0.2261
     72  O        -13.0850    1.9440    6.9730 O.2   384  MET384     -0.2867
     73  CB       -13.3110   -1.3370    6.5940 C.3   384  MET384      0.0387
     74  CG       -12.3500   -0.9720    5.4620 C.3   384  MET384      0.0595
     75  SD       -10.6300   -0.7350    5.9630 S.3   384  MET384     -0.1393
     76  CE       -10.1130   -2.4270    6.2450 C.3   384  MET384      0.0692
@<TRIPOS>BOND
     1    40    38   ar
     2    40    41   ar
     3    38    36   ar
     4    45    46    2
     5    45    44    1
     6    42    41    1
     7    41    39   ar
     8    34    33    2
     9    44    47    1
    10    44    43    1
    11    12    11    2
    12    68    66    1
    13    47    48    1
    14    36    35    1
    15    36    37   ar
    16    33    32    1
    17    35    32    1
    18    11    10    1
    19    39    37   ar
    20    65    66    2
    21    65    64    1
    22    66    67    1
    23    74    75    1
    24    74    73    1
    25    48    49    2
    26    48    50   am
    27    32    31    1
    28    75    76    1
    29    56    55    1
    30    64    63    1
    31    16    14   ar
    32    73    70    1
    33    10    13    1
    34    10     9    1
    35    15    14   ar
    36    14    13    1
    37    57    55    1
    38    55    52    1
    39    72    71    2
    40     9     3   am
    41    63    62    1
    42    71    70    1
    43    30    29    2
    44     1     2    1
    45    70    69    1
    46     5     2    1
    47     5     6    1
    48     3     2    1
    49     3     4    2
    50    62    59    1
    51    29    28    1
    52    52    51    1
    53    52    53    1
    54     8     6    1
    55    28    27    1
    56    27    25   am
    57     6     7    1
    58    53    54    2
    59    20    19    2
    60    59    58    1
    61    59    60    1
    62    24    25    1
    63    24    23    1
    64    25    26    2
    65    22    21    1
    66    19    23   am
    67    19    18    1
    68    60    61    2
    69    21    18    1
    70    18    17    1
