@<TRIPOS>MOLECULE
tmp/5o1sA01.pdb
 93 84 0 0 0
SMALL
GASTEIGER

@<TRIPOS>ATOM
      1  N        -33.0320    7.9340  -25.3930 N.3    14  ILE14      -0.1245
      2  CA       -32.4050    9.1390  -25.8830 C.3    14  ILE14       0.1561
      3  C        -30.9390    9.0840  -25.5080 C.2    14  ILE14       0.2260
      4  O        -30.1710    9.9690  -25.8610 O.2    14  ILE14      -0.2867
      5  CB       -33.1100   10.4120  -25.3390 C.3    14  ILE14       0.0252
      6  CG1      -33.0220   10.5030  -23.8140 C.3    14  ILE14       0.0019
      7  CG2      -34.5620   10.4140  -25.7290 C.3    14  ILE14       0.0019
      8  CD1      -33.6680   11.7830  -23.2670 C.3    14  ILE14       0.0001
      9  N        -30.6610    6.6330  -20.8190 N.3    17  CYS17      -0.1235
     10  CA       -31.5230    7.8150  -20.7900 C.3    17  CYS17       0.1677
     11  C        -32.7210    7.6140  -21.7110 C.2    17  CYS17       0.2270
     12  O        -32.5580    7.2280  -22.8710 O.2    17  CYS17      -0.2867
     13  CB       -30.7390    9.0630  -21.1940 C.3    17  CYS17       0.0956
     14  SG       -29.3800    9.4840  -20.0610 S.3    17  CYS17      -0.0801
     15  N        -36.9150   13.9230  -19.3840 N.3    30  ALA30      -0.1231
     16  CA       -35.9060   12.9020  -19.5790 C.3    30  ALA30       0.1694
     17  C        -35.7280   12.1660  -18.2580 C.2    30  ALA30       0.2592
     18  O        -35.8080   12.7820  -17.1900 O.2    30  ALA30      -0.2718
     19  CB       -34.5560   13.5060  -20.0310 C.3    30  ALA30       0.0304
     20  N        -35.4560   10.8600  -18.3270 N.am   31  VAL31      -0.1966
     21  CA       -35.0720   10.0900  -17.1460 C.3    31  VAL31       0.1727
     22  C        -33.7800    9.3400  -17.4530 C.2    31  VAL31       0.2616
     23  O        -33.6570    8.7170  -18.5100 O.2    31  VAL31      -0.2715
     24  CB       -36.1900    9.1320  -16.7020 C.3    31  VAL31       0.0290
     25  CG1      -36.5370    8.1290  -17.8030 C.3    31  VAL31       0.0023
     26  CG2      -35.8080    8.4490  -15.3790 C.3    31  VAL31       0.0023
     27  N        -32.7970    9.4630  -16.5680 N.am   32  LYS32      -0.1977
     28  CA       -31.5560    8.6930  -16.6420 C.3    32  LYS32       0.1596
     29  C        -31.6880    7.5480  -15.6640 C.2    32  LYS32       0.2287
     30  O        -32.0040    7.7700  -14.4980 O.2    32  LYS32      -0.2864
     31  CB       -30.3360    9.5540  -16.3120 C.3    32  LYS32       0.0298
     32  CG       -28.9610    8.8470  -16.2150 C.3    32  LYS32       0.0038
     33  CD       -27.9000    9.9550  -16.0760 C.3    32  LYS32       0.0206
     34  CE       -26.4790    9.4580  -15.8770 C.3    32  LYS32       0.1093
     35  NZ       -25.5290   10.6250  -15.7980 N.3    32  LYS32      -0.1314
     36  N        -28.6910   21.6870  -15.8270 N.3    58  ILE58      -0.1245
     37  CA       -29.8740   20.8710  -16.0940 C.3    58  ILE58       0.1561
     38  C        -30.6890   20.6840  -14.8200 C.2    58  ILE58       0.2260
     39  O        -30.1360   20.3670  -13.7700 O.2    58  ILE58      -0.2867
     40  CB       -29.4640   19.5110  -16.6720 C.3    58  ILE58       0.0252
     41  CG1      -30.7410   18.7260  -16.9740 C.3    58  ILE58       0.0019
     42  CG2      -28.4860   18.7810  -15.7030 C.3    58  ILE58       0.0019
     43  CD1      -30.5990   17.5400  -17.8790 C.3    58  ILE58       0.0001
     44  N        -33.4850    9.1600  -12.4400 N.3    72  VAL72      -0.1245
     45  CA       -33.2370   10.5880  -12.2980 C.3    72  VAL72       0.1561
     46  C        -34.0120   11.3140  -13.4020 C.2    72  VAL72       0.2260
     47  O        -33.6610   11.2330  -14.5900 O.2    72  VAL72      -0.2867
     48  CB       -31.7360   10.8900  -12.3670 C.3    72  VAL72       0.0252
     49  CG1      -31.4870   12.3590  -12.2110 C.3    72  VAL72       0.0019
     50  CG2      -31.0300   10.1040  -11.2870 C.3    72  VAL72       0.0019
     51  N        -35.2660   14.6500  -15.2850 N.3    74  THR74      -0.1218
     52  CA       -34.8090   16.0140  -15.5120 C.3    74  THR74       0.1862
     53  C        -35.5710   16.6510  -16.6600 C.2    74  THR74       0.2287
     54  O        -36.2820   15.9800  -17.4180 O.2    74  THR74      -0.2866
     55  CB       -33.3330   16.0710  -15.9190 C.3    74  THR74       0.1770
     56  OG1      -33.2130   15.5650  -17.2630 O.3    74  THR74      -0.2211
     57  CG2      -32.4840   15.2360  -14.9340 C.3    74  THR74       0.0375
     58  N        -20.4970   17.9630  -26.1970 N.3   124  SER124     -0.1202
     59  CA       -21.7850   17.3010  -26.3280 C.3   124  SER124      0.2020
     60  C        -22.5630   17.2500  -25.0080 C.2   124  SER124      0.2618
     61  O        -23.6900   16.7530  -25.0030 O.2   124  SER124     -0.2717
     62  CB       -21.5990   15.9100  -26.8770 C.3   124  SER124      0.2103
     63  OG       -20.7050   15.1920  -26.0440 O.3   124  SER124     -0.2182
     64  N        -21.9880   17.7020  -23.8930 N.am  125  ASN125     -0.1974
     65  CA       -22.7140   17.7740  -22.6180 C.3   125  ASN125      0.1688
     66  C        -23.2890   19.1620  -22.3800 C.2   125  ASN125      0.2292
     67  O        -23.6810   19.4790  -21.2650 O.2   125  ASN125     -0.2864
     68  CB       -21.8220   17.3090  -21.4700 C.3   125  ASN125      0.1181
     69  CG       -21.7900   15.7900  -21.4090 C.2   125  ASN125      0.2629
     70  OD1      -22.7540   15.1740  -21.8880 O.2   125  ASN125     -0.2716
     71  ND2      -20.7170   15.1800  -20.8750 N.am  125  ASN125     -0.0877
     72  N        -26.0090   21.7600  -23.8570 N.3   127  LEU127     -0.1245
     73  CA       -27.1420   21.6530  -24.7720 C.3   127  LEU127      0.1561
     74  C        -28.0210   22.8830  -24.6300 C.2   127  LEU127      0.2260
     75  O        -27.9030   23.6530  -23.6800 O.2   127  LEU127     -0.2867
     76  CB       -28.0060   20.4030  -24.4960 C.3   127  LEU127      0.0270
     77  CG       -27.2560   19.1130  -24.8580 C.3   127  LEU127      0.0019
     78  CD1      -26.4470   18.6840  -23.6910 C.3   127  LEU127      0.0001
     79  CD2      -28.1480   17.9890  -25.3760 C.3   127  LEU127      0.0001
     80  N        -25.0910   19.6850  -18.7240 N.3   141  CYS141     -0.1221
     81  CA       -25.6940   18.4070  -18.4040 C.3   141  CYS141      0.1808
     82  C        -24.6190   17.3920  -18.0360 C.2   141  CYS141      0.2601
     83  O        -23.4170   17.6650  -18.1350 O.2   141  CYS141     -0.2717
     84  CB       -26.4700   17.8500  -19.5850 C.3   141  CYS141      0.0970
     85  SG       -27.7400   19.0290  -20.2410 S.3   141  CYS141     -0.0800
     86  N        -25.1000   16.1880  -17.7150 N.am  142  ASP142     -0.1973
     87  CA       -24.3340   15.0080  -17.3190 C.3   142  ASP142      0.1709
     88  C        -23.2820   15.2620  -16.2360 C.2   142  ASP142      0.2293
     89  O        -22.0770   15.4360  -16.4840 O.2   142  ASP142     -0.2864
     90  CB       -23.7290   14.3060  -18.5180 C.3   142  ASP142      0.1436
     91  CG       -23.2930   12.8800  -18.1600 C.2   142  ASP142      0.3671
     92  OD1      -23.3750   12.5170  -16.9590 O.co2 142  ASP142     -0.2456
     93  OD2      -22.8750   12.1180  -19.0570 O.co2 142  ASP142     -0.2456
@<TRIPOS>BOND
     1    62    59    1
     2    62    63    1
     3    59    58    1
     4    59    60    1
     5     2     3    1
     6     2     1    1
     7     2     5    1
     8     4     3    2
     9     7     5    1
    10    79    77    1
    11     5     6    1
    12    60    61    2
    13    60    64   am
    14    77    76    1
    15    77    78    1
    16    73    74    1
    17    73    76    1
    18    73    72    1
    19    74    75    2
    20    64    65    1
    21     6     8    1
    22    12    11    2
    23    65    66    1
    24    65    68    1
    25    66    67    2
    26    70    69    2
    27    11    10    1
    28    68    69    1
    29    69    71   am
    30    13    10    1
    31    13    14    1
    32     9    10    1
    33    85    84    1
    34    19    16    1
    35    84    81    1
    36    16    15    1
    37    16    17    1
    38    93    91   ar
    39    80    81    1
    40    90    91    1
    41    90    87    1
    42    23    22    2
    43    81    82    1
    44    20    17   am
    45    20    21    1
    46    17    18    2
    47    91    92   ar
    48    83    82    2
    49    82    86   am
    50    43    41    1
    51    25    24    1
    52    86    87    1
    53    22    21    1
    54    22    27   am
    55    54    53    2
    56    87    88    1
    57    56    55    1
    58    21    24    1
    59    41    40    1
    60    24    26    1
    61    40    37    1
    62    40    42    1
    63    53    52    1
    64    28    27    1
    65    28    31    1
    66    28    29    1
    67    89    88    2
    68    31    32    1
    69    32    33    1
    70    37    36    1
    71    37    38    1
    72    33    34    1
    73    55    52    1
    74    55    57    1
    75    34    35    1
    76    29    30    2
    77    52    51    1
    78    38    39    2
    79    47    46    2
    80    46    45    1
    81    44    45    1
    82    48    45    1
    83    48    49    1
    84    48    50    1
