@<TRIPOS>MOLECULE
tmp/5o1uA00.pdb
 160 150 0 0 0
SMALL
GASTEIGER

@<TRIPOS>ATOM
      1  N         46.4650   58.1260   93.4300 N.3    21  HIS21      -0.1241
      2  CA        47.7770   58.4730   93.9810 C.3    21  HIS21       0.1621
      3  C         48.4140   59.6710   93.2860 C.2    21  HIS21       0.2264
      4  O         48.1560   59.9600   92.1140 O.2    21  HIS21      -0.2867
      5  CB        48.7530   57.2830   93.9520 C.3    21  HIS21       0.0745
      6  CG        49.0890   56.7580   92.5850 C.ar   21  HIS21       0.0817
      7  ND1       49.9040   57.4350   91.6980 N.ar   21  HIS21      -0.2268
      8  CD2       48.7580   55.5920   91.9740 C.ar   21  HIS21       0.1154
      9  CE1       50.0450   56.7170   90.5950 C.ar   21  HIS21       0.1986
     10  NE2       49.3620   55.5930   90.7360 N.ar   21  HIS21      -0.2212
     11  N         51.4100   61.8150   91.5220 N.3    23  MET23      -0.1245
     12  CA        52.2030   61.5130   90.3190 C.3    23  MET23       0.1570
     13  C         51.3950   60.4310   89.6020 C.2    23  MET23       0.2261
     14  O         51.8850   59.3360   89.3750 O.2    23  MET23      -0.2867
     15  CB        53.6240   61.0470   90.6420 C.3    23  MET23       0.0387
     16  CG        54.4020   61.9870   91.5430 C.3    23  MET23       0.0595
     17  SD        56.1750   61.6870   91.4930 S.3    23  MET23      -0.1393
     18  CE        56.3080   60.1980   92.4650 C.3    23  MET23       0.0692
     19  N         49.4550   57.8560   87.2240 N.3    25  ASP25      -0.1239
     20  CA        49.7650   57.1550   85.9900 C.3    25  ASP25       0.1674
     21  C         48.4360   56.7490   85.3320 C.2    25  ASP25       0.2266
     22  O         47.3640   57.0960   85.8160 O.2    25  ASP25      -0.2867
     23  CB        50.6450   55.9400   86.2330 C.3    25  ASP25       0.1410
     24  CG        50.1030   55.0450   87.3070 C.2    25  ASP25       0.3668
     25  OD1       48.8690   54.9790   87.4600 O.co2  25  ASP25      -0.2456
     26  OD2       50.9160   54.4110   87.9970 O.co2  25  ASP25      -0.2456
     27  N         49.4850   52.4790   97.5570 N.3    84  SER84      -0.1202
     28  CA        50.0270   51.5430   98.5300 C.3    84  SER84       0.2020
     29  C         50.1930   52.0120   99.9700 C.2    84  SER84       0.2619
     30  O         50.3560   51.1930  100.8590 O.2    84  SER84      -0.2717
     31  CB        51.3540   50.9830   98.0210 C.3    84  SER84       0.2103
     32  OG        52.3280   51.9970   97.9480 O.3    84  SER84      -0.2182
     33  N         50.1600   53.3130  100.2050 N.am   85  SER85      -0.1951
     34  CA        50.3140   53.8100  101.5690 C.3    85  SER85       0.1924
     35  C         49.6970   55.1960  101.6480 C.2    85  SER85       0.2314
     36  O         49.4680   55.8300  100.6090 O.2    85  SER85      -0.2863
     37  CB        51.7940   53.8450  101.9920 C.3    85  SER85       0.2116
     38  OG        52.5330   54.6820  101.1310 O.3    85  SER85      -0.2180
     39  N         50.9260   58.2570   99.7140 N.3    88  ARG88      -0.1245
     40  CA        50.7740   58.2110   98.2720 C.3    88  ARG88       0.1563
     41  C         49.5580   58.9910   97.7860 C.2    88  ARG88       0.2260
     42  O         49.4330   59.2460   96.6150 O.2    88  ARG88      -0.2867
     43  CB        50.7310   56.7700   97.7720 C.3    88  ARG88       0.0307
     44  CG        52.0740   56.0660   97.8320 C.3    88  ARG88       0.0489
     45  CD        52.9810   56.4990   96.6960 C.3    88  ARG88       0.2205
     46  NE        52.6020   55.8750   95.4350 N.pl3  88  ARG88      -0.0865
     47  CZ        52.8430   56.4010   94.2410 C.cat  88  ARG88       0.5346
     48  NH1       53.4640   57.5650   94.1440 N.pl3  88  ARG88       0.1354
     49  NH2       52.4620   55.7630   93.1470 N.pl3  88  ARG88       0.1354
     50  N         49.2060   46.4300   94.9850 N.3   107  HIS107     -0.1241
     51  CA        50.6090   46.4580   95.3960 C.3   107  HIS107      0.1621
     52  C         50.8840   45.4970   96.5420 C.2   107  HIS107      0.2264
     53  O         50.1740   45.5070   97.5380 O.2   107  HIS107     -0.2867
     54  CB        51.0230   47.8610   95.8220 C.3   107  HIS107      0.0745
     55  CG        51.0850   48.8360   94.6960 C.ar  107  HIS107      0.0817
     56  ND1       49.9780   49.5000   94.2220 N.ar  107  HIS107     -0.2268
     57  CD2       52.1220   49.2580   93.9450 C.ar  107  HIS107      0.1154
     58  CE1       50.3280   50.2880   93.2270 C.ar  107  HIS107      0.1986
     59  NE2       51.6250   50.1540   93.0340 N.ar  107  HIS107     -0.2212
     60  N         49.4910   49.8350   82.7580 N.3   156  ASP156     -0.1239
     61  CA        50.1940   49.0630   83.7730 C.3   156  ASP156      0.1674
     62  C         50.9130   47.8220   83.2420 C.2   156  ASP156      0.2266
     63  O         51.8030   47.2980   83.8900 O.2   156  ASP156     -0.2867
     64  CB        49.3380   48.8020   84.9950 C.3   156  ASP156      0.1410
     65  CG        49.6910   49.7330   86.1360 C.2   156  ASP156      0.3668
     66  OD1       49.2770   49.4770   87.2420 O.co2 156  ASP156     -0.2456
     67  OD2       50.4020   50.7160   85.9350 O.co2 156  ASP156     -0.2456
     68  N         58.4340   60.6150   81.2030 N.3   238  ALA238     -0.1245
     69  CA        57.6130   59.5710   81.8240 C.3   238  ALA238      0.1562
     70  C         57.9080   58.1760   81.2800 C.2   238  ALA238      0.2260
     71  O         57.8230   57.1860   82.0200 O.2   238  ALA238     -0.2867
     72  CB        56.1320   59.9000   81.6390 C.3   238  ALA238      0.0290
     73  N         62.4640   55.5530   81.4400 N.3   241  VAL241     -0.1245
     74  CA        63.0930   54.4010   82.0680 C.3   241  VAL241      0.1561
     75  C         62.7500   53.1420   81.2910 C.2   241  VAL241      0.2260
     76  O         63.5750   52.2250   81.1870 O.2   241  VAL241     -0.2867
     77  CB        62.7120   54.2970   83.5620 C.3   241  VAL241      0.0252
     78  CG1       61.2380   53.9680   83.7360 C.3   241  VAL241      0.0019
     79  CG2       63.5960   53.2520   84.2620 C.3   241  VAL241      0.0019
     80  N         62.8860   61.4780   92.4320 N.3   265  HIS265     -0.1241
     81  CA        62.1150   60.3020   92.2130 C.3   265  HIS265      0.1621
     82  C         63.0200   59.2990   91.5360 C.2   265  HIS265      0.2264
     83  O         63.6670   59.6020   90.5430 O.2   265  HIS265     -0.2867
     84  CB        60.9240   60.5880   91.3260 C.3   265  HIS265      0.0745
     85  CG        60.1420   59.3660   91.0190 C.ar  265  HIS265      0.0817
     86  ND1       59.9030   58.4040   91.9710 N.ar  265  HIS265     -0.2268
     87  CD2       59.5960   58.9090   89.8710 C.ar  265  HIS265      0.1154
     88  CE1       59.2240   57.4160   91.4290 C.ar  265  HIS265      0.1986
     89  NE2       59.0170   57.6990   90.1570 N.ar  265  HIS265     -0.2212
     90  N         63.0390   55.9740   89.5400 N.3   267  SER267     -0.1273
     91  CA        62.2860   54.9480   88.7910 C.3   267  SER267      0.1575
     92  C         63.0650   53.6280   88.2890 C.3   267  SER267      0.2036
     93  O         64.1990   53.5150   87.6410 O.3   267  SER267     -0.2187
     94  CB        61.5590   55.6160   87.6210 C.3   267  SER267      0.2036
     95  OG        60.5540   54.7810   87.0990 O.3   267  SER267     -0.2187
     96  N         62.7910   49.6530   86.5370 N.3   269  ARG269     -0.1245
     97  CA        62.1100   48.7070   85.6670 C.3   269  ARG269      0.1563
     98  C         63.0310   47.5330   85.3820 C.2   269  ARG269      0.2260
     99  O         64.1740   47.7250   84.9960 O.2   269  ARG269     -0.2867
    100  CB        61.7320   49.3630   84.3410 C.3   269  ARG269      0.0307
    101  CG        60.8120   50.5590   84.4500 C.3   269  ARG269      0.0489
    102  CD        59.4390   50.1690   84.9480 C.3   269  ARG269      0.2205
    103  NE        58.5220   51.2900   84.8450 N.pl3 269  ARG269     -0.0865
    104  CZ        58.3970   52.2340   85.7670 C.cat 269  ARG269      0.5346
    105  NH1       59.1240   52.1820   86.8660 N.pl3 269  ARG269      0.1354
    106  NH2       57.5390   53.2200   85.5910 N.pl3 269  ARG269      0.1354
    107  N         62.3680   52.8040  101.1390 N.3   284  GLY284     -0.1210
    108  CA        61.2780   53.6710  101.5220 C.3   284  GLY284      0.1956
    109  C         60.1910   53.8420  100.4900 C.2   284  GLY284      0.2612
    110  O         59.2850   54.6530  100.7080 O.2   284  GLY284     -0.2717
    111  N         60.2630   53.1030   99.3910 N.am  285  GLY285     -0.1942
    112  CA        59.2600   53.1960   98.3510 C.3   285  GLY285      0.2014
    113  C         58.4590   51.9190   98.2190 C.2   285  GLY285      0.2639
    114  O         58.1260   51.2790   99.2060 O.2   285  GLY285     -0.2714
    115  N         58.1560   51.5400   96.9840 N.am  286  GLY286     -0.1939
    116  CA        57.3980   50.3330   96.7320 C.3   286  GLY286      0.2014
    117  C         57.0800   50.1290   95.2680 C.2   286  GLY286      0.2639
    118  O         57.6220   50.8040   94.4090 O.2   286  GLY286     -0.2714
    119  N         56.1940   49.1870   94.9870 N.am  287  GLY287     -0.1939
    120  CA        55.8160   48.9010   93.6240 C.3   287  GLY287      0.2014
    121  C         55.5780   47.4340   93.3520 C.2   287  GLY287      0.2638
    122  O         55.0270   46.7220   94.1750 O.2   287  GLY287     -0.2714
    123  N         56.0090   46.9900   92.1790 N.am  288  HIS288     -0.1973
    124  CA        55.8260   45.6160   91.7440 C.3   288  HIS288      0.1656
    125  C         57.1410   44.9230   91.4610 C.2   288  HIS288      0.2291
    126  O         58.1770   45.5690   91.4010 O.2   288  HIS288     -0.2864
    127  CB        54.9530   45.6020   90.5020 C.3   288  HIS288      0.0771
    128  CG        53.8350   46.5870   90.5640 C.ar  288  HIS288      0.0820
    129  ND1       52.6570   46.3210   91.2200 N.ar  288  HIS288     -0.2267
    130  CD2       53.7340   47.8530   90.1010 C.ar  288  HIS288      0.1154
    131  CE1       51.8670   47.3730   91.1380 C.ar  288  HIS288      0.1986
    132  NE2       52.4960   48.3170   90.4650 N.ar  288  HIS288     -0.2212
    133  N         58.4570   46.6390   88.3320 N.3   291  ALA291     -0.1231
    134  CA        58.3190   48.0860   88.2360 C.3   291  ALA291      0.1694
    135  C         58.1170   48.6700   89.6250 C.2   291  ALA291      0.2592
    136  O         57.1370   48.3710   90.2950 O.2   291  ALA291     -0.2718
    137  CB        57.1620   48.4530   87.3280 C.3   291  ALA291      0.0304
    138  N         59.0520   49.5070   90.0500 N.am  292  ALA292     -0.1966
    139  CA        58.9710   50.0970   91.3730 C.3   292  ALA292      0.1728
    140  C         59.6500   51.4550   91.4410 C.2   292  ALA292      0.2617
    141  O         60.4010   51.8330   90.5510 O.2   292  ALA292     -0.2715
    142  CB        59.5590   49.1510   92.4030 C.3   292  ALA292      0.0334
    143  N         59.3720   52.1760   92.5160 N.am  293  GLY293     -0.1940
    144  CA        59.9380   53.4890   92.7020 C.3   293  GLY293      0.2014
    145  C         60.0330   53.9540   94.1380 C.2   293  GLY293      0.2639
    146  O         59.4370   53.3770   95.0360 O.2   293  GLY293     -0.2714
    147  N         60.8000   55.0160   94.3300 N.am  294  VAL294     -0.1963
    148  CA        61.0100   55.6140   95.6330 C.3   294  VAL294      0.1727
    149  C         61.2430   57.1040   95.4240 C.2   294  VAL294      0.2616
    150  O         61.8730   57.5040   94.4590 O.2   294  VAL294     -0.2715
    151  CB        62.2120   54.9730   96.3500 C.3   294  VAL294      0.0290
    152  CG1       63.4740   55.1470   95.5310 C.3   294  VAL294      0.0023
    153  CG2       62.3900   55.5380   97.7500 C.3   294  VAL294      0.0023
    154  N         60.7110   57.9190   96.3230 N.am  295  THR295     -0.1951
    155  CA        60.8640   59.3580   96.2240 C.3   295  THR295      0.1897
    156  C         61.5450   59.9290   97.4610 C.2   295  THR295      0.2313
    157  O         61.2100   59.5730   98.5810 O.2   295  THR295     -0.2863
    158  CB        59.5030   60.0490   96.0280 C.3   295  THR295      0.1794
    159  OG1       58.8220   59.4600   94.9150 O.3   295  THR295     -0.2208
    160  CG2       59.6900   61.5280   95.7670 C.3   295  THR295      0.0378
@<TRIPOS>BOND
     1    76    75    2
     2    68    69    1
     3    70    69    1
     4    70    71    2
     5    75    74    1
     6    73    74    1
     7    72    69    1
     8    74    77    1
     9    60    61    1
    10    62    61    1
    11    62    63    2
    12    77    78    1
    13    77    79    1
    14    61    64    1
    15   100   101    1
    16   100    97    1
    17   101   102    1
    18   103   102    1
    19   103   104    2
    20    64    65    1
    21    99    98    2
    22    21    22    2
    23    21    20    1
    24    98    97    1
    25   106   104    1
    26    97    96    1
    27   104   105    1
    28    67    65   ar
    29    20    23    1
    30    20    19    1
    31    65    66   ar
    32    23    24    1
    33    95    94    1
    34    24    25   ar
    35    24    26   ar
    36   137   134    1
    37    94    91    1
    38    93    92    1
    39   134   133    1
    40   134   135    1
    41    92    91    1
    42    91    90    1
    43    14    13    2
    44    13    12    1
    45   135   138   am
    46   135   136    2
    47    87    89   ar
    48    87    85   ar
    49   138   139    1
    50   130   132   ar
    51   130   128   ar
    52    89    88   ar
    53    12    15    1
    54    12    11    1
    55   132   131   ar
    56   127   128    1
    57   127   124    1
    58    83    82    2
    59   141   140    2
    60   128   129   ar
    61     9    10   ar
    62     9     7   ar
    63    15    16    1
    64    10     8   ar
    65    85    84    1
    66    85    86   ar
    67   131   129   ar
    68    84    81    1
    69   139   140    1
    70   139   142    1
    71   126   125    2
    72    88    86   ar
    73   140   143   am
    74   125   124    1
    75    17    16    1
    76    17    18    1
    77    82    81    1
    78     7     6   ar
    79   124   123    1
    80     8     6   ar
    81     4     3    2
    82   123   121   am
    83    81    80    1
    84   143   144    1
    85     6     5    1
    86   144   145    1
    87    59    58   ar
    88    59    57   ar
    89    49    47    1
    90    58    56   ar
    91     3     2    1
    92   121   120    1
    93   121   122    2
    94     1     2    1
    95   120   119    1
    96    57    55   ar
    97     5     2    1
    98   145   147   am
    99   145   146    2
   100    48    47    1
   101    56    55   ar
   102    47    46    2
   103   147   148    1
   104   118   117    2
   105   150   149    2
   106    55    54    1
   107   159   158    1
   108    50    51    1
   109   119   117   am
   110   117   116    1
   111    51    54    1
   112    51    52    1
   113   149   148    1
   114   149   154   am
   115    46    45    1
   116   152   151    1
   117   148   151    1
   118   160   158    1
   119   158   155    1
   120   155   154    1
   121   155   156    1
   122   151   153    1
   123    52    53    2
   124    42    41    2
   125    45    44    1
   126   116   115    1
   127   115   113   am
   128   156   157    2
   129    27    28    1
   130    43    44    1
   131    43    40    1
   132    41    40    1
   133    32    31    1
   134    31    28    1
   135   113   112    1
   136   113   114    2
   137    40    39    1
   138   112   111    1
   139    28    29    1
   140   111   109   am
   141    29    33   am
   142    29    30    2
   143    33    34    1
   144   109   110    2
   145   109   108    1
   146    36    35    2
   147    38    37    1
   148   107   108    1
   149    34    35    1
   150    34    37    1
