@<TRIPOS>MOLECULE
tmp/5o22C00.pdb
 149 138 0 0 0
SMALL
GASTEIGER

@<TRIPOS>ATOM
      1  N          4.2410    7.0520   -2.4430 N.3     8  LYS8       -0.1245
      2  CA         5.3870    7.9510   -2.4400 C.3     8  LYS8        0.1561
      3  C          5.0250    9.2700   -1.7750 C.2     8  LYS8        0.2260
      4  O          5.7760    9.7790   -0.9340 O.2     8  LYS8       -0.2867
      5  CB         5.8790    8.1840   -3.8690 C.3     8  LYS8        0.0271
      6  CG         6.7140    7.0520   -4.4360 C.3     8  LYS8        0.0035
      7  CD         7.1790    7.3540   -5.8580 C.3     8  LYS8        0.0206
      8  CE         6.0470    7.2340   -6.8600 C.3     8  LYS8        0.1093
      9  NZ         6.5050    7.4930   -8.2540 N.3     8  LYS8       -0.1314
     10  N         18.2750   -3.9410    0.4280 N.3    48  TYR48      -0.1241
     11  CA        17.1930   -3.4150    1.2530 C.3    48  TYR48       0.1605
     12  C         17.7270   -2.6240    2.4410 C.2    48  TYR48       0.2264
     13  O         17.1450   -1.6070    2.8340 O.2    48  TYR48      -0.2867
     14  CB        16.3160   -4.5680    1.7510 C.3    48  TYR48       0.0534
     15  CG        15.7340   -5.4580    0.6710 C.ar   48  TYR48      -0.0201
     16  CD1       15.3800   -4.9490   -0.5720 C.ar   48  TYR48      -0.0009
     17  CD2       15.5370   -6.8140    0.9000 C.ar   48  TYR48      -0.0009
     18  CE1       14.8370   -5.7620   -1.5530 C.ar   48  TYR48       0.0417
     19  CE2       15.0040   -7.6370   -0.0770 C.ar   48  TYR48       0.0417
     20  CZ        14.6520   -7.1060   -1.3000 C.ar   48  TYR48       0.1957
     21  OH        14.1190   -7.9260   -2.2690 O.3    48  TYR48      -0.2866
     22  N         19.0270    1.0120    1.8130 N.3    51  SER51      -0.1202
     23  CA        17.9570    1.9380    1.4560 C.3    51  SER51       0.2020
     24  C         17.2550    2.5000    2.6830 C.2    51  SER51       0.2618
     25  O         16.7520    3.6270    2.6390 O.2    51  SER51      -0.2717
     26  CB        16.9540    1.2580    0.5260 C.3    51  SER51       0.2103
     27  OG        17.4110    1.2990   -0.8140 O.3    51  SER51      -0.2182
     28  N         17.2060    1.7410    3.7760 N.am   52  LYS52      -0.1979
     29  CA        16.6110    2.2640    4.9990 C.3    52  LYS52       0.1596
     30  C         17.4690    3.3690    5.6030 C.2    52  LYS52       0.2287
     31  O         16.9360    4.2850    6.2380 O.2    52  LYS52      -0.2864
     32  CB        16.3990    1.1270    6.0020 C.3    52  LYS52       0.0298
     33  CG        15.5140    0.0040    5.4690 C.3    52  LYS52       0.0038
     34  CD        15.2770   -1.0810    6.5080 C.3    52  LYS52       0.0206
     35  CE        14.3710   -2.1750    5.9650 C.3    52  LYS52       0.1093
     36  NZ        15.0560   -3.4940    5.8920 N.3    52  LYS52      -0.1314
     37  N         18.5560   -8.4460   10.9590 N.3    96  GLN96      -0.1245
     38  CA        18.2790   -8.9020    9.6060 C.3    96  GLN96       0.1566
     39  C         18.4980  -10.4050    9.4940 C.2    96  GLN96       0.2260
     40  O         19.4490  -10.9520   10.0560 O.2    96  GLN96      -0.2867
     41  CB        19.1570   -8.1610    8.5990 C.3    96  GLN96       0.0367
     42  CG        18.8540   -6.6500    8.5150 C.3    96  GLN96       0.0905
     43  CD        17.4680   -6.3360    7.9510 C.2    96  GLN96       0.2608
     44  OE1       16.5730   -5.8920    8.6770 O.2    96  GLN96      -0.2717
     45  NE2       17.2960   -6.5430    6.6470 N.am   96  GLN96      -0.0878
     46  N         10.3280   -3.0860   13.9760 N.3   119  ASP119     -0.1239
     47  CA         9.7580   -3.9210   12.9210 C.3   119  ASP119      0.1674
     48  C          8.3580   -4.3980   13.2910 C.2   119  ASP119      0.2266
     49  O          7.5230   -4.6190   12.4060 O.2   119  ASP119     -0.2867
     50  CB        10.6700   -5.1130   12.6480 C.3   119  ASP119      0.1410
     51  CG        10.3520   -5.7960   11.3410 C.2   119  ASP119      0.3668
     52  OD1       10.2570   -5.0920   10.3160 O.co2 119  ASP119     -0.2456
     53  OD2       10.2010   -7.0340   11.3380 O.co2 119  ASP119     -0.2456
     54  N          4.3550   -3.0650    7.6680 N.3   140  THR140     -0.1218
     55  CA         3.5980   -3.0050    6.4200 C.3   140  THR140      0.1862
     56  C          2.1000   -2.9100    6.6650 C.2   140  THR140      0.2287
     57  O          1.4510   -2.0340    6.0650 O.2   140  THR140     -0.2866
     58  CB         3.9740   -4.1890    5.5290 C.3   140  THR140      0.1770
     59  OG1        5.3400   -4.0490    5.1280 O.3   140  THR140     -0.2211
     60  CG2        3.1100   -4.2150    4.2860 C.3   140  THR140      0.0375
     61  N          3.9600  -12.3040    7.9360 N.3   168  ILE168     -0.1245
     62  CA         4.5670  -11.0000    7.6980 C.3   168  ILE168      0.1561
     63  C          3.5430   -9.9530    7.2810 C.2   168  ILE168      0.2260
     64  O          3.7970   -8.7550    7.4440 O.2   168  ILE168     -0.2867
     65  CB         5.6810  -11.0920    6.6400 C.3   168  ILE168      0.0252
     66  CG1        5.1600  -11.7230    5.3450 C.3   168  ILE168      0.0019
     67  CG2        6.8510  -11.9000    7.1770 C.3   168  ILE168      0.0019
     68  CD1        6.0560  -11.4910    4.1440 C.3   168  ILE168      0.0001
     69  N          5.2850   -7.2320   -4.6600 N.3   230  ILE230     -0.1245
     70  CA         6.3570   -6.5780   -5.3990 C.3   230  ILE230      0.1561
     71  C          7.0960   -7.6990   -6.1240 C.2   230  ILE230      0.2260
     72  O          7.9380   -8.3840   -5.5340 O.2   230  ILE230     -0.2867
     73  CB         7.2870   -5.7720   -4.4860 C.3   230  ILE230      0.0252
     74  CG1        6.4820   -4.6990   -3.7410 C.3   230  ILE230      0.0019
     75  CG2        8.3760   -5.1060   -5.2890 C.3   230  ILE230      0.0019
     76  CD1        7.2450   -4.0000   -2.6390 C.3   230  ILE230      0.0001
     77  N          9.3560   -9.1160   -9.2960 N.3   232  ARG232     -0.1245
     78  CA        10.2910   -8.8370  -10.3710 C.3   232  ARG232      0.1563
     79  C          9.9550   -9.7050  -11.5760 C.2   232  ARG232      0.2260
     80  O          9.7970  -10.9240  -11.4560 O.2   232  ARG232     -0.2867
     81  CB        11.7230   -9.1070   -9.9210 C.3   232  ARG232      0.0307
     82  CG        12.7860   -8.7410  -10.9600 C.3   232  ARG232      0.0489
     83  CD        13.0500   -7.2510  -10.9870 C.3   232  ARG232      0.2205
     84  NE        13.4160   -6.7590   -9.6630 N.pl3 232  ARG232     -0.0865
     85  CZ        13.7120   -5.4950   -9.3800 C.cat 232  ARG232      0.5346
     86  NH1       13.6960   -4.5750  -10.3340 N.pl3 232  ARG232      0.1354
     87  NH2       14.0330   -5.1520   -8.1380 N.pl3 232  ARG232      0.1354
     88  N          8.9950   -4.2160  -12.0740 N.3   238  VAL238     -0.1245
     89  CA         8.3480   -4.6250  -10.8370 C.3   238  VAL238      0.1561
     90  C          6.8530   -4.4030  -11.0040 C.2   238  VAL238      0.2260
     91  O          6.4290   -3.3080  -11.3930 O.2   238  VAL238     -0.2867
     92  CB         8.8930   -3.8250   -9.6390 C.3   238  VAL238      0.0252
     93  CG1        8.0080   -3.9600   -8.4640 C.3   238  VAL238      0.0019
     94  CG2       10.3000   -4.2920   -9.2740 C.3   238  VAL238      0.0019
     95  N          2.0040   -0.2710   -8.3430 N.3   257  VAL257     -0.1231
     96  CA         3.2540   -0.9470   -8.0190 C.3   257  VAL257      0.1678
     97  C          4.2170   -0.6950   -9.1740 C.2   257  VAL257      0.2434
     98  O          3.8950   -1.0360  -10.3230 O.2   257  VAL257     -0.2733
     99  CB         3.0440   -2.4510   -7.7880 C.3   257  VAL257      0.0265
    100  CG1        4.3810   -3.1650   -7.6150 C.3   257  VAL257      0.0020
    101  CG2        2.1760   -2.6840   -6.5700 C.3   257  VAL257      0.0020
    102  N          5.4030   -0.1020   -8.9370 N.am  258  PRO258     -0.2718
    103  CA         5.8940    0.3760   -7.6360 C.3   258  PRO258      0.1535
    104  C          5.1630    1.6380   -7.1600 C.2   258  PRO258      0.2599
    105  O          4.3090    2.1450   -7.8810 O.2   258  PRO258     -0.2715
    106  CB         7.3720    0.6830   -7.9060 C.3   258  PRO258      0.0310
    107  CG         7.6670    0.1640   -9.2860 C.3   258  PRO258      0.0237
    108  CD         6.3720    0.1790  -10.0100 C.3   258  PRO258      0.0939
    109  N          5.4880    2.1200   -5.9620 N.am  259  GLY259     -0.1941
    110  CA         5.0130    3.4070   -5.4840 C.3   259  GLY259      0.2014
    111  C          3.7680    3.4060   -4.6150 C.2   259  GLY259      0.2639
    112  O          3.1950    4.4810   -4.3980 O.2   259  GLY259     -0.2714
    113  N          3.3470    2.2550   -4.0970 N.am  260  GLY260     -0.1954
    114  CA         2.1530    2.1780   -3.2760 C.3   260  GLY260      0.1869
    115  C          2.4730    1.7840   -1.8460 C.2   260  GLY260      0.2309
    116  O          2.8320    2.6300   -1.0250 O.2   260  GLY260     -0.2863
    117  N          4.9820   -0.1250   -0.8810 N.3   262  GLY262     -0.1210
    118  CA         6.4150   -0.2150   -0.6930 C.3   262  GLY262      0.1940
    119  C          6.9770    0.9190    0.1370 C.2   262  GLY262      0.2453
    120  O          7.5570    0.7080    1.2070 O.2   262  GLY262     -0.2732
    121  N          6.8100    2.1540   -0.3400 N.am  263  PRO263     -0.2728
    122  CA         7.3440    3.2970    0.4170 C.3   263  PRO263      0.1401
    123  C          6.8070    3.3860    1.8300 C.2   263  PRO263      0.2269
    124  O          7.5030    3.8870    2.7200 O.2   263  PRO263     -0.2865
    125  CB         6.9170    4.5120   -0.4230 C.3   263  PRO263      0.0296
    126  CG         6.6550    3.9810   -1.7870 C.3   263  PRO263      0.0237
    127  CD         6.1810    2.5670   -1.6080 C.3   263  PRO263      0.0939
    128  N          6.1800    1.0010    3.9810 N.3   265  THR265     -0.1203
    129  CA         6.8770    0.1100    4.9060 C.3   265  THR265      0.1994
    130  C          8.0700    0.8130    5.5470 C.2   265  THR265      0.2617
    131  O          8.2390    0.7930    6.7720 O.2   265  THR265     -0.2717
    132  CB         7.3270   -1.1460    4.1600 C.3   265  THR265      0.1784
    133  OG1        6.1810   -1.8180    3.6120 O.3   265  THR265     -0.2211
    134  CG2        8.0810   -2.0850    5.0840 C.3   265  THR265      0.0376
    135  N          8.9030    1.4510    4.7240 N.am  266  VAL266     -0.1979
    136  CA        10.0630    2.1780    5.2290 C.3   266  VAL266      0.1595
    137  C          9.6250    3.3550    6.0870 C.2   266  VAL266      0.2287
    138  O         10.1900    3.6060    7.1600 O.2   266  VAL266     -0.2864
    139  CB        10.9440    2.6440    4.0580 C.3   266  VAL266      0.0276
    140  CG1       12.1680    3.3760    4.5840 C.3   266  VAL266      0.0022
    141  CG2       11.3390    1.4610    3.1850 C.3   266  VAL266      0.0022
    142  N          8.4890    2.1320    9.4650 N.3   269  LEU269     -0.1245
    143  CA         9.6680    1.8210   10.2680 C.3   269  LEU269      0.1561
    144  C         10.2370    3.0850   10.9100 C.2   269  LEU269      0.2260
    145  O         10.5900    3.0860   12.0960 O.2   269  LEU269     -0.2867
    146  CB        10.7090    1.1350    9.3850 C.3   269  LEU269      0.0270
    147  CG        11.9110    0.4950   10.0580 C.3   269  LEU269      0.0019
    148  CD1       11.4910   -0.7250   10.8690 C.3   269  LEU269      0.0001
    149  CD2       12.9260    0.1150    8.9970 C.3   269  LEU269      0.0001
@<TRIPOS>BOND
     1    88    89    1
     2    79    80    2
     3    79    78    1
     4    91    90    2
     5    90    89    1
     6    83    82    1
     7    83    84    1
     8    82    81    1
     9    89    92    1
    10    78    81    1
    11    78    77    1
    12    86    85    1
    13    98    97    2
    14   108   107    1
    15   108   102    1
    16    84    85    2
    17    92    94    1
    18    92    93    1
    19    85    87    1
    20   107   106    1
    21    97   102   am
    22    97    96    1
    23   102   103    1
    24    95    96    1
    25     9     8    1
    26    96    99    1
    27   106   103    1
    28   105   104    2
    29    99   100    1
    30    99   101    1
    31   103   104    1
    32   104   109   am
    33     8     7    1
    34    71    72    2
    35    71    70    1
    36   109   110    1
    37     7     6    1
    38   110   111    1
    39    70    69    1
    40    70    73    1
    41    75    73    1
    42   111   112    2
    43   111   113   am
    44    73    74    1
    45     6     5    1
    46   113   114    1
    47     5     2    1
    48    74    76    1
    49   114   115    1
    50     1     2    1
    51     2     3    1
    52    21    20    1
    53   115   116    2
    54   126   127    1
    55   126   125    1
    56     3     4    2
    57   127   121    1
    58    18    20   ar
    59    18    16   ar
    60    20    19   ar
    61   117   118    1
    62    27    26    1
    63   118   119    1
    64    16    15   ar
    65   125   122    1
    66   121   119   am
    67   121   122    1
    68    19    17   ar
    69   119   120    2
    70   122   123    1
    71    10    11    1
    72    26    23    1
    73    15    17   ar
    74    15    14    1
    75    11    14    1
    76    11    12    1
    77    23    22    1
    78    23    24    1
    79   123   124    2
    80    12    13    2
    81    25    24    2
    82    24    28   am
    83   141   139    1
    84   133   132    1
    85    28    29    1
    86   128   129    1
    87   139   140    1
    88   139   136    1
    89    68    66    1
    90   132   129    1
    91   132   134    1
    92    60    58    1
    93   135   136    1
    94   135   130   am
    95   129   130    1
    96    29    30    1
    97    29    32    1
    98    59    58    1
    99   136   137    1
   100    66    65    1
   101    33    32    1
   102    33    34    1
   103    58    55    1
   104   130   131    2
   105    30    31    2
   106    36    35    1
   107    35    34    1
   108    57    56    2
   109   137   138    2
   110    55    56    1
   111    55    54    1
   112    65    67    1
   113    65    62    1
   114    45    43   am
   115    63    64    2
   116    63    62    1
   117    62    61    1
   118    43    42    1
   119    43    44    2
   120    42    41    1
   121    41    38    1
   122   149   147    1
   123   146   147    1
   124   146   143    1
   125   142   143    1
   126    39    38    1
   127    39    40    2
   128    38    37    1
   129   147   148    1
   130   143   144    1
   131    52    51   ar
   132   144   145    2
   133    53    51   ar
   134    51    50    1
   135    49    48    2
   136    50    47    1
   137    47    48    1
   138    47    46    1
