@<TRIPOS>MOLECULE
tmp/5o25B00.pdb
 92 88 0 0 0
SMALL
GASTEIGER

@<TRIPOS>ATOM
      1  N        -14.6470  -64.7420  107.9990 N.3    58  VAL58      -0.1245
      2  CA       -15.6850  -63.7360  108.2200 C.3    58  VAL58       0.1561
      3  C        -15.9600  -62.9130  106.9670 C.2    58  VAL58       0.2260
      4  O        -17.0030  -62.2570  106.8770 O.2    58  VAL58      -0.2867
      5  CB       -15.3340  -62.7920  109.3960 C.3    58  VAL58       0.0252
      6  CG1      -15.2760  -63.5590  110.7160 C.3    58  VAL58       0.0019
      7  CG2      -14.0330  -62.0320  109.1330 C.3    58  VAL58       0.0019
      8  N        -18.8410  -59.4260  110.4650 N.3   191  ILE191     -0.1231
      9  CA       -17.5940  -59.2450  111.2010 C.3   191  ILE191      0.1692
     10  C        -17.7740  -59.5660  112.6820 C.2   191  ILE191      0.2591
     11  O        -16.8930  -60.1710  113.3060 O.2   191  ILE191     -0.2718
     12  CB       -17.0650  -57.8130  110.9980 C.3   191  ILE191      0.0266
     13  CG1      -16.7750  -57.5440  109.5160 C.3   191  ILE191      0.0019
     14  CG2      -15.8170  -57.5780  111.8390 C.3   191  ILE191      0.0020
     15  CD1      -15.7520  -58.4830  108.8810 C.3   191  ILE191      0.0001
     16  N        -18.9000  -59.1610  113.2720 N.am  192  LEU192     -0.1980
     17  CA       -19.0670  -59.1970  114.7210 C.3   192  LEU192      0.1596
     18  C        -20.0140  -60.2730  115.2210 C.2   192  LEU192      0.2287
     19  O        -19.9670  -60.6010  116.4130 O.2   192  LEU192     -0.2864
     20  CB       -19.5710  -57.8420  115.2290 C.3   192  LEU192      0.0297
     21  CG       -18.6790  -56.6410  114.9080 C.3   192  LEU192      0.0022
     22  CD1      -19.3240  -55.3390  115.3520 C.3   192  LEU192      0.0001
     23  CD2      -17.3240  -56.8300  115.5670 C.3   192  LEU192      0.0001
     24  N        -19.5940  -65.7640  115.2390 N.3   195  LYS195     -0.1245
     25  CA       -18.8470  -66.5630  116.2020 C.3   195  LYS195      0.1561
     26  C        -19.4380  -67.9600  116.3000 C.2   195  LYS195      0.2260
     27  O        -20.6550  -68.1180  116.4220 O.2   195  LYS195     -0.2867
     28  CB       -18.8800  -65.9200  117.5860 C.3   195  LYS195      0.0271
     29  CG       -18.4200  -64.4910  117.6460 C.3   195  LYS195      0.0035
     30  CD       -18.7820  -63.9170  118.9980 C.3   195  LYS195      0.0206
     31  CE       -18.3230  -62.4980  119.1320 C.3   195  LYS195      0.1093
     32  NZ       -19.1510  -61.7400  120.1070 N.3   195  LYS195     -0.1314
     33  N        -17.1540  -71.1970  120.6200 N.3   199  GLN199     -0.1231
     34  CA       -16.3640  -70.1010  121.1720 C.3   199  GLN199      0.1698
     35  C        -16.9610  -69.5780  122.4700 C.2   199  GLN199      0.2592
     36  O        -16.2240  -69.1420  123.3650 O.2   199  GLN199     -0.2718
     37  CB       -16.2580  -68.9730  120.1450 C.3   199  GLN199      0.0381
     38  CG       -15.7600  -67.6500  120.7010 C.3   199  GLN199      0.0905
     39  CD       -15.7700  -66.5320  119.6780 C.2   199  GLN199      0.2608
     40  OE1      -15.8970  -65.3670  120.0370 O.2   199  GLN199     -0.2717
     41  NE2      -15.6470  -66.8760  118.4030 N.am  199  GLN199     -0.0878
     42  N        -18.2880  -69.5980  122.5860 N.am  200  PHE200     -0.1976
     43  CA       -18.9340  -69.0880  123.7910 C.3   200  PHE200      0.1639
     44  C        -18.6730  -69.9940  124.9860 C.2   200  PHE200      0.2290
     45  O        -18.4830  -69.5100  126.1060 O.2   200  PHE200     -0.2864
     46  CB       -20.4310  -68.9260  123.5410 C.3   200  PHE200      0.0560
     47  CG       -20.7570  -67.7760  122.6430 C.ar  200  PHE200     -0.0200
     48  CD1      -20.5340  -67.8620  121.2820 C.ar  200  PHE200     -0.0042
     49  CD2      -21.2650  -66.5990  123.1630 C.ar  200  PHE200     -0.0042
     50  CE1      -20.8200  -66.7980  120.4530 C.ar  200  PHE200     -0.0003
     51  CE2      -21.5550  -65.5330  122.3400 C.ar  200  PHE200     -0.0003
     52  CZ       -21.3310  -65.6300  120.9830 C.ar  200  PHE200     -0.0000
     53  N        -15.0920  -69.2850  125.9250 N.3   203  PHE203     -0.1241
     54  CA       -14.9840  -68.0140  126.6270 C.3   203  PHE203      0.1605
     55  C        -15.4220  -68.1450  128.0770 C.2   203  PHE203      0.2264
     56  O        -14.8490  -67.4920  128.9560 O.2   203  PHE203     -0.2867
     57  CB       -15.8130  -66.9570  125.8980 C.3   203  PHE203      0.0534
     58  CG       -15.5340  -65.5440  126.3330 C.ar  203  PHE203     -0.0203
     59  CD1      -14.2370  -65.0540  126.3670 C.ar  203  PHE203     -0.0042
     60  CD2      -16.5710  -64.6970  126.6760 C.ar  203  PHE203     -0.0042
     61  CE1      -13.9880  -63.7530  126.7510 C.ar  203  PHE203     -0.0003
     62  CE2      -16.3270  -63.3940  127.0570 C.ar  203  PHE203     -0.0003
     63  CZ       -15.0350  -62.9220  127.0980 C.ar  203  PHE203     -0.0000
     64  N         -9.6470  -65.1080  119.1240 N.3   239  ALA239     -0.1231
     65  CA        -8.9170  -63.9100  118.7100 C.3   239  ALA239      0.1694
     66  C         -9.4440  -62.6430  119.3840 C.2   239  ALA239      0.2593
     67  O         -8.6690  -61.7310  119.6960 O.2   239  ALA239     -0.2718
     68  CB        -8.9850  -63.7640  117.1890 C.3   239  ALA239      0.0304
     69  N        -10.7500  -62.5520  119.5950 N.am  240  GLY240     -0.1942
     70  CA       -11.3230  -61.3510  120.1660 C.3   240  GLY240      0.2014
     71  C        -11.4050  -61.3270  121.6760 C.2   240  GLY240      0.2638
     72  O        -11.9900  -60.3910  122.2350 O.2   240  GLY240     -0.2714
     73  N        -10.8270  -62.3180  122.3550 N.am  241  PHE241     -0.1973
     74  CA       -11.0440  -62.4730  123.7920 C.3   241  PHE241      0.1639
     75  C        -10.3210  -61.3950  124.5930 C.2   241  PHE241      0.2290
     76  O        -10.8920  -60.8170  125.5260 O.2   241  PHE241     -0.2864
     77  CB       -10.5780  -63.8590  124.2470 C.3   241  PHE241      0.0560
     78  CG       -11.5240  -64.9910  123.9090 C.ar  241  PHE241     -0.0200
     79  CD1      -12.6850  -64.7840  123.1740 C.ar  241  PHE241     -0.0042
     80  CD2      -11.2390  -66.2770  124.3450 C.ar  241  PHE241     -0.0042
     81  CE1      -13.5340  -65.8370  122.8830 C.ar  241  PHE241     -0.0003
     82  CE2      -12.0850  -67.3290  124.0610 C.ar  241  PHE241     -0.0003
     83  CZ       -13.2330  -67.1100  123.3290 C.ar  241  PHE241     -0.0000
     84  N        -11.9260  -58.0730  124.9960 N.3   244  GLU244     -0.1245
     85  CA       -13.0580  -58.0710  125.9170 C.3   244  GLU244      0.1567
     86  C        -12.5970  -57.8890  127.3540 C.2   244  GLU244      0.2260
     87  O        -13.2540  -57.1980  128.1420 O.2   244  GLU244     -0.2867
     88  CB       -13.8520  -59.3700  125.7800 C.3   244  GLU244      0.0388
     89  CG       -14.7350  -59.4240  124.5520 C.3   244  GLU244      0.1160
     90  CD       -15.8490  -58.3970  124.6040 C.2   244  GLU244      0.3649
     91  OE1      -16.2810  -58.0460  125.7240 O.co2 244  GLU244     -0.2457
     92  OE2      -16.2840  -57.9380  123.5270 O.co2 244  GLU244     -0.2457
@<TRIPOS>BOND
     1     4     3    2
     2     3     2    1
     3     1     2    1
     4     2     5    1
     5    15    13    1
     6     7     5    1
     7     5     6    1
     8    13    12    1
     9     8     9    1
    10    12     9    1
    11    12    14    1
    12     9    10    1
    13    10    16   am
    14    10    11    2
    15    16    17    1
    16    17    18    1
    17    17    20    1
    18    21    20    1
    19    21    22    1
    20    21    23    1
    21    18    19    2
    22    24    25    1
    23    25    26    1
    24    25    28    1
    25    26    27    2
    26    68    65    1
    27    28    29    1
    28    29    30    1
    29    41    39   am
    30    65    64    1
    31    65    66    1
    32    30    31    1
    33    31    32    1
    34    66    69   am
    35    66    67    2
    36    69    70    1
    37    39    40    2
    38    39    38    1
    39    37    38    1
    40    37    34    1
    41    70    71    1
    42    50    52   ar
    43    50    48   ar
    44    33    34    1
    45    52    51   ar
    46    34    35    1
    47    48    47   ar
    48    71    72    2
    49    71    73   am
    50    51    49   ar
    51    73    74    1
    52    35    42   am
    53    35    36    2
    54    42    43    1
    55    47    49   ar
    56    47    46    1
    57    81    79   ar
    58    81    83   ar
    59    79    78   ar
    60    83    82   ar
    61    92    90   ar
    62    46    43    1
    63    43    44    1
    64    74    77    1
    65    74    75    1
    66    78    77    1
    67    78    80   ar
    68    82    80   ar
    69    89    90    1
    70    89    88    1
    71    75    76    2
    72    90    91   ar
    73    44    45    2
    74    84    85    1
    75    88    85    1
    76    57    58    1
    77    57    54    1
    78    85    86    1
    79    53    54    1
    80    58    59   ar
    81    58    60   ar
    82    59    61   ar
    83    54    55    1
    84    60    62   ar
    85    61    63   ar
    86    62    63   ar
    87    86    87    2
    88    55    56    2
