@<TRIPOS>MOLECULE
tmp/5o25A00.pdb
 143 135 0 0 0
SMALL
GASTEIGER

@<TRIPOS>ATOM
      1  N        -35.8900  -49.3170  134.2110 N.3    23  MET23      -0.1245
      2  CA       -34.7890  -50.0840  133.6460 C.3    23  MET23       0.1570
      3  C        -34.1770  -49.2810  132.4950 C.2    23  MET23       0.2261
      4  O        -34.0580  -49.7780  131.3730 O.2    23  MET23      -0.2867
      5  CB       -35.2600  -51.4530  133.1750 C.3    23  MET23       0.0387
      6  CG       -36.1560  -52.1230  134.2050 C.3    23  MET23       0.0595
      7  SD       -36.3740  -53.8950  134.0060 S.3    23  MET23      -0.1393
      8  CE       -37.3850  -53.9740  132.5450 C.3    23  MET23       0.0692
      9  N        -32.2440  -47.4070  129.5800 N.3    25  ASP25      -0.1239
     10  CA       -31.1310  -47.6780  128.6820 C.3    25  ASP25       0.1674
     11  C        -30.5720  -46.3530  128.1590 C.2    25  ASP25       0.2266
     12  O        -30.9740  -45.2650  128.6010 O.2    25  ASP25      -0.2867
     13  CB       -31.5860  -48.6030  127.5530 C.3    25  ASP25       0.1410
     14  CG       -32.8420  -48.1120  126.8600 C.2    25  ASP25       0.3668
     15  OD1      -33.0700  -46.8820  126.8120 O.co2  25  ASP25      -0.2456
     16  OD2      -33.6190  -48.9600  126.3770 O.co2  25  ASP25      -0.2456
     17  N        -43.2990  -47.4320  125.9140 N.3    84  SER84      -0.1217
     18  CA       -44.3750  -47.9320  125.0680 C.3    84  SER84       0.1889
     19  C        -45.6990  -48.1200  125.8000 C.2    84  SER84       0.2288
     20  O        -46.7320  -48.2740  125.1390 O.2    84  SER84      -0.2866
     21  CB       -43.9650  -49.2660  124.4260 C.3    84  SER84       0.2089
     22  OG       -43.3540  -50.1260  125.3710 O.3    84  SER84      -0.2183
     23  N        -44.4520  -48.9190  132.0340 N.3    88  ARG88      -0.1245
     24  CA       -43.0140  -48.7920  131.8420 C.3    88  ARG88       0.1563
     25  C        -42.4430  -47.4880  132.3840 C.2    88  ARG88       0.2260
     26  O        -41.2230  -47.3050  132.3280 O.2    88  ARG88      -0.2867
     27  CB       -42.6710  -48.9280  130.3550 C.3    88  ARG88       0.0307
     28  CG       -43.0880  -50.2660  129.7580 C.3    88  ARG88       0.0489
     29  CD       -41.9130  -51.1110  129.2980 C.3    88  ARG88       0.2205
     30  NE       -40.9160  -51.3510  130.3450 N.pl3  88  ARG88      -0.0865
     31  CZ       -39.6000  -51.1970  130.2000 C.cat  88  ARG88       0.5346
     32  NH1      -39.0750  -50.8020  129.0440 N.pl3  88  ARG88       0.1354
     33  NH2      -38.7920  -51.4550  131.2190 N.pl3  88  ARG88       0.1354
     34  N        -41.4760  -47.2010  119.5080 N.3   107  HIS107     -0.1241
     35  CA       -41.9130  -48.5920  119.5850 C.3   107  HIS107      0.1621
     36  C        -43.2050  -48.7750  118.7950 C.2   107  HIS107      0.2264
     37  O        -44.1770  -48.0460  119.0100 O.2   107  HIS107     -0.2867
     38  CB       -42.1510  -49.0170  121.0380 C.3   107  HIS107      0.0745
     39  CG       -40.9270  -49.0000  121.9020 C.ar  107  HIS107      0.0817
     40  ND1      -40.4950  -47.8710  122.5650 N.ar  107  HIS107     -0.2268
     41  CD2      -40.0630  -49.9860  122.2390 C.ar  107  HIS107      0.1154
     42  CE1      -39.4070  -48.1580  123.2580 C.ar  107  HIS107      0.1986
     43  NE2      -39.1230  -49.4350  123.0770 N.ar  107  HIS107     -0.2212
     44  N        -29.0820  -47.4000  120.9070 N.3   156  ASP156     -0.1239
     45  CA       -30.2230  -48.1310  120.3610 C.3   156  ASP156      0.1674
     46  C        -29.9300  -48.7670  119.0050 C.2   156  ASP156      0.2266
     47  O        -30.7500  -49.5570  118.5210 O.2   156  ASP156     -0.2867
     48  CB       -31.4590  -47.2280  120.2600 C.3   156  ASP156      0.1410
     49  CG       -32.5590  -47.6250  121.2480 C.2   156  ASP156      0.3668
     50  OD1      -32.2660  -48.2880  122.2620 O.co2 156  ASP156     -0.2456
     51  OD2      -33.7320  -47.2840  121.0070 O.co2 156  ASP156     -0.2456
     52  N        -34.4570  -63.0990  132.7700 N.3   257  MET257     -0.1245
     53  CA       -33.7750  -62.4380  133.8780 C.3   257  MET257      0.1570
     54  C        -34.7700  -62.1570  134.9890 C.2   257  MET257      0.2261
     55  O        -35.7790  -61.4820  134.7640 O.2   257  MET257     -0.2867
     56  CB       -33.1190  -61.1340  133.4180 C.3   257  MET257      0.0387
     57  CG       -32.0290  -61.3280  132.3840 C.3   257  MET257      0.0595
     58  SD       -31.4980  -59.7680  131.6520 S.3   257  MET257     -0.1393
     59  CE       -32.7620  -59.5190  130.4060 C.3   257  MET257      0.0692
     60  N        -38.1160  -60.9030  133.5610 N.3   265  HIS265     -0.1226
     61  CA       -38.0540  -60.2010  132.2930 C.3   265  HIS265      0.1752
     62  C        -37.5730  -61.1500  131.2090 C.2   265  HIS265      0.2596
     63  O        -36.7230  -62.0110  131.4530 O.2   265  HIS265     -0.2718
     64  CB       -37.1180  -58.9980  132.3870 C.3   265  HIS265      0.0759
     65  CG       -37.3220  -58.1770  133.6220 C.ar  265  HIS265      0.0818
     66  ND1      -38.3650  -57.2860  133.7610 N.ar  265  HIS265     -0.2268
     67  CD2      -36.6240  -58.1230  134.7800 C.ar  265  HIS265      0.1154
     68  CE1      -38.2950  -56.7140  134.9500 C.ar  265  HIS265      0.1986
     69  NE2      -37.2480  -57.2060  135.5880 N.ar  265  HIS265     -0.2212
     70  N        -38.1440  -61.0050  130.0210 N.am  266  VAL266     -0.1966
     71  CA       -37.6780  -61.7030  128.8320 C.3   266  VAL266      0.1727
     72  C        -37.2120  -60.6530  127.8420 C.2   266  VAL266      0.2616
     73  O        -37.9760  -59.7510  127.4850 O.2   266  VAL266     -0.2715
     74  CB       -38.7720  -62.5810  128.1990 C.3   266  VAL266      0.0290
     75  CG1      -38.1540  -63.4660  127.1150 C.3   266  VAL266      0.0023
     76  CG2      -39.4840  -63.4060  129.2580 C.3   266  VAL266      0.0023
     77  N        -35.9660  -60.7740  127.3990 N.am  267  SER267     -0.1950
     78  CA       -35.3850  -59.8670  126.4230 C.3   267  SER267      0.1924
     79  C        -35.0550  -60.6640  125.1720 C.2   267  SER267      0.2314
     80  O        -34.4630  -61.7440  125.2620 O.2   267  SER267     -0.2863
     81  CB       -34.1370  -59.1900  126.9920 C.3   267  SER267      0.2116
     82  OG       -33.6610  -58.1830  126.1230 O.3   267  SER267     -0.2180
     83  N        -33.7450  -60.4770  120.9550 N.3   269  ARG269     -0.1245
     84  CA       -33.0860  -59.7610  119.8710 C.3   269  ARG269      0.1563
     85  C        -33.0150  -60.6850  118.6710 C.2   269  ARG269      0.2260
     86  O        -32.6350  -61.8510  118.8150 O.2   269  ARG269     -0.2867
     87  CB       -31.6750  -59.3140  120.2650 C.3   269  ARG269      0.0307
     88  CG       -31.6100  -58.4310  121.4850 C.3   269  ARG269      0.0489
     89  CD       -32.0780  -57.0210  121.1960 C.3   269  ARG269      0.2205
     90  NE       -31.8230  -56.1610  122.3480 N.pl3 269  ARG269     -0.0865
     91  CZ       -32.6610  -55.9980  123.3690 C.cat 269  ARG269      0.5346
     92  NH1      -33.8320  -56.6230  123.3920 N.pl3 269  ARG269      0.1354
     93  NH2      -32.3240  -55.2000  124.3740 N.pl3 269  ARG269      0.1354
     94  N        -46.0200  -57.6530  126.3540 N.3   285  GLY285     -0.1210
     95  CA       -44.9590  -56.6680  126.3240 C.3   285  GLY285      0.1956
     96  C        -44.9570  -55.9040  125.0180 C.2   285  GLY285      0.2612
     97  O        -46.0230  -55.5810  124.4890 O.2   285  GLY285     -0.2717
     98  N        -43.7760  -55.6140  124.4880 N.am  286  GLY286     -0.1942
     99  CA       -43.6870  -54.9010  123.2290 C.3   286  GLY286      0.2014
    100  C        -42.2450  -54.6360  122.8620 C.2   286  GLY286      0.2639
    101  O        -41.3190  -55.1700  123.4750 O.2   286  GLY286     -0.2714
    102  N        -42.0650  -53.8000  121.8590 N.am  287  GLY287     -0.1939
    103  CA       -40.7350  -53.4560  121.4120 C.3   287  GLY287      0.2014
    104  C        -40.7170  -53.1530  119.9180 C.2   287  GLY287      0.2638
    105  O        -41.6640  -52.5820  119.3740 O.2   287  GLY287     -0.2714
    106  N        -39.6200  -53.5500  119.2860 N.am  288  HIS288     -0.1973
    107  CA       -39.3260  -53.2940  117.8890 C.3   288  HIS288      0.1656
    108  C        -39.2070  -54.6130  117.1400 C.2   288  HIS288      0.2291
    109  O        -39.0680  -55.6760  117.7580 O.2   288  HIS288     -0.2864
    110  CB       -38.0150  -52.5070  117.7440 C.3   288  HIS288      0.0771
    111  CG       -37.9080  -51.3370  118.6710 C.ar  288  HIS288      0.0820
    112  ND1      -38.5580  -50.1430  118.4430 N.ar  288  HIS288     -0.2267
    113  CD2      -37.2260  -51.1780  119.8300 C.ar  288  HIS288      0.1154
    114  CE1      -38.2830  -49.3010  119.4220 C.ar  288  HIS288      0.1986
    115  NE2      -37.4770  -49.9040  120.2770 N.ar  288  HIS288     -0.2212
    116  N        -35.9460  -56.1190  118.4230 N.3   291  ALA291     -0.1231
    117  CA       -35.6000  -56.0210  119.8380 C.3   291  ALA291      0.1694
    118  C        -36.8750  -55.7550  120.6160 C.2   291  ALA291      0.2592
    119  O        -37.5180  -54.7170  120.4170 O.2   291  ALA291     -0.2718
    120  CB       -34.5730  -54.9150  120.0810 C.3   291  ALA291      0.0304
    121  N        -37.2310  -56.6770  121.5040 N.am  292  ALA292     -0.1966
    122  CA       -38.4810  -56.5920  122.2380 C.3   292  ALA292      0.1728
    123  C        -38.3190  -57.3020  123.5750 C.2   292  ALA292      0.2617
    124  O        -37.3680  -58.0530  123.7990 O.2   292  ALA292     -0.2715
    125  CB       -39.6370  -57.1900  121.4290 C.3   292  ALA292      0.0334
    126  N        -39.2670  -57.0570  124.4700 N.am  293  GLY293     -0.1940
    127  CA       -39.2170  -57.7110  125.7620 C.3   293  GLY293      0.2014
    128  C        -40.5670  -57.6800  126.4340 C.2   293  GLY293      0.2639
    129  O        -41.5040  -57.0170  125.9830 O.2   293  GLY293     -0.2714
    130  N        -40.6510  -58.4310  127.5290 N.am  294  VAL294     -0.1963
    131  CA       -41.8460  -58.4680  128.3580 C.3   294  VAL294      0.1727
    132  C        -41.4060  -58.7020  129.7930 C.2   294  VAL294      0.2616
    133  O        -40.3670  -59.3180  130.0530 O.2   294  VAL294     -0.2715
    134  CB       -42.8400  -59.5520  127.8700 C.3   294  VAL294      0.0290
    135  CG1      -42.1630  -60.9070  127.7920 C.3   294  VAL294      0.0023
    136  CG2      -44.0770  -59.6020  128.7640 C.3   294  VAL294      0.0023
    137  N        -42.1880  -58.1750  130.7290 N.am  295  THR295     -0.1951
    138  CA       -41.9600  -58.3720  132.1510 C.3   295  THR295      0.1897
    139  C        -43.1770  -59.0660  132.7410 C.2   295  THR295      0.2313
    140  O        -44.3120  -58.6350  132.5140 O.2   295  THR295     -0.2863
    141  CB       -41.7060  -57.0430  132.8720 C.3   295  THR295      0.1794
    142  OG1      -40.4950  -56.4530  132.3810 O.3   295  THR295     -0.2208
    143  CG2      -41.5820  -57.2570  134.3780 C.3   295  THR295      0.0378
@<TRIPOS>BOND
     1   108   109    2
     2   108   107    1
     3   110   107    1
     4   110   111    1
     5   107   106    1
     6   116   117    1
     7   112   111   ar
     8   112   114   ar
     9    47    46    2
    10   111   113   ar
    11    85    86    2
    12    85    84    1
    13    36    37    2
    14    36    35    1
    15    46    45    1
    16   106   104   am
    17   105   104    2
    18   114   115   ar
    19    34    35    1
    20    35    38    1
    21   113   115   ar
    22   117   120    1
    23   117   118    1
    24    84    87    1
    25    84    83    1
    26   104   103    1
    27    48    45    1
    28    48    49    1
    29    87    88    1
    30    45    44    1
    31   119   118    2
    32   118   121   am
    33    51    49   ar
    34    38    39    1
    35    89    88    1
    36    89    90    1
    37    49    50   ar
    38   103   102    1
    39   125   122    1
    40   121   122    1
    41   102   100   am
    42    39    41   ar
    43    39    40   ar
    44   122   123    1
    45    41    43   ar
    46    90    91    2
    47    40    42   ar
    48   100    99    1
    49   100   101    2
    50    43    42   ar
    51    99    98    1
    52    91    92    1
    53    91    93    1
    54   123   124    2
    55   123   126   am
    56    21    18    1
    57    21    22    1
    58   126   127    1
    59    98    96   am
    60    97    96    2
    61    96    95    1
    62    18    19    1
    63    18    17    1
    64    20    19    2
    65    79    80    2
    66    79    78    1
    67   127   128    1
    68   129   128    2
    69    82    81    1
    70    95    94    1
    71    16    14   ar
    72    78    81    1
    73    78    77    1
    74   128   130   am
    75    15    14   ar
    76    14    13    1
    77    75    74    1
    78    77    72   am
    79    73    72    2
    80   130   131    1
    81    13    10    1
    82   135   134    1
    83    72    71    1
    84   134   131    1
    85   134   136    1
    86    11    12    2
    87    11    10    1
    88    74    71    1
    89    74    76    1
    90   131   132    1
    91    10     9    1
    92    71    70    1
    93    32    31    1
    94    29    28    1
    95    29    30    1
    96    28    27    1
    97   132   133    2
    98   132   137   am
    99    70    62   am
   100    31    30    2
   101    31    33    1
   102    27    24    1
   103    59    58    1
   104   137   138    1
   105    62    63    2
   106    62    61    1
   107     4     3    2
   108    58    57    1
   109    24    23    1
   110    24    25    1
   111   138   139    1
   112   138   141    1
   113    61    64    1
   114    61    60    1
   115    26    25    2
   116   142   141    1
   117    57    56    1
   118    64    65    1
   119     3     2    1
   120   140   139    2
   121     8     7    1
   122    52    53    1
   123   141   143    1
   124     5     2    1
   125     5     6    1
   126    56    53    1
   127    65    66   ar
   128    65    67   ar
   129     2     1    1
   130    66    68   ar
   131    53    54    1
   132     7     6    1
   133    55    54    2
   134    67    69   ar
   135    68    69   ar
