@<TRIPOS>MOLECULE
tmp/5o2bB00.pdb
 175 163 0 0 0
SMALL
GASTEIGER

@<TRIPOS>ATOM
      1  N        -32.2770   -8.0970   -3.0020 N.3    19  LEU19      -0.1231
      2  CA       -30.9170   -8.0070   -3.5110 C.3    19  LEU19       0.1693
      3  C        -30.8480   -7.2580   -4.8340 C.2    19  LEU19       0.2593
      4  O        -29.9000   -6.5040   -5.0610 O.2    19  LEU19      -0.2718
      5  CB       -30.3220   -9.4050   -3.6700 C.3    19  LEU19       0.0284
      6  CG       -30.1120  -10.0610   -2.3050 C.3    19  LEU19       0.0019
      7  CD1      -29.6100  -11.4780   -2.4710 C.3    19  LEU19       0.0001
      8  CD2      -29.1630   -9.2440   -1.4150 C.3    19  LEU19       0.0001
      9  N        -31.8410   -7.4440   -5.6970 N.am   20  GLY20      -0.1942
     10  CA       -31.8380   -6.8110   -7.0010 C.3    20  GLY20       0.2014
     11  C        -33.1800   -7.0010   -7.6640 C.2    20  GLY20       0.2639
     12  O        -33.9930   -7.8330   -7.2410 O.2    20  GLY20      -0.2714
     13  N        -33.4160   -6.2060   -8.7020 N.am   21  ARG21      -0.1963
     14  CA       -34.6180   -6.4040   -9.4940 C.3    21  ARG21       0.1729
     15  C        -34.3710   -5.8960  -10.9020 C.2    21  ARG21       0.2617
     16  O        -33.5160   -5.0390  -11.1280 O.2    21  ARG21      -0.2715
     17  CB       -35.8600   -5.7460   -8.8600 C.3    21  ARG21       0.0348
     18  CG       -36.0090   -4.2730   -9.0550 C.3    21  ARG21       0.0492
     19  CD       -37.4270   -3.8510   -8.6470 C.3    21  ARG21       0.2205
     20  NE       -37.6110   -3.7710   -7.1960 N.pl3  21  ARG21      -0.0865
     21  CZ       -38.7070   -3.2850   -6.6140 C.cat  21  ARG21       0.5346
     22  NH1      -39.7120   -2.8480   -7.3600 N.pl3  21  ARG21       0.1354
     23  NH2      -38.8000   -3.2290   -5.2880 N.pl3  21  ARG21       0.1354
     24  N        -35.0870   -6.4850  -11.8480 N.am   22  GLY22      -0.1940
     25  CA       -34.9660   -6.1380  -13.2430 C.3    22  GLY22       0.2014
     26  C        -35.4490   -7.2480  -14.1450 C.2    22  GLY22       0.2638
     27  O        -35.4850   -8.4220  -13.7430 O.2    22  GLY22      -0.2714
     28  N        -35.8260   -6.8870  -15.3700 N.am   23  ALA23      -0.1977
     29  CA       -36.2510   -7.8600  -16.3680 C.3    23  ALA23       0.1597
     30  C        -37.3260   -8.7880  -15.8070 C.2    23  ALA23       0.2287
     31  O        -37.2450  -10.0100  -15.9350 O.2    23  ALA23      -0.2864
     32  CB       -35.0550   -8.6690  -16.8830 C.3    23  ALA23       0.0319
     33  N        -37.9400   -9.7400  -12.8690 N.3    25  LYS25      -0.1245
     34  CA       -37.5200  -10.5190  -11.7110 C.3    25  LYS25       0.1561
     35  C        -37.3430   -9.5920  -10.5160 C.2    25  LYS25       0.2260
     36  O        -36.8030   -8.4910  -10.6540 O.2    25  LYS25      -0.2867
     37  CB       -36.1740  -11.2510  -11.9580 C.3    25  LYS25       0.0271
     38  CG       -36.1240  -12.1580  -13.1770 C.3    25  LYS25       0.0035
     39  CD       -34.7430  -12.7990  -13.3290 C.3    25  LYS25       0.0206
     40  CE       -33.6890  -11.8050  -13.8820 C.3    25  LYS25       0.1093
     41  NZ       -32.2750  -12.3570  -13.8920 N.3    25  LYS25      -0.1314
     42  N        -35.3890  -10.3070   -6.8840 N.3    27  VAL27      -0.1245
     43  CA       -34.5700  -11.3180   -6.2060 C.3    27  VAL27       0.1561
     44  C        -34.3610  -10.8740   -4.7630 C.2    27  VAL27       0.2260
     45  O        -33.9100   -9.7450   -4.4920 O.2    27  VAL27      -0.2867
     46  CB       -33.2400  -11.5620   -6.9480 C.3    27  VAL27       0.0252
     47  CG1      -32.3200  -12.5500   -6.2250 C.3    27  VAL27       0.0019
     48  CG2      -33.5220  -12.0830   -8.3610 C.3    27  VAL27       0.0019
     49  N        -30.6220  -17.3950   -3.8040 N.3    40  ALA40      -0.1245
     50  CA       -31.3580  -16.3390   -4.4670 C.3    40  ALA40       0.1562
     51  C        -32.7910  -16.8100   -4.5910 C.2    40  ALA40       0.2260
     52  O        -33.0520  -17.8420   -5.2170 O.2    40  ALA40      -0.2867
     53  CB       -30.7910  -16.0290   -5.8580 C.3    40  ALA40       0.0290
     54  N        -36.0410  -15.8460   -6.2510 N.3    42  CYS42      -0.1235
     55  CA       -36.4420  -15.0100   -7.3690 C.3    42  CYS42       0.1677
     56  C        -37.9480  -15.1280   -7.5830 C.2    42  CYS42       0.2270
     57  O        -38.4740  -16.2330   -7.7320 O.2    42  CYS42      -0.2867
     58  CB       -35.6600  -15.4140   -8.6220 C.3    42  CYS42       0.0956
     59  SG       -33.8690  -15.7820   -8.2870 S.3    42  CYS42      -0.0801
     60  N        -41.1290  -14.1180  -10.0650 N.3    44  LEU44      -0.1245
     61  CA       -41.6380  -13.5770  -11.3290 C.3    44  LEU44       0.1561
     62  C        -43.1460  -13.4370  -11.2190 C.2    44  LEU44       0.2260
     63  O        -43.8360  -14.4430  -11.0430 O.2    44  LEU44      -0.2867
     64  CB       -41.3320  -14.4780  -12.5140 C.3    44  LEU44       0.0270
     65  CG       -40.0560  -15.2780  -12.6070 C.3    44  LEU44       0.0019
     66  CD1      -40.1710  -16.2480  -13.7970 C.3    44  LEU44       0.0001
     67  CD2      -38.9390  -14.3400  -12.8010 C.3    44  LEU44       0.0001
     68  N        -25.0440  -21.0460  -13.2460 N.3    70  VAL70      -0.1245
     69  CA       -25.7410  -20.7110  -12.0060 C.3    70  VAL70       0.1561
     70  C        -26.5860  -21.9120  -11.5960 C.2    70  VAL70       0.2260
     71  O        -27.4290  -22.3780  -12.3680 O.2    70  VAL70      -0.2867
     72  CB       -26.6140  -19.4560  -12.1980 C.3    70  VAL70       0.0252
     73  CG1      -27.4570  -19.1900  -10.9460 C.3    70  VAL70       0.0019
     74  CG2      -25.7610  -18.1930  -12.5360 C.3    70  VAL70       0.0019
     75  N        -29.4560  -24.1860  -10.2810 N.3    72  PHE72      -0.1241
     76  CA       -30.9090  -24.1210  -10.1640 C.3    72  PHE72       0.1605
     77  C        -31.3620  -25.1020   -9.0840 C.2    72  PHE72       0.2264
     78  O        -31.0610  -26.2950   -9.1740 O.2    72  PHE72      -0.2867
     79  CB       -31.5580  -24.4490  -11.5140 C.3    72  PHE72       0.0534
     80  CG       -33.0610  -24.5430  -11.4530 C.ar   72  PHE72      -0.0203
     81  CD1      -33.6820  -25.7650  -11.2700 C.ar   72  PHE72      -0.0042
     82  CD2      -33.8360  -23.4090  -11.5250 C.ar   72  PHE72      -0.0042
     83  CE1      -35.0440  -25.8620  -11.1940 C.ar   72  PHE72      -0.0003
     84  CE2      -35.2250  -23.4930  -11.4310 C.ar   72  PHE72      -0.0003
     85  CZ       -35.8260  -24.7210  -11.2730 C.ar   72  PHE72      -0.0000
     86  N        -38.4520  -19.0190   -8.1610 N.3    88  LEU88      -0.1245
     87  CA       -37.3320  -19.8560   -8.5740 C.3    88  LEU88       0.1561
     88  C        -36.2040  -19.6690   -7.5730 C.2    88  LEU88       0.2260
     89  O        -35.8140  -18.5280   -7.2810 O.2    88  LEU88      -0.2867
     90  CB       -36.8330  -19.4650   -9.9570 C.3    88  LEU88       0.0270
     91  CG       -37.8950  -19.5400  -11.0440 C.3    88  LEU88       0.0019
     92  CD1      -38.4490  -18.1560  -11.2500 C.3    88  LEU88       0.0001
     93  CD2      -37.3000  -20.0660  -12.3280 C.3    88  LEU88       0.0001
     94  N        -32.2770  -20.2130   -6.8840 N.3    90  THR90      -0.1203
     95  CA       -31.0260  -20.4740   -7.5850 C.3    90  THR90       0.1994
     96  C        -29.8550  -20.1000   -6.6750 C.2    90  THR90       0.2618
     97  O        -30.0200  -19.5180   -5.6010 O.2    90  THR90      -0.2717
     98  CB       -30.9180  -19.6760   -8.9100 C.3    90  THR90       0.1784
     99  OG1      -30.6860  -18.2960   -8.6030 O.3    90  THR90      -0.2211
    100  CG2      -32.1960  -19.7450   -9.7760 C.3    90  THR90       0.0376
    101  N        -28.6550  -20.4480   -7.1250 N.am   91  GLU91      -0.1965
    102  CA       -27.4380  -19.9860   -6.4860 C.3    91  GLU91       0.1733
    103  C        -27.4190  -18.4550   -6.4380 C.2    91  GLU91       0.2616
    104  O        -27.8530  -17.7890   -7.3780 O.2    91  GLU91      -0.2715
    105  CB       -26.2480  -20.5020   -7.2990 C.3    91  GLU91       0.0429
    106  CG       -24.9270  -19.9930   -6.8800 C.3    91  GLU91       0.1163
    107  CD       -23.8010  -20.6090   -7.7140 C.2    91  GLU91       0.3649
    108  OE1      -24.0490  -21.4370   -8.6440 O.co2  91  GLU91      -0.2457
    109  OE2      -22.6600  -20.2550   -7.4240 O.co2  91  GLU91      -0.2457
    110  N        -26.8940  -17.9000   -5.3530 N.am   92  LEU92      -0.1963
    111  CA       -26.8790  -16.4520   -5.1510 C.3    92  LEU92       0.1728
    112  C        -25.5760  -15.9190   -5.7190 C.2    92  LEU92       0.2616
    113  O        -24.5000  -16.3270   -5.2710 O.2    92  LEU92      -0.2715
    114  CB       -26.9940  -16.1040   -3.6610 C.3    92  LEU92       0.0311
    115  CG       -26.9520  -14.6160   -3.2470 C.3    92  LEU92       0.0022
    116  CD1      -27.7700  -13.7930   -4.1970 C.3    92  LEU92       0.0001
    117  CD2      -27.5090  -14.4680   -1.8310 C.3    92  LEU92       0.0001
    118  N        -25.6690  -15.0500   -6.7340 N.am   93  MET93      -0.1977
    119  CA       -24.4890  -14.4470   -7.3580 C.3    93  MET93       0.1605
    120  C        -24.3760  -13.0240   -6.7980 C.2    93  MET93       0.2287
    121  O        -25.1200  -12.1320   -7.2080 O.2    93  MET93      -0.2864
    122  CB       -24.6220  -14.4480   -8.8800 C.3    93  MET93       0.0413
    123  CG       -24.8880  -15.7870   -9.5110 C.3    93  MET93       0.0598
    124  SD       -23.5740  -16.9690   -9.1440 S.3    93  MET93      -0.1393
    125  CE       -22.1180  -16.1910   -9.8780 C.3    93  MET93       0.0692
    126  N        -24.4710   -9.6580   -8.8690 N.3    96  GLY96      -0.1210
    127  CA       -25.4370   -9.4540   -9.9330 C.3    96  GLY96       0.1956
    128  C        -24.8700   -9.8180  -11.2980 C.2    96  GLY96       0.2612
    129  O        -24.0480  -10.7240  -11.4370 O.2    96  GLY96      -0.2717
    130  N        -25.3090   -9.0910  -12.3180 N.am   97  THR97      -0.1952
    131  CA       -24.9560   -9.4520  -13.6830 C.3    97  THR97       0.1897
    132  C        -23.6230   -8.8280  -14.0770 C.2    97  THR97       0.2313
    133  O        -23.1900   -7.8300  -13.5020 O.2    97  THR97      -0.2863
    134  CB       -26.0230   -8.9920  -14.6660 C.3    97  THR97       0.1794
    135  OG1      -26.0200   -7.5620  -14.7070 O.3    97  THR97      -0.2208
    136  CG2      -27.4220   -9.4820  -14.2290 C.3    97  THR97       0.0378
    137  N        -23.5330  -13.8030  -14.7790 N.3   145  PHE145     -0.1241
    138  CA       -23.4920  -13.3330  -13.4010 C.3   145  PHE145      0.1605
    139  C        -22.0970  -13.5040  -12.8140 C.2   145  PHE145      0.2264
    140  O        -21.2700  -14.2780  -13.3070 O.2   145  PHE145     -0.2867
    141  CB       -24.5300  -14.0600  -12.5270 C.3   145  PHE145      0.0534
    142  CG       -25.9350  -13.8490  -12.9830 C.ar  145  PHE145     -0.0203
    143  CD1      -26.4530  -14.5810  -14.0540 C.ar  145  PHE145     -0.0042
    144  CD2      -26.7330  -12.8880  -12.3820 C.ar  145  PHE145     -0.0042
    145  CE1      -27.7610  -14.3330  -14.5240 C.ar  145  PHE145     -0.0003
    146  CE2      -28.0460  -12.6500  -12.8260 C.ar  145  PHE145     -0.0003
    147  CZ       -28.5570  -13.3710  -13.8960 C.ar  145  PHE145     -0.0000
    148  N        -26.4120  -17.6620  -16.4480 N.3   156  GLY156     -0.1210
    149  CA       -27.6490  -17.8180  -15.7050 C.3   156  GLY156      0.1956
    150  C        -28.8860  -17.6080  -16.5500 C.2   156  GLY156      0.2612
    151  O        -28.8110  -17.6060  -17.7810 O.2   156  GLY156     -0.2717
    152  N        -30.0340  -17.4390  -15.8910 N.am  157  ASP157     -0.1959
    153  CA       -31.3080  -17.2370  -16.5700 C.3   157  ASP157      0.1840
    154  C        -31.6040  -18.3510  -17.5760 C.2   157  ASP157      0.2621
    155  O        -32.3000  -18.1510  -18.5710 O.2   157  ASP157     -0.2715
    156  CB       -31.3530  -15.8630  -17.2300 C.3   157  ASP157      0.1450
    157  CG       -31.5090  -14.7490  -16.2100 C.2   157  ASP157      0.3671
    158  OD1      -31.9060  -15.0440  -15.0570 O.co2 157  ASP157     -0.2456
    159  OD2      -31.2210  -13.5850  -16.5410 O.co2 157  ASP157     -0.2456
    160  N        -31.0820  -19.5360  -17.3140 N.am  158  LEU158     -0.1977
    161  CA       -31.3500  -20.6720  -18.1850 C.3   158  LEU158      0.1596
    162  C        -32.8390  -20.9880  -18.1980 C.2   158  LEU158      0.2287
    163  O        -33.4630  -21.1170  -17.1400 O.2   158  LEU158     -0.2864
    164  CB       -30.5760  -21.8940  -17.7100 C.3   158  LEU158      0.0297
    165  CG       -29.2320  -22.1970  -18.3600 C.3   158  LEU158      0.0022
    166  CD1      -28.7130  -23.4940  -17.7720 C.3   158  LEU158      0.0001
    167  CD2      -29.4140  -22.3100  -19.8620 C.3   158  LEU158      0.0001
    168  N        -35.3360  -19.2060  -18.8310 N.3   160  LEU160     -0.1245
    169  CA       -36.2680  -18.1150  -18.5650 C.3   160  LEU160      0.1561
    170  C        -37.0420  -17.7020  -19.8080 C.2   160  LEU160      0.2260
    171  O        -38.1420  -17.1480  -19.6820 O.2   160  LEU160     -0.2867
    172  CB       -35.5350  -16.8990  -18.0020 C.3   160  LEU160      0.0270
    173  CG       -35.4380  -16.7940  -16.4840 C.3   160  LEU160      0.0019
    174  CD1      -35.0040  -15.3910  -16.0970 C.3   160  LEU160      0.0001
    175  CD2      -36.7820  -17.1420  -15.8470 C.3   160  LEU160      0.0001
@<TRIPOS>BOND
     1   167   165    1
     2   170   171    2
     3   170   169    1
     4   168   169    1
     5   155   154    2
     6   169   172    1
     7   165   166    1
     8   165   164    1
     9   162   161    1
    10   162   163    2
    11   161   164    1
    12   161   160    1
    13   172   173    1
    14   151   150    2
    15   154   160   am
    16   154   153    1
    17   156   153    1
    18   156   157    1
    19    32    29    1
    20   153   152    1
    21   150   152   am
    22   150   149    1
    23   159   157   ar
    24   173   174    1
    25   173   175    1
    26   148   149    1
    27    29    30    1
    28    29    28    1
    29   157   158   ar
    30    31    30    2
    31    28    26   am
    32   137   138    1
    33   135   134    1
    34   134   136    1
    35   134   131    1
    36   145   143   ar
    37   145   147   ar
    38    26    27    2
    39    26    25    1
    40   132   131    1
    41   132   133    2
    42   143   142   ar
    43   147   146   ar
    44    41    40    1
    45    40    39    1
    46    66    65    1
    47   131   130    1
    48   138   139    1
    49   138   141    1
    50    39    38    1
    51   140   139    2
    52    68    69    1
    53    25    24    1
    54    38    37    1
    55   142   141    1
    56   142   144   ar
    57    33    34    1
    58   146   144   ar
    59    67    65    1
    60    65    64    1
    61    74    72    1
    62    64    61    1
    63    71    70    2
    64    93    91    1
    65   130   128   am
    66    72    69    1
    67    72    73    1
    68    69    70    1
    69    37    34    1
    70    24    15   am
    71    34    35    1
    72    82    80   ar
    73    82    84   ar
    74    79    80    1
    75    79    76    1
    76    80    81   ar
    77   129   128    2
    78    84    85   ar
    79    61    62    1
    80    61    60    1
    81   128   127    1
    82    85    83   ar
    83    81    83   ar
    84    92    91    1
    85    62    63    2
    86    16    15    2
    87    91    90    1
    88    15    14    1
    89    36    35    2
    90    75    76    1
    91    76    77    1
    92    90    87    1
    93   127   126    1
    94   125   124    1
    95   100    98    1
    96   123   124    1
    97   123   122    1
    98    14    17    1
    99    14    13    1
   100    78    77    2
   101    18    17    1
   102    18    19    1
   103    98    99    1
   104    98    95    1
   105   122   119    1
   106    13    11   am
   107    19    20    1
   108   108   107   ar
   109    58    59    1
   110    58    55    1
   111    87    86    1
   112    87    88    1
   113    48    46    1
   114    57    56    2
   115   107   109   ar
   116   107   106    1
   117    11    12    2
   118    11    10    1
   119    95    94    1
   120    95    96    1
   121    56    55    1
   122    88    89    2
   123   104   103    2
   124    55    54    1
   125    22    21    1
   126   119   120    1
   127   119   118    1
   128   105   106    1
   129   105   102    1
   130   121   120    2
   131    20    21    2
   132   101    96   am
   133   101   102    1
   134    10     9    1
   135    46    47    1
   136    46    43    1
   137    42    43    1
   138   118   112   am
   139    96    97    2
   140    21    23    1
   141   102   103    1
   142   103   110   am
   143    43    44    1
   144    53    50    1
   145   112   113    2
   146   112   111    1
   147     9     3   am
   148   110   111    1
   149    52    51    2
   150   111   114    1
   151     4     3    2
   152     3     2    1
   153    44    45    2
   154    51    50    1
   155    50    49    1
   156   116   115    1
   157     5     2    1
   158     5     6    1
   159   114   115    1
   160     2     1    1
   161   115   117    1
   162     7     6    1
   163     6     8    1
