@<TRIPOS>MOLECULE
tmp/5o2dA00.pdb
 181 172 0 0 0
SMALL
GASTEIGER

@<TRIPOS>ATOM
      1  N         22.3270  -30.3780  -24.8260 N.3    31  VAL31      -0.1231
      2  CA        22.8960  -29.5380  -25.8820 C.3    31  VAL31       0.1692
      3  C         24.2570  -29.0390  -25.4140 C.2    31  VAL31       0.2592
      4  O         24.3950  -28.5840  -24.2940 O.2    31  VAL31      -0.2718
      5  CB        21.9660  -28.3690  -26.2470 C.3    31  VAL31       0.0266
      6  CG1       22.4660  -27.6260  -27.4730 C.3    31  VAL31       0.0020
      7  CG2       20.5720  -28.9060  -26.5210 C.3    31  VAL31       0.0020
      8  N         25.2640  -29.1830  -26.2640 N.am   32  ASN32      -0.1960
      9  CA        26.6020  -28.7090  -25.9950 C.3    32  ASN32       0.1819
     10  C         26.9300  -27.5790  -26.9750 C.2    32  ASN32       0.2622
     11  O         26.3870  -27.5270  -28.0870 O.2    32  ASN32      -0.2715
     12  CB        27.5650  -29.8890  -26.1530 C.3    32  ASN32       0.1195
     13  CG        28.9840  -29.5660  -25.7350 C.2    32  ASN32       0.2630
     14  OD1       29.2060  -28.6860  -24.8930 O.2    32  ASN32      -0.2716
     15  ND2       29.9430  -30.3300  -26.2610 N.am   32  ASN32      -0.0877
     16  N         27.8270  -26.6880  -26.5770 N.am   33  SER33      -0.1950
     17  CA        28.3180  -25.6280  -27.4440 C.3    33  SER33       0.1924
     18  C         29.7540  -25.9240  -27.7960 C.2    33  SER33       0.2314
     19  O         30.5820  -26.0770  -26.8920 O.2    33  SER33      -0.2863
     20  CB        28.2670  -24.3090  -26.7240 C.3    33  SER33       0.2116
     21  OG        28.7890  -23.2710  -27.5230 O.3    33  SER33      -0.2180
     22  N         26.3530  -28.0450  -30.8680 N.3    91  VAL91      -0.1245
     23  CA        26.0110  -26.9390  -31.7460 C.3    91  VAL91       0.1561
     24  C         27.1370  -25.9160  -31.7950 C.2    91  VAL91       0.2260
     25  O         27.7640  -25.6350  -30.7780 O.2    91  VAL91      -0.2867
     26  CB        24.7000  -26.2660  -31.2880 C.3    91  VAL91       0.0252
     27  CG1       23.6540  -27.3060  -30.9590 C.3    91  VAL91       0.0019
     28  CG2       24.9360  -25.3770  -30.0980 C.3    91  VAL91       0.0019
     29  N         27.6960  -22.3660  -31.7180 N.3    93  ALA93      -0.1245
     30  CA        26.9140  -21.2140  -31.3510 C.3    93  ALA93       0.1562
     31  C         27.4920  -20.0330  -32.1270 C.2    93  ALA93       0.2260
     32  O         28.6700  -20.0650  -32.5070 O.2    93  ALA93      -0.2867
     33  CB        27.0160  -20.9540  -29.8480 C.3    93  ALA93       0.0290
     34  N         20.5930  -17.5770  -32.1250 N.3   107  MET107     -0.1245
     35  CA        20.3930  -18.4030  -30.9330 C.3   107  MET107      0.1570
     36  C         18.9680  -18.9340  -30.8360 C.2   107  MET107      0.2261
     37  O         18.7610  -20.0920  -30.4740 O.2   107  MET107     -0.2867
     38  CB        20.7190  -17.6240  -29.6420 C.3   107  MET107      0.0387
     39  CG        22.1550  -17.6640  -29.2440 C.3   107  MET107      0.0595
     40  SD        22.7870  -19.3370  -29.0590 S.3   107  MET107     -0.1393
     41  CE        23.9120  -18.9820  -27.7270 C.3   107  MET107      0.0692
     42  N         18.6450  -21.8260  -33.1530 N.3   110  ILE110     -0.1231
     43  CA        19.3280  -22.9970  -32.6000 C.3   110  ILE110      0.1692
     44  C         18.4850  -23.7040  -31.5270 C.2   110  ILE110      0.2591
     45  O         18.3500  -24.9320  -31.5170 O.2   110  ILE110     -0.2718
     46  CB        20.7070  -22.5870  -32.0440 C.3   110  ILE110      0.0266
     47  CG1       21.6710  -22.2990  -33.2260 C.3   110  ILE110      0.0019
     48  CG2       21.2410  -23.6410  -31.0820 C.3   110  ILE110      0.0020
     49  CD1       22.9370  -21.5830  -32.7650 C.3   110  ILE110      0.0001
     50  N         17.9260  -22.9050  -30.6270 N.am  111  ILE111     -0.1980
     51  CA        17.0620  -23.4400  -29.5740 C.3   111  ILE111      0.1595
     52  C         15.8840  -24.2080  -30.1820 C.2   111  ILE111      0.2287
     53  O         15.6150  -25.3540  -29.8140 O.2   111  ILE111     -0.2864
     54  CB        16.5980  -22.3140  -28.6360 C.3   111  ILE111      0.0276
     55  CG1       17.7940  -21.7380  -27.8340 C.3   111  ILE111      0.0022
     56  CG2       15.4910  -22.7660  -27.7080 C.3   111  ILE111      0.0022
     57  CD1       17.5480  -20.3230  -27.3870 C.3   111  ILE111      0.0001
     58  N         19.2840  -27.6340  -21.8230 N.3   128  PHE128     -0.1228
     59  CA        20.1870  -26.5660  -22.2690 C.3   128  PHE128      0.1721
     60  C         20.9970  -26.1150  -21.0730 C.2   128  PHE128      0.2437
     61  O         20.4660  -25.5220  -20.1540 O.2   128  PHE128     -0.2733
     62  CB        19.4150  -25.3670  -22.8260 C.3   128  PHE128      0.0547
     63  CG        18.6960  -25.6450  -24.1180 C.ar  128  PHE128     -0.0202
     64  CD1       19.3270  -25.4870  -25.3310 C.ar  128  PHE128     -0.0042
     65  CD2       17.3880  -26.0880  -24.1020 C.ar  128  PHE128     -0.0042
     66  CE1       18.6660  -25.7290  -26.5250 C.ar  128  PHE128     -0.0003
     67  CE2       16.7190  -26.3440  -25.2910 C.ar  128  PHE128     -0.0003
     68  CZ        17.3590  -26.1530  -26.4950 C.ar  128  PHE128     -0.0000
     69  N         22.2860  -26.4440  -21.0650 N.am  129  PRO129     -0.2718
     70  CA        23.1340  -25.9610  -19.9910 C.3   129  PRO129      0.1535
     71  C         23.6080  -24.5340  -20.2550 C.2   129  PRO129      0.2598
     72  O         23.6150  -24.0660  -21.3990 O.2   129  PRO129     -0.2715
     73  CB        24.3390  -26.9030  -20.0220 C.3   129  PRO129      0.0310
     74  CG        24.3780  -27.4440  -21.3830 C.3   129  PRO129      0.0237
     75  CD        23.0110  -27.3250  -22.0030 C.3   129  PRO129      0.0939
     76  N         24.0250  -23.8570  -19.1860 N.am  130  ALA130     -0.1964
     77  CA        24.5970  -22.5260  -19.3160 C.3   130  ALA130      0.1728
     78  C         25.9360  -22.6780  -20.0240 C.2   130  ALA130      0.2616
     79  O         26.7870  -23.4610  -19.6000 O.2   130  ALA130     -0.2715
     80  CB        24.7700  -21.8990  -17.9460 C.3   130  ALA130      0.0334
     81  N         26.1070  -21.9480  -21.1120 N.am  131  ILE131     -0.1963
     82  CA        27.3650  -21.9460  -21.8410 C.3   131  ILE131      0.1727
     83  C         28.2340  -20.7610  -21.4540 C.2   131  ILE131      0.2617
     84  O         29.4560  -20.7880  -21.6920 O.2   131  ILE131     -0.2715
     85  CB        27.1230  -22.1650  -23.3520 C.3   131  ILE131      0.0290
     86  CG1       26.1560  -21.1870  -23.9310 C.3   131  ILE131      0.0022
     87  CG2       26.5470  -23.5520  -23.5530 C.3   131  ILE131      0.0023
     88  CD1       26.0070  -21.2970  -25.4250 C.3   131  ILE131      0.0001
     89  N         27.6180  -19.7670  -20.8090 N.am  132  GLY132     -0.1940
     90  CA        28.2600  -18.5380  -20.3980 C.3   132  GLY132      0.2014
     91  C         27.9480  -17.5530  -21.5150 C.2   132  GLY132      0.2639
     92  O         27.2830  -17.9190  -22.4810 O.2   132  GLY132     -0.2714
     93  N         28.4410  -16.3200  -21.4010 N.am  133  THR133     -0.1950
     94  CA        28.2890  -15.3040  -22.4620 C.3   133  THR133      0.1897
     95  C         29.5610  -15.2920  -23.2870 C.2   133  THR133      0.2313
     96  O         30.1350  -14.2130  -23.6530 O.2   133  THR133     -0.2863
     97  CB        27.9050  -13.9200  -21.8870 C.3   133  THR133      0.1794
     98  OG1       27.8830  -12.9290  -22.9380 O.3   133  THR133     -0.2208
     99  CG2       28.8660  -13.4670  -20.7450 C.3   133  THR133      0.0378
    100  N         29.8520  -13.6490  -26.8320 N.3   136  LEU136     -0.1245
    101  CA        28.6060  -13.0370  -27.2510 C.3   136  LEU136      0.1561
    102  C         28.5810  -11.7500  -26.4430 C.2   136  LEU136      0.2260
    103  O         29.1380  -11.6660  -25.3440 O.2   136  LEU136     -0.2867
    104  CB        27.4110  -13.9350  -26.9830 C.3   136  LEU136      0.0270
    105  CG        27.2890  -15.0470  -28.0400 C.3   136  LEU136      0.0019
    106  CD1       26.4360  -16.1630  -27.4900 C.3   136  LEU136      0.0001
    107  CD2       26.7230  -14.5700  -29.3880 C.3   136  LEU136      0.0001
    108  N         23.8020  -12.0290  -19.4630 N.3   140  LYS140     -0.1245
    109  CA        23.0490  -13.2420  -19.1940 C.3   140  LYS140      0.1561
    110  C         21.5160  -13.0230  -19.1030 C.2   140  LYS140      0.2260
    111  O         20.7600  -13.8800  -19.5160 O.2   140  LYS140     -0.2867
    112  CB        23.6430  -13.9190  -17.9270 C.3   140  LYS140      0.0271
    113  CG        24.9900  -14.5960  -18.2330 C.3   140  LYS140      0.0035
    114  CD        25.7040  -15.1240  -17.0010 C.3   140  LYS140      0.0206
    115  CE        26.8400  -16.0880  -17.3530 C.3   140  LYS140      0.1093
    116  NZ        27.5520  -16.6420  -16.1340 N.3   140  LYS140     -0.1314
    117  N         19.8710  -13.4050  -22.4540 N.3   143  PHE143     -0.1241
    118  CA        19.7850  -14.8050  -22.8880 C.3   143  PHE143      0.1605
    119  C         18.7540  -15.6290  -22.1160 C.2   143  PHE143      0.2264
    120  O         18.1140  -16.5080  -22.6940 O.2   143  PHE143     -0.2867
    121  CB        21.1440  -15.4780  -22.8660 C.3   143  PHE143      0.0534
    122  CG        22.0310  -15.0050  -23.9720 C.ar  143  PHE143     -0.0203
    123  CD1       21.7100  -15.2950  -25.3000 C.ar  143  PHE143     -0.0042
    124  CD2       23.1490  -14.2250  -23.7030 C.ar  143  PHE143     -0.0042
    125  CE1       22.4900  -14.8080  -26.3390 C.ar  143  PHE143     -0.0003
    126  CE2       23.9450  -13.7520  -24.7460 C.ar  143  PHE143     -0.0003
    127  CZ        23.6150  -14.0530  -26.0510 C.ar  143  PHE143     -0.0000
    128  N         15.5390  -14.6590  -23.5810 N.3   146  LEU146     -0.1231
    129  CA        15.4850  -15.2030  -24.9440 C.3   146  LEU146      0.1693
    130  C         15.0680  -16.6720  -24.9450 C.2   146  LEU146      0.2591
    131  O         14.1960  -17.0910  -25.7110 O.2   146  LEU146     -0.2718
    132  CB        16.8440  -15.0290  -25.6290 C.3   146  LEU146      0.0284
    133  CG        16.9540  -15.4390  -27.1040 C.3   146  LEU146      0.0019
    134  CD1       18.0680  -14.6650  -27.7720 C.3   146  LEU146      0.0001
    135  CD2       17.2190  -16.9240  -27.3040 C.3   146  LEU146      0.0001
    136  N         15.7270  -17.4760  -24.1320 N.am  147  ILE147     -0.1980
    137  CA        15.4600  -18.9210  -24.2050 C.3   147  ILE147      0.1595
    138  C         14.0550  -19.2820  -23.6690 C.2   147  ILE147      0.2287
    139  O         13.3400  -20.1220  -24.2460 O.2   147  ILE147     -0.2864
    140  CB        16.5970  -19.7780  -23.5820 C.3   147  ILE147      0.0276
    141  CG1       16.4040  -21.2600  -23.9370 C.3   147  ILE147      0.0022
    142  CG2       16.7190  -19.5950  -22.0880 C.3   147  ILE147      0.0022
    143  CD1       17.6200  -22.1300  -23.6970 C.3   147  ILE147      0.0001
    144  N         16.8770  -26.2400  -17.7960 N.3   168  PHE168     -0.1241
    145  CA        17.9830  -25.2680  -17.8470 C.3   168  PHE168      0.1605
    146  C         18.9700  -25.6610  -16.7590 C.2   168  PHE168      0.2264
    147  O         18.6220  -25.6480  -15.5730 O.2   168  PHE168     -0.2867
    148  CB        17.4600  -23.8690  -17.6190 C.3   168  PHE168      0.0534
    149  CG        16.3870  -23.4680  -18.5900 C.ar  168  PHE168     -0.0203
    150  CD1       16.5920  -23.5940  -19.9780 C.ar  168  PHE168     -0.0042
    151  CD2       15.1570  -22.9590  -18.1490 C.ar  168  PHE168     -0.0042
    152  CE1       15.6110  -23.2030  -20.8880 C.ar  168  PHE168     -0.0003
    153  CE2       14.1850  -22.5630  -19.0630 C.ar  168  PHE168     -0.0003
    154  CZ        14.4130  -22.6900  -20.4300 C.ar  168  PHE168     -0.0000
    155  N         22.1540  -25.1560  -14.5800 N.3   170  LEU170     -0.1245
    156  CA        23.0300  -24.1160  -14.0320 C.3   170  LEU170      0.1561
    157  C         23.8890  -24.6920  -12.9270 C.2   170  LEU170      0.2260
    158  O         23.4280  -25.4730  -12.1160 O.2   170  LEU170     -0.2867
    159  CB        22.2050  -22.9570  -13.4610 C.3   170  LEU170      0.0270
    160  CG        21.4670  -22.0070  -14.4080 C.3   170  LEU170      0.0019
    161  CD1       20.4420  -22.6830  -15.2790 C.3   170  LEU170      0.0001
    162  CD2       20.7700  -20.9200  -13.6010 C.3   170  LEU170      0.0001
    163  N         23.5500  -16.1530  -13.6140 N.3   177  ASN177     -0.1240
    164  CA        22.4870  -16.9280  -14.2590 C.3   177  ASN177      0.1653
    165  C         21.3950  -17.3710  -13.2840 C.2   177  ASN177      0.2266
    166  O         20.2330  -17.3670  -13.6240 O.2   177  ASN177     -0.2867
    167  CB        23.0350  -18.1410  -15.0130 C.3   177  ASN177      0.1155
    168  CG        23.4110  -17.8140  -16.4450 C.2   177  ASN177      0.2627
    169  OD1       22.7240  -17.0390  -17.1150 O.2   177  ASN177     -0.2716
    170  ND2       24.4860  -18.4280  -16.9290 N.am  177  ASN177     -0.0877
    171  N         17.5420  -16.3400  -14.2370 N.3   181  PHE181     -0.1241
    172  CA        16.4910  -17.3300  -14.4090 C.3   181  PHE181      0.1605
    173  C         15.4720  -17.2770  -13.2700 C.2   181  PHE181      0.2264
    174  O         14.2900  -17.4000  -13.5110 O.2   181  PHE181     -0.2867
    175  CB        17.0740  -18.7320  -14.6070 C.3   181  PHE181      0.0534
    176  CG        17.5320  -18.9870  -16.0180 C.ar  181  PHE181     -0.0203
    177  CD1       18.7450  -18.4800  -16.4650 C.ar  181  PHE181     -0.0042
    178  CD2       16.7520  -19.7110  -16.9140 C.ar  181  PHE181     -0.0042
    179  CE1       19.1610  -18.6760  -17.7480 C.ar  181  PHE181     -0.0003
    180  CE2       17.1590  -19.8910  -18.2250 C.ar  181  PHE181     -0.0003
    181  CZ        18.3750  -19.3850  -18.6290 C.ar  181  PHE181     -0.0000
@<TRIPOS>BOND
     1    47    49    1
     2    47    46    1
     3    42    43    1
     4    43    46    1
     5    43    44    1
     6    32    31    2
     7    31    30    1
     8    34    35    1
     9    46    48    1
    10    24    23    1
    11    24    25    2
    12    23    26    1
    13    23    22    1
    14    29    30    1
    15    44    45    2
    16    44    50   am
    17    30    33    1
    18    26    27    1
    19    26    28    1
    20    35    36    1
    21    35    38    1
    22    36    37    2
    23    50    51    1
    24    52    53    2
    25    52    51    1
    26    38    39    1
    27    51    54    1
    28   107   105    1
    29    39    40    1
    30    40    41    1
    31    54    55    1
    32    54    56    1
    33    11    10    2
    34   105   106    1
    35   105   104    1
    36    55    57    1
    37    18    17    1
    38    18    19    2
    39   134   133    1
    40    21    20    1
    41     6     5    1
    42    17    20    1
    43    17    16    1
    44   135   133    1
    45   101   104    1
    46   101   100    1
    47   101   102    1
    48   133   132    1
    49    10    16   am
    50    10     9    1
    51    66    68   ar
    52    66    64   ar
    53     7     5    1
    54    68    67   ar
    55   102   103    2
    56   125   127   ar
    57   125   123   ar
    58     8     9    1
    59     8     3   am
    60    15    13   am
    61     5     2    1
    62    12     9    1
    63    12    13    1
    64   127   126   ar
    65     2     3    1
    66     2     1    1
    67    13    14    2
    68   131   130    2
    69   132   129    1
    70    88    86    1
    71     3     4    2
    72    64    63   ar
    73   123   122   ar
    74    67    65   ar
    75   130   129    1
    76   130   136   am
    77   129   128    1
    78   126   124   ar
    79   139   138    2
    80   137   136    1
    81   137   138    1
    82   137   140    1
    83    63    65   ar
    84    63    62    1
    85   122   124   ar
    86   122   121    1
    87   141   143    1
    88   141   140    1
    89    86    85    1
    90    96    95    2
    91   140   142    1
    92    87    85    1
    93    85    82    1
    94    95    94    1
    95    98    97    1
    96   118   121    1
    97   118   117    1
    98   118   119    1
    99    62    59    1
   100   120   119    2
   101    92    91    2
   102    94    97    1
   103    94    93    1
   104    59    58    1
   105    59    60    1
   106    75    74    1
   107    75    69    1
   108    97    99    1
   109    82    83    1
   110    82    81    1
   111    84    83    2
   112    91    93   am
   113    91    90    1
   114    83    89   am
   115    72    71    2
   116    74    73    1
   117    81    78   am
   118    60    69   am
   119    60    61    2
   120    69    70    1
   121   152   154   ar
   122   152   150   ar
   123    89    90    1
   124   154   153   ar
   125    71    70    1
   126    71    76   am
   127    78    79    2
   128    78    77    1
   129    73    70    1
   130   150   149   ar
   131   111   110    2
   132   108   109    1
   133    77    76    1
   134    77    80    1
   135   109   110    1
   136   109   112    1
   137   153   151   ar
   138   181   180   ar
   139   181   179   ar
   140   149   151   ar
   141   149   148    1
   142   113   112    1
   143   113   114    1
   144   180   178   ar
   145   145   144    1
   146   145   148    1
   147   145   146    1
   148   179   177   ar
   149   115   114    1
   150   115   116    1
   151   169   168    2
   152   170   168   am
   153   178   176   ar
   154   146   147    2
   155   177   176   ar
   156   168   167    1
   157   176   175    1
   158   161   160    1
   159   167   164    1
   160   175   172    1
   161   155   156    1
   162   172   171    1
   163   172   173    1
   164   160   162    1
   165   160   159    1
   166   164   163    1
   167   164   165    1
   168   156   159    1
   169   156   157    1
   170   166   165    2
   171   174   173    2
   172   157   158    2
