@<TRIPOS>MOLECULE
tmp/5o2eA00.pdb
 136 128 0 0 0
SMALL
GASTEIGER

@<TRIPOS>ATOM
      1  N          4.6740    8.5260   34.4110 N.3     4  ILE4       -0.1245
      2  CA         5.5810    9.6420   34.7350 C.3     4  ILE4        0.1561
      3  C          6.4340    9.2410   35.9210 C.2     4  ILE4        0.2260
      4  O          5.8850    8.8600   36.9590 O.2     4  ILE4       -0.2867
      5  CB         4.7840   10.9170   35.0910 C.3     4  ILE4        0.0252
      6  CG1        3.8220   11.3170   33.9570 C.3     4  ILE4        0.0019
      7  CG2        5.7230   12.0620   35.4740 C.3     4  ILE4        0.0019
      8  CD1        4.4910   11.6190   32.6300 C.3     4  ILE4        0.0001
      9  N          0.3510    7.7060   41.7880 N.3    32  LEU32      -0.1245
     10  CA        -1.0440    8.1100   41.5970 C.3    32  LEU32       0.1561
     11  C         -1.4980    7.6020   40.2500 C.2    32  LEU32       0.2260
     12  O         -0.9820    8.0500   39.2470 O.2    32  LEU32      -0.2867
     13  CB        -1.1860    9.6300   41.6260 C.3    32  LEU32       0.0270
     14  CG        -2.5980   10.1520   41.4440 C.3    32  LEU32       0.0019
     15  CD1       -3.4680    9.8050   42.6430 C.3    32  LEU32       0.0001
     16  CD2       -2.5780   11.6460   41.1240 C.3    32  LEU32       0.0001
     17  N         -3.8230    7.8050   37.2960 N.3    34  MET34      -0.1245
     18  CA        -4.7700    8.7260   36.6800 C.3    34  MET34       0.1570
     19  C         -5.5000    8.0130   35.5470 C.2    34  MET34       0.2261
     20  O         -4.8440    7.5220   34.6320 O.2    34  MET34      -0.2867
     21  CB        -4.0380    9.9410   36.1560 C.3    34  MET34       0.0387
     22  CG        -3.4020   10.7680   37.2560 C.3    34  MET34       0.0595
     23  SD        -2.5150   12.2250   36.6850 S.3    34  MET34      -0.1393
     24  CE        -3.8590   13.2360   36.0730 C.3    34  MET34       0.0692
     25  N          1.6910    8.1900   38.1660 N.3    40  VAL40      -0.1245
     26  CA         2.6750    9.2620   38.3430 C.3    40  VAL40       0.1561
     27  C          3.4360    9.0150   39.6660 C.2    40  VAL40       0.2260
     28  O          2.7900    8.9000   40.7330 O.2    40  VAL40      -0.2867
     29  CB         1.9510   10.6280   38.3900 C.3    40  VAL40       0.0252
     30  CG1        2.9610   11.7710   38.4760 C.3    40  VAL40       0.0019
     31  CG2        1.0460   10.8110   37.1700 C.3    40  VAL40       0.0019
     32  N          0.8820   10.0600   47.9670 N.3    60  TRP60      -0.1241
     33  CA        -0.2730   10.7200   47.3660 C.3    60  TRP60       0.1605
     34  C         -1.5860   10.5790   48.1520 C.2    60  TRP60       0.2264
     35  O         -2.4530   11.4420   48.0430 O.2    60  TRP60      -0.2867
     36  CB        -0.5430   10.1880   45.9570 C.3    60  TRP60       0.0550
     37  CG         0.4960   10.3700   44.9580 C.ar   60  TRP60       0.0003
     38  CD1        1.4660    9.4870   44.6540 C.ar   60  TRP60       0.0946
     39  CD2        0.6320   11.4500   44.0190 C.ar   60  TRP60       0.0152
     40  NE1        2.2340    9.9430   43.6250 N.ar   60  TRP60      -0.2442
     41  CE2        1.7290   11.1270   43.1930 C.ar   60  TRP60       0.0810
     42  CE3       -0.1050   12.6120   43.7560 C.ar   60  TRP60       0.0012
     43  CZ2        2.1240   11.9250   42.1250 C.ar   60  TRP60       0.0191
     44  CZ3        0.2930   13.4210   42.7060 C.ar   60  TRP60       0.0001
     45  CH2        1.4070   13.0680   41.9040 C.ar   60  TRP60       0.0015
     46  N          0.4830   20.4540   47.7650 N.3    89  HIS89      -0.1226
     47  CA        -0.0450   19.7110   46.6180 C.3    89  HIS89       0.1752
     48  C         -0.1800   18.2490   47.0650 C.2    89  HIS89       0.2596
     49  O          0.4080   17.8070   48.0580 O.2    89  HIS89      -0.2718
     50  CB         0.8730   19.7910   45.3880 C.3    89  HIS89       0.0759
     51  CG         0.7450   21.0540   44.5970 C.ar   89  HIS89       0.0818
     52  ND1        1.6800   21.4570   43.6480 N.ar   89  HIS89      -0.2268
     53  CD2       -0.2420   21.9780   44.5710 C.ar   89  HIS89       0.1154
     54  CE1        1.2350   22.5520   43.0730 C.ar   89  HIS89       0.1986
     55  NE2        0.0900   22.8960   43.6200 N.ar   89  HIS89      -0.2212
     56  N         -0.9670   17.4770   46.3100 N.am   90  GLN90      -0.1965
     57  CA        -1.3340   16.1120   46.7020 C.3    90  GLN90       0.1733
     58  C         -0.1520   15.1810   46.8400 C.2    90  GLN90       0.2616
     59  O         -0.1400   14.3050   47.7260 O.2    90  GLN90      -0.2715
     60  CB        -2.3090   15.4990   45.7290 C.3    90  GLN90       0.0408
     61  CG        -2.9220   14.2320   46.2990 C.3    90  GLN90       0.0908
     62  CD        -3.8190   13.5080   45.3400 C.2    90  GLN90       0.2608
     63  OE1       -4.3160   14.0710   44.3740 O.2    90  GLN90      -0.2717
     64  NE2       -4.0450   12.2530   45.6240 N.am   90  GLN90      -0.0878
     65  N          0.8660   15.3180   46.0000 N.am   91  ASP91      -0.1971
     66  CA         2.0120   14.4320   46.0570 C.3    91  ASP91       0.1709
     67  C          2.7720   14.5690   47.3640 C.2    91  ASP91       0.2293
     68  O          3.3890   13.6150   47.8050 O.2    91  ASP91      -0.2864
     69  CB         2.9500   14.5530   44.8330 C.3    91  ASP91       0.1436
     70  CG         3.3960   15.9680   44.4400 C.2    91  ASP91       0.3671
     71  OD1        2.9170   16.9420   45.0220 O.co2  91  ASP91      -0.2456
     72  OD2        4.1800   16.0480   43.4280 O.co2  91  ASP91      -0.2456
     73  N         -6.2000   23.8420   48.2250 N.3   119  GLU119     -0.1245
     74  CA        -5.5560   22.8500   47.3460 C.3   119  GLU119      0.1567
     75  C         -6.1180   21.4420   47.5880 C.2   119  GLU119      0.2260
     76  O         -5.5930   20.4840   47.0530 O.2   119  GLU119     -0.2867
     77  CB        -4.0200   22.8970   47.5470 C.3   119  GLU119      0.0388
     78  CG        -3.3790   24.1640   47.0410 C.3   119  GLU119      0.1160
     79  CD        -3.5580   24.2980   45.5320 C.2   119  GLU119      0.3649
     80  OE1       -3.3590   23.2870   44.8380 O.co2 119  GLU119     -0.2457
     81  OE2       -4.0110   25.3680   45.0170 O.co2 119  GLU119     -0.2457
     82  N         -6.0930   19.8190   50.5460 N.3   121  MET121     -0.1245
     83  CA        -5.2270   19.1150   51.4820 C.3   121  MET121      0.1570
     84  C         -5.6180   19.4610   52.9100 C.2   121  MET121      0.2261
     85  O         -6.1290   20.5050   53.2110 O.2   121  MET121     -0.2867
     86  CB        -3.7960   19.5540   51.2860 C.3   121  MET121      0.0387
     87  CG        -3.2290   19.2520   49.9060 C.3   121  MET121      0.0595
     88  SD        -3.2520   17.4640   49.5450 S.3   121  MET121     -0.1393
     89  CE        -4.3500   17.4520   48.1220 C.3   121  MET121      0.0692
     90  N          8.3630   26.3980   41.9900 N.3   156  HIS156     -0.1241
     91  CA         7.3030   25.4910   41.6030 C.3   156  HIS156      0.1621
     92  C          5.9480   25.9460   42.1680 C.2   156  HIS156      0.2264
     93  O          4.9380   25.9220   41.4800 O.2   156  HIS156     -0.2867
     94  CB         7.6700   24.0810   42.0600 C.3   156  HIS156      0.0745
     95  CG         6.5430   23.1210   41.9710 C.ar  156  HIS156      0.0817
     96  ND1        6.0480   22.6110   40.8030 N.ar  156  HIS156     -0.2268
     97  CD2        5.7790   22.5770   42.9510 C.ar  156  HIS156      0.1154
     98  CE1        5.0230   21.8250   41.0550 C.ar  156  HIS156      0.1986
     99  NE2        4.8200   21.7820   42.3660 N.ar  156  HIS156     -0.2212
    100  N          9.6180   19.3400   44.6860 N.3   175  CYS175     -0.1235
    101  CA         9.1690   19.5970   43.3280 C.3   175  CYS175      0.1677
    102  C          9.7830   20.8240   42.6790 C.2   175  CYS175      0.2270
    103  O          9.5340   21.1140   41.5090 O.2   175  CYS175     -0.2867
    104  CB         7.6930   19.5340   43.1970 C.3   175  CYS175      0.0956
    105  SG         6.8390   18.1550   43.9040 S.3   175  CYS175     -0.0801
    106  N         14.1490   19.7380   39.1160 N.3   178  LYS178     -0.1245
    107  CA        13.9460   18.7050   38.1300 C.3   178  LYS178      0.1561
    108  C         15.3160   18.1340   37.7210 C.2   178  LYS178      0.2260
    109  O         16.3470   18.7620   37.9640 O.2   178  LYS178     -0.2867
    110  CB        13.1560   19.2250   36.9240 C.3   178  LYS178      0.0271
    111  CG        11.6340   18.9980   37.0620 C.3   178  LYS178      0.0035
    112  CD        10.9180   19.6650   38.2250 C.3   178  LYS178      0.0206
    113  CE         9.4810   19.1690   38.3010 C.3   178  LYS178      0.1093
    114  NZ         8.6040   19.9900   39.1420 N.3   178  LYS178     -0.1314
    115  N          8.0030   20.6010   34.6370 N.3   186  GLY186     -0.1210
    116  CA         6.8160   19.9380   35.1930 C.3   186  GLY186      0.1956
    117  C          5.6460   20.8860   35.2480 C.2   186  GLY186      0.2611
    118  O          5.4740   21.7160   34.3450 O.2   186  GLY186     -0.2717
    119  N          4.7980   20.7610   36.2610 N.am  187  ASN187     -0.1974
    120  CA         3.6170   21.5910   36.2870 C.3   187  ASN187      0.1688
    121  C          3.9860   22.9910   36.7500 C.2   187  ASN187      0.2292
    122  O          4.3500   23.1760   37.9330 O.2   187  ASN187     -0.2864
    123  CB         2.5290   21.0260   37.1800 C.3   187  ASN187      0.1181
    124  CG         1.1960   21.7900   37.0140 C.2   187  ASN187      0.2629
    125  OD1        1.0920   22.7100   36.2240 O.2   187  ASN187     -0.2716
    126  ND2        0.2000   21.3840   37.7470 N.am  187  ASN187     -0.0877
    127  N         10.1670   13.8760   41.3910 N.3   217  HIS217     -0.1241
    128  CA         9.6490   13.1220   40.2210 C.3   217  HIS217      0.1621
    129  C         10.7190   12.5090   39.3500 C.2   217  HIS217      0.2264
    130  O         10.4400   12.1510   38.2020 O.2   217  HIS217     -0.2867
    131  CB         8.7090   14.0200   39.4230 C.3   217  HIS217      0.0745
    132  CG         7.5960   14.5570   40.2460 C.ar  217  HIS217      0.0817
    133  ND1        6.6130   13.7610   40.8000 N.ar  217  HIS217     -0.2268
    134  CD2        7.3110   15.8260   40.6180 C.ar  217  HIS217      0.1154
    135  CE1        5.7690   14.5390   41.4680 C.ar  217  HIS217      0.1986
    136  NE2        6.1840   15.7960   41.3970 N.ar  217  HIS217     -0.2212
@<TRIPOS>BOND
     1     8     6    1
     2     6     5    1
     3   118   117    2
     4     1     2    1
     5    20    19    2
     6   115   116    1
     7     2     5    1
     8     2     3    1
     9     5     7    1
    10   116   117    1
    11   117   119   am
    12    19    18    1
    13     3     4    2
    14    24    23    1
    15    21    18    1
    16    21    22    1
    17   125   124    2
    18   119   120    1
    19   120   121    1
    20   120   123    1
    21    18    17    1
    22    23    22    1
    23   121   122    2
    24   110   111    1
    25   110   107    1
    26   124   123    1
    27   124   126   am
    28   111   112    1
    29    31    29    1
    30   108   109    2
    31   108   107    1
    32   107   106    1
    33    25    26    1
    34   130   129    2
    35   112   113    1
    36   113   114    1
    37    26    29    1
    38    26    27    1
    39    29    30    1
    40    12    11    2
    41   129   128    1
    42   131   128    1
    43   131   132    1
    44    27    28    2
    45   128   127    1
    46   132   134   ar
    47   132   133   ar
    48    11    10    1
    49   134   136   ar
    50   133   135   ar
    51    96    98   ar
    52    96    95   ar
    53    98    99   ar
    54    16    14    1
    55   136   135   ar
    56    14    13    1
    57    14    15    1
    58    93    92    2
    59   103   102    2
    60    10    13    1
    61    10     9    1
    62    91    90    1
    63    91    94    1
    64    91    92    1
    65    45    43   ar
    66    45    44   ar
    67    95    94    1
    68    95    97   ar
    69    43    41   ar
    70    99    97   ar
    71   102   101    1
    72    44    42   ar
    73    54    55   ar
    74    54    52   ar
    75    41    40   ar
    76    41    39   ar
    77   104   101    1
    78   104   105    1
    79   101   100    1
    80    72    70   ar
    81    55    53   ar
    82    40    38   ar
    83    52    51   ar
    84    42    39   ar
    85    39    37   ar
    86    63    62    2
    87    70    69    1
    88    70    71   ar
    89    53    51   ar
    90    51    50    1
    91    38    37   ar
    92    69    66    1
    93    80    79   ar
    94    37    36    1
    95    81    79   ar
    96    62    64   am
    97    62    61    1
    98    50    47    1
    99    79    78    1
   100    60    61    1
   101    60    57    1
   102    36    33    1
   103    65    66    1
   104    65    58   am
   105    66    67    1
   106    56    57    1
   107    56    48   am
   108    47    48    1
   109    47    46    1
   110    57    58    1
   111    58    59    2
   112    78    77    1
   113    76    75    2
   114    48    49    2
   115    74    77    1
   116    74    75    1
   117    74    73    1
   118    67    68    2
   119    33    32    1
   120    33    34    1
   121    35    34    2
   122    89    88    1
   123    88    87    1
   124    87    86    1
   125    82    83    1
   126    86    83    1
   127    83    84    1
   128    84    85    2
