@<TRIPOS>MOLECULE
tmp/5o2fA00.pdb
 138 132 0 0 0
SMALL
GASTEIGER

@<TRIPOS>ATOM
      1  N          3.2520    7.7080   34.3890 N.3     8  ILE8       -0.1245
      2  CA         4.0940    8.8010   34.7770 C.3     8  ILE8        0.1561
      3  C          4.8940    8.3540   35.9570 C.2     8  ILE8        0.2260
      4  O          4.3260    7.9890   37.0060 O.2     8  ILE8       -0.2867
      5  CB         3.2460   10.0260   35.1880 C.3     8  ILE8        0.0252
      6  CG1        2.3780   10.4910   34.0220 C.3     8  ILE8        0.0019
      7  CG2        4.1160   11.1590   35.7030 C.3     8  ILE8        0.0019
      8  CD1        3.1430   11.0110   32.8160 C.3     8  ILE8        0.0001
      9  N         -1.2670    6.6060   41.8960 N.3    38  LEU38      -0.1245
     10  CA        -2.6400    7.0280   41.6710 C.3    38  LEU38       0.1561
     11  C         -3.0980    6.5780   40.2880 C.2    38  LEU38       0.2260
     12  O         -2.5660    7.0470   39.2770 O.2    38  LEU38      -0.2867
     13  CB        -2.7480    8.5350   41.7520 C.3    38  LEU38       0.0270
     14  CG        -4.1790    9.0950   41.7550 C.3    38  LEU38       0.0019
     15  CD1       -4.8080    8.8810   43.1100 C.3    38  LEU38       0.0001
     16  CD2       -4.1550   10.5760   41.4090 C.3    38  LEU38       0.0001
     17  N         -5.4280    6.6480   37.2370 N.3    40  MET40      -0.1245
     18  CA        -6.3890    7.5830   36.6110 C.3    40  MET40       0.1570
     19  C         -7.0880    6.8650   35.4620 C.2    40  MET40       0.2261
     20  O         -6.4000    6.3830   34.5690 O.2    40  MET40      -0.2867
     21  CB        -5.6550    8.8050   36.0840 C.3    40  MET40       0.0387
     22  CG        -5.0000    9.6450   37.1720 C.3    40  MET40       0.0595
     23  SD        -6.2110   10.3010   38.3440 S.3    40  MET40      -0.1393
     24  CE        -7.2320   11.2960   37.2480 C.3    40  MET40       0.0692
     25  N         -5.8660    6.6460   31.5700 N.3    43  PHE43      -0.1241
     26  CA        -4.5500    7.2920   31.5570 C.3    43  PHE43       0.1605
     27  C         -3.4480    6.4480   32.2070 C.2    43  PHE43       0.2264
     28  O         -2.2840    6.4800   31.7670 O.2    43  PHE43      -0.2867
     29  CB        -4.6560    8.6140   32.2960 C.3    43  PHE43       0.0534
     30  CG        -3.3890    9.4330   32.3090 C.ar   43  PHE43      -0.0203
     31  CD1       -3.0930   10.3040   31.2560 C.ar   43  PHE43      -0.0042
     32  CD2       -2.5090    9.3800   33.3940 C.ar   43  PHE43      -0.0042
     33  CE1       -1.9550   11.0990   31.2960 C.ar   43  PHE43      -0.0003
     34  CE2       -1.3630   10.1590   33.4180 C.ar   43  PHE43      -0.0003
     35  CZ        -1.0860   11.0170   32.3630 C.ar   43  PHE43      -0.0000
     36  N         -0.0200    7.2390   38.1180 N.3    46  VAL46      -0.1245
     37  CA         1.0100    8.2460   38.3240 C.3    46  VAL46       0.1561
     38  C          1.7780    7.8570   39.5850 C.2    46  VAL46       0.2260
     39  O          1.2090    7.7800   40.6660 O.2    46  VAL46      -0.2867
     40  CB         0.4200    9.6570   38.4880 C.3    46  VAL46       0.0252
     41  CG1        1.5070   10.7030   38.6860 C.3    46  VAL46       0.0019
     42  CG2       -0.4510   10.0140   37.2760 C.3    46  VAL46       0.0019
     43  N         -0.2910    9.1450   48.0010 N.3    66  TRP66      -0.1241
     44  CA        -1.4530    9.8330   47.4450 C.3    66  TRP66       0.1605
     45  C         -2.6920    9.7300   48.3380 C.2    66  TRP66       0.2264
     46  O         -3.4810   10.6840   48.3930 O.2    66  TRP66      -0.2867
     47  CB        -1.8530    9.2410   46.1030 C.3    66  TRP66       0.0550
     48  CG        -0.8670    9.3300   44.9850 C.ar   66  TRP66       0.0003
     49  CD1        0.0350    8.3730   44.5970 C.ar   66  TRP66       0.0946
     50  CD2       -0.7620   10.3880   44.0470 C.ar   66  TRP66       0.0152
     51  NE1        0.7130    8.7900   43.4700 N.ar   66  TRP66      -0.2442
     52  CE2        0.2480   10.0320   43.1210 C.ar   66  TRP66       0.0810
     53  CE3       -1.4300   11.6090   43.8880 C.ar   66  TRP66       0.0012
     54  CZ2        0.6150   10.8630   42.0640 C.ar   66  TRP66       0.0191
     55  CZ3       -1.0610   12.4380   42.8430 C.ar   66  TRP66       0.0001
     56  CH2       -0.0550   12.0610   41.9350 C.ar   66  TRP66       0.0015
     57  N         -0.1600   19.5390   47.9270 N.3    95  HIS95      -0.1226
     58  CA        -0.7690   18.8340   46.8050 C.3    95  HIS95       0.1752
     59  C         -0.9580   17.3850   47.1980 C.2    95  HIS95       0.2596
     60  O         -0.3140   16.8680   48.1510 O.2    95  HIS95      -0.2718
     61  CB         0.0820   18.9460   45.5250 C.3    95  HIS95       0.0759
     62  CG        -0.1110   20.2370   44.7710 C.ar   95  HIS95       0.0818
     63  ND1        0.8020   20.7130   43.8540 N.ar   95  HIS95      -0.2268
     64  CD2       -1.1360   21.1220   44.7620 C.ar   95  HIS95       0.1154
     65  CE1        0.3540   21.8380   43.3220 C.ar   95  HIS95       0.1986
     66  NE2       -0.8100   22.1190   43.8730 N.ar   95  HIS95      -0.2212
     67  N         -1.8470   16.7320   46.4620 N.am   96  GLN96      -0.1965
     68  CA        -2.2750   15.3620   46.7770 C.3    96  GLN96       0.1733
     69  C         -1.1390   14.3420   46.8440 C.2    96  GLN96       0.2616
     70  O         -1.1490   13.4680   47.7200 O.2    96  GLN96      -0.2715
     71  CB        -3.3320   14.9040   45.7620 C.3    96  GLN96       0.0408
     72  CG        -4.0520   13.6340   46.1650 C.3    96  GLN96       0.0908
     73  CD        -4.9060   13.0590   45.0340 C.2    96  GLN96       0.2608
     74  OE1       -4.9470   13.5850   43.9120 O.2    96  GLN96      -0.2717
     75  NE2       -5.5870   11.9870   45.3270 N.am   96  GLN96      -0.0878
     76  N         -0.1870   14.4380   45.9100 N.am   97  ASP97      -0.1971
     77  CA         0.9470   13.4990   45.8880 C.3    97  ASP97       0.1709
     78  C          1.7970   13.5480   47.1600 C.2    97  ASP97       0.2293
     79  O          2.3560   12.5420   47.5370 O.2    97  ASP97      -0.2864
     80  CB         1.8520   13.5530   44.5970 C.3    97  ASP97       0.1436
     81  CG         2.2160   14.9550   44.1330 C.2    97  ASP97       0.3671
     82  OD1        1.6340   15.9170   44.6720 O.co2  97  ASP97      -0.2456
     83  OD2        3.0780   15.1040   43.2080 O.co2  97  ASP97      -0.2456
     84  N          7.7740   25.3000   41.7690 N.3   162  HIS162     -0.1241
     85  CA         6.6530   24.4530   41.4400 C.3   162  HIS162      0.1621
     86  C          5.3620   25.0110   42.0660 C.2   162  HIS162      0.2264
     87  O          4.3120   25.0560   41.4210 O.2   162  HIS162     -0.2867
     88  CB         6.9440   23.0260   41.9050 C.3   162  HIS162      0.0745
     89  CG         5.7580   22.1380   41.8820 C.ar  162  HIS162      0.0817
     90  ND1        5.1910   21.6690   40.7190 N.ar  162  HIS162     -0.2268
     91  CD2        5.0310   21.6200   42.8980 C.ar  162  HIS162      0.1154
     92  CE1        4.1660   20.8870   41.0240 C.ar  162  HIS162      0.1986
     93  NE2        4.0480   20.8450   42.3400 N.ar  162  HIS162     -0.2212
     94  N          8.5740   17.9260   44.1280 N.3   181  CYS181     -0.1235
     95  CA         8.0910   18.2320   42.7660 C.3   181  CYS181      0.1677
     96  C          8.8070   19.4420   42.1230 C.2   181  CYS181      0.2270
     97  O          8.6090   19.7240   40.9150 O.2   181  CYS181     -0.2867
     98  CB         6.5780   18.3970   42.7490 C.3   181  CYS181      0.0956
     99  SG         5.6450   17.0350   43.4860 S.3   181  CYS181     -0.0801
    100  N         13.0370   18.1790   38.6220 N.3   184  LYS184     -0.1245
    101  CA        12.7990   17.1280   37.6630 C.3   184  LYS184      0.1561
    102  C         14.1280   16.5200   37.2220 C.2   184  LYS184      0.2260
    103  O         15.2050   17.0900   37.4450 O.2   184  LYS184     -0.2867
    104  CB        12.0940   17.6970   36.4310 C.3   184  LYS184      0.0271
    105  CG        10.8270   18.4780   36.7140 C.3   184  LYS184      0.0035
    106  CD         9.8770   17.7940   37.6780 C.3   184  LYS184      0.0206
    107  CE         8.5620   18.5170   37.6980 C.3   184  LYS184      0.1093
    108  NZ         7.7060   18.1580   38.8410 N.3   184  LYS184     -0.1314
    109  N          8.6810   20.6890   33.0390 N.3   191  LEU191     -0.1231
    110  CA         8.6800   20.9480   34.4780 C.3   191  LEU191      0.1693
    111  C          7.3860   20.4610   35.1540 C.2   191  LEU191      0.2593
    112  O          7.0330   20.9430   36.2270 O.2   191  LEU191     -0.2718
    113  CB         8.8970   22.4540   34.7270 C.3   191  LEU191      0.0284
    114  CG        10.3060   22.9710   34.4220 C.3   191  LEU191      0.0019
    115  CD1       10.3160   24.4840   34.3160 C.3   191  LEU191      0.0001
    116  CD2       11.2870   22.5220   35.4980 C.3   191  LEU191      0.0001
    117  N          6.6980   19.4930   34.5410 N.am  192  GLY192     -0.1942
    118  CA         5.4230   19.0120   35.0430 C.3   192  GLY192      0.2014
    119  C          4.3210   20.0600   35.1060 C.2   192  GLY192      0.2638
    120  O          4.2130   20.9470   34.2480 O.2   192  GLY192     -0.2714
    121  N          3.5000   19.9830   36.1510 N.am  193  ASN193     -0.1972
    122  CA         2.3650   20.8650   36.2460 C.3   193  ASN193      0.1688
    123  C          2.8730   22.2520   36.6500 C.2   193  ASN193      0.2292
    124  O          3.4170   22.4440   37.7520 O.2   193  ASN193     -0.2864
    125  CB         1.3140   20.3260   37.2190 C.3   193  ASN193      0.1181
    126  CG        -0.0160   21.0690   37.1110 C.2   193  ASN193      0.2629
    127  OD1       -0.1380   22.0450   36.3710 O.2   193  ASN193     -0.2716
    128  ND2       -1.0040   20.6180   37.8530 N.am  193  ASN193     -0.0877
    129  N          8.7840   12.2570   40.9660 N.3   223  HIS223     -0.1241
    130  CA         8.2620   11.4670   39.8370 C.3   223  HIS223      0.1621
    131  C          9.3070   10.9120   38.8830 C.2   223  HIS223      0.2264
    132  O          8.9850   10.6340   37.7330 O.2   223  HIS223     -0.2867
    133  CB         7.2470   12.2870   39.0570 C.3   223  HIS223      0.0745
    134  CG         6.2550   12.9720   39.9230 C.ar  223  HIS223      0.0817
    135  ND1        5.2700   12.2920   40.6060 N.ar  223  HIS223     -0.2268
    136  CD2        6.0850   14.2800   40.2130 C.ar  223  HIS223      0.1154
    137  CE1        4.5640   13.1490   41.3190 C.ar  223  HIS223      0.1986
    138  NE2        5.0190   14.3630   41.0790 N.ar  223  HIS223     -0.2212
@<TRIPOS>BOND
     1    31    33   ar
     2    31    30   ar
     3    33    35   ar
     4    26    25    1
     5    26    27    1
     6    26    29    1
     7    28    27    2
     8    29    30    1
     9    30    32   ar
    10    35    34   ar
    11     8     6    1
    12   109   110    1
    13    32    34   ar
    14     6     5    1
    15   120   119    2
    16   115   114    1
    17     1     2    1
    18   114   113    1
    19   114   116    1
    20   110   113    1
    21   110   111    1
    22   117   118    1
    23   117   111   am
    24    20    19    2
    25     2     5    1
    26     2     3    1
    27   118   119    1
    28   119   121   am
    29   111   112    2
    30     5     7    1
    31    19    18    1
    32     3     4    2
    33    21    18    1
    34    21    22    1
    35   121   122    1
    36   122   123    1
    37   122   125    1
    38   127   126    2
    39   104   105    1
    40   104   101    1
    41    18    17    1
    42   123   124    2
    43   105   106    1
    44   126   125    1
    45   126   128   am
    46    22    23    1
    47   102   103    2
    48   102   101    1
    49    24    23    1
    50    42    40    1
    51   101   100    1
    52   106   107    1
    53   107   108    1
    54   132   131    2
    55    36    37    1
    56    37    40    1
    57    37    38    1
    58    40    41    1
    59   131   130    1
    60   133   130    1
    61   133   134    1
    62    12    11    2
    63    38    39    2
    64   130   129    1
    65   134   136   ar
    66   134   135   ar
    67   136   138   ar
    68    11    10    1
    69   135   137   ar
    70    90    92   ar
    71    90    89   ar
    72    97    96    2
    73    92    93   ar
    74   138   137   ar
    75    16    14    1
    76    87    86    2
    77    85    84    1
    78    85    88    1
    79    85    86    1
    80    10    13    1
    81    10     9    1
    82    13    14    1
    83    14    15    1
    84    89    88    1
    85    89    91   ar
    86    56    54   ar
    87    56    55   ar
    88    54    52   ar
    89    96    95    1
    90    93    91   ar
    91    98    95    1
    92    98    99    1
    93    95    94    1
    94    55    53   ar
    95    52    51   ar
    96    52    50   ar
    97    83    81   ar
    98    65    63   ar
    99    65    66   ar
   100    51    49   ar
   101    63    62   ar
   102    66    64   ar
   103    53    50   ar
   104    74    73    2
   105    50    48   ar
   106    81    80    1
   107    81    82   ar
   108    49    48   ar
   109    80    77    1
   110    64    62   ar
   111    62    61    1
   112    48    47    1
   113    73    75   am
   114    73    72    1
   115    61    58    1
   116    71    72    1
   117    71    68    1
   118    77    76    1
   119    77    78    1
   120    76    69   am
   121    47    44    1
   122    67    68    1
   123    67    59   am
   124    68    69    1
   125    58    59    1
   126    58    57    1
   127    69    70    2
   128    78    79    2
   129    59    60    2
   130    44    43    1
   131    44    45    1
   132    45    46    2
