@<TRIPOS>MOLECULE
tmp/5o2nA01.pdb
 79 72 0 0 0
SMALL
GASTEIGER

@<TRIPOS>ATOM
      1  N         27.3850   -3.4500   80.5690 N.3   436  GLU436     -0.1245
      2  CA        27.4440   -3.5710   79.1090 C.3   436  GLU436      0.1567
      3  C         26.9270   -4.9180   78.6220 C.2   436  GLU436      0.2260
      4  O         26.1160   -4.9860   77.6880 O.2   436  GLU436     -0.2867
      5  CB        28.8780   -3.3780   78.6180 C.3   436  GLU436      0.0388
      6  CG        29.3750   -1.9490   78.6300 C.3   436  GLU436      0.1160
      7  CD        28.7200   -1.0430   77.5850 C.2   436  GLU436      0.3649
      8  OE1       27.7350   -1.4580   76.9460 O.co2 436  GLU436     -0.2457
      9  OE2       29.2000    0.1070   77.4090 O.co2 436  GLU436     -0.2457
     10  N         24.8570   -6.1020   70.4220 N.3   445  SER445     -0.1217
     11  CA        23.6690   -5.2700   70.5040 C.3   445  SER445      0.1889
     12  C         23.0370   -5.1450   69.1200 C.2   445  SER445      0.2288
     13  O         23.5680   -5.6250   68.1120 O.2   445  SER445     -0.2866
     14  CB        24.0030   -3.9020   71.0980 C.3   445  SER445      0.2089
     15  OG        24.5360   -3.0340   70.1150 O.3   445  SER445     -0.2183
     16  N         22.6920   -2.5050   67.3300 N.3   447  VAL447     -0.1245
     17  CA        23.4930   -1.6300   66.4820 C.3   447  VAL447      0.1561
     18  C         24.8970   -2.1690   66.2350 C.2   447  VAL447      0.2260
     19  O         25.6940   -1.5050   65.5590 O.2   447  VAL447     -0.2867
     20  CB        23.5570   -0.2180   67.0990 C.3   447  VAL447      0.0252
     21  CG1       22.1820    0.4260   67.0650 C.3   447  VAL447      0.0019
     22  CG2       24.0650   -0.2920   68.5310 C.3   447  VAL447      0.0019
     23  N         27.3260   -3.2810   68.6240 N.3   449  ALA449     -0.1245
     24  CA        28.3000   -3.3030   69.7100 C.3   449  ALA449      0.1562
     25  C         28.6030   -4.7450   70.0990 C.2   449  ALA449      0.2260
     26  O         27.6990   -5.5800   70.1920 O.2   449  ALA449     -0.2867
     27  CB        27.7710   -2.5370   70.9180 C.3   449  ALA449      0.0290
     28  N         31.2780   -4.3660   74.7920 N.3   453  GLN453     -0.1231
     29  CA        30.3330   -3.7350   73.8590 C.3   453  GLN453      0.1698
     30  C         30.9900   -2.6030   73.0700 C.2   453  GLN453      0.2592
     31  O         30.5050   -1.4660   73.0250 O.2   453  GLN453     -0.2718
     32  CB        29.0780   -3.2490   74.5930 C.3   453  GLN453      0.0381
     33  CG        28.1860   -4.4070   75.0640 C.3   453  GLN453      0.0905
     34  CD        27.5270   -5.1100   73.8960 C.2   453  GLN453      0.2608
     35  OE1       26.5410   -4.6090   73.3390 O.2   453  GLN453     -0.2717
     36  NE2       28.0830   -6.2490   73.4900 N.am  453  GLN453     -0.0878
     37  N         32.1220   -2.9220   72.4620 N.am  454  VAL454     -0.1980
     38  CA        32.8340   -1.9750   71.6130 C.3   454  VAL454      0.1595
     39  C         32.2190   -2.0080   70.2200 C.2   454  VAL454      0.2287
     40  O         31.9700   -3.0840   69.6680 O.2   454  VAL454     -0.2864
     41  CB        34.3300   -2.3220   71.5710 C.3   454  VAL454      0.0276
     42  CG1       35.0890   -1.3780   70.6390 C.3   454  VAL454      0.0022
     43  CG2       34.9170   -2.2610   72.9650 C.3   454  VAL454      0.0022
     44  N         34.5990    1.9330   66.3150 N.3   457  THR457     -0.1218
     45  CA        35.5200    2.3150   67.3750 C.3   457  THR457      0.1862
     46  C         36.6550    1.3080   67.4920 C.2   457  THR457      0.2287
     47  O         37.8100    1.6910   67.7170 O.2   457  THR457     -0.2866
     48  CB        34.7390    2.4600   68.6860 C.3   457  THR457      0.1770
     49  OG1       33.7750    3.5050   68.5260 O.3   457  THR457     -0.2211
     50  CG2       35.6630    2.8070   69.8540 C.3   457  THR457      0.0375
     51  N         32.2450    6.8700   77.0800 N.3   501  TYR501     -0.1227
     52  CA        32.3460    5.5150   76.5470 C.3   501  TYR501      0.1736
     53  C         31.0600    5.1160   75.8330 C.2   501  TYR501      0.2595
     54  O         31.0970    4.5090   74.7560 O.2   501  TYR501     -0.2718
     55  CB        32.6720    4.5570   77.6960 C.3   501  TYR501      0.0548
     56  CG        33.0220    3.1380   77.3020 C.ar  501  TYR501     -0.0200
     57  CD1       32.0280    2.1830   77.0780 C.ar  501  TYR501     -0.0009
     58  CD2       34.3400    2.7450   77.1840 C.ar  501  TYR501     -0.0009
     59  CE1       32.3580    0.8790   76.7510 C.ar  501  TYR501      0.0417
     60  CE2       34.6750    1.4500   76.8450 C.ar  501  TYR501      0.0417
     61  CZ        33.6860    0.5280   76.6300 C.ar  501  TYR501      0.1957
     62  OH        34.0560   -0.7560   76.2970 O.3   501  TYR501     -0.2866
     63  N         29.9110    5.4770   76.4030 N.am  502  ASN502     -0.1974
     64  CA        28.6170    5.0650   75.8790 C.3   502  ASN502      0.1688
     65  C         28.0880    6.0200   74.8190 C.2   502  ASN502      0.2292
     66  O         27.5080    5.5710   73.8250 O.2   502  ASN502     -0.2864
     67  CB        27.6170    4.9490   77.0350 C.3   502  ASN502      0.1181
     68  CG        26.2360    4.4950   76.5910 C.2   502  ASN502      0.2629
     69  OD1       25.2700    5.2530   76.6620 O.2   502  ASN502     -0.2716
     70  ND2       26.1350    3.2500   76.1410 N.am  502  ASN502     -0.0877
     71  N         19.4820    6.6630   77.7840 N.3   530  GLU530     -0.1245
     72  CA        20.2960    5.4510   77.8800 C.3   530  GLU530      0.1567
     73  C         21.5880    5.7330   78.6310 C.2   530  GLU530      0.2260
     74  O         21.9980    4.9560   79.5040 O.2   530  GLU530     -0.2867
     75  CB        20.6200    4.8820   76.4920 C.3   530  GLU530      0.0388
     76  CG        21.6840    3.7530   76.5360 C.3   530  GLU530      0.1160
     77  CD        22.5840    3.6580   75.2860 C.2   530  GLU530      0.3649
     78  OE1       23.0470    2.5390   74.9640 O.co2 530  GLU530     -0.2457
     79  OE2       22.8470    4.6970   74.6350 O.co2 530  GLU530     -0.2457
@<TRIPOS>BOND
     1    19    18    2
     2    18    17    1
     3    44    45    1
     4    17    20    1
     5    17    16    1
     6    21    20    1
     7    20    22    1
     8    45    46    1
     9    45    48    1
    10    46    47    2
    11    13    12    2
    12    49    48    1
    13    23    24    1
    14    48    50    1
    15    12    11    1
    16    40    39    2
    17    24    25    1
    18    24    27    1
    19    25    26    2
    20    15    14    1
    21    39    38    1
    22    10    11    1
    23    11    14    1
    24    42    41    1
    25    41    38    1
    26    41    43    1
    27    38    37    1
    28    37    30   am
    29    31    30    2
    30    30    29    1
    31    35    34    2
    32    36    34   am
    33    66    65    2
    34    29    32    1
    35    29    28    1
    36    34    33    1
    37    32    33    1
    38    79    77   ar
    39    54    53    2
    40    65    64    1
    41    78    77   ar
    42    77    76    1
    43    53    63   am
    44    53    52    1
    45    64    63    1
    46    64    67    1
    47    70    68   am
    48    62    61    1
    49    75    76    1
    50    75    72    1
    51    52    51    1
    52    52    55    1
    53    68    69    2
    54    68    67    1
    55    61    59   ar
    56    61    60   ar
    57    59    57   ar
    58    60    58   ar
    59     8     7   ar
    60    57    56   ar
    61    58    56   ar
    62    56    55    1
    63     9     7   ar
    64     7     6    1
    65     4     3    2
    66    71    72    1
    67    72    73    1
    68     5     6    1
    69     5     2    1
    70     3     2    1
    71    73    74    2
    72     2     1    1
