@<TRIPOS>MOLECULE
tmp/5o2nA05.pdb
 89 85 0 0 0
SMALL
GASTEIGER

@<TRIPOS>ATOM
      1  N         20.3720   21.5760   77.8000 N.3   217  LEU217     -0.1231
      2  CA        21.2230   22.0990   78.8680 C.3   217  LEU217      0.1693
      3  C         21.3630   23.6160   78.8250 C.2   217  LEU217      0.2592
      4  O         22.3410   24.1730   79.3350 O.2   217  LEU217     -0.2718
      5  CB        22.6000   21.4180   78.8630 C.3   217  LEU217      0.0284
      6  CG        22.4700   19.9060   79.1040 C.3   217  LEU217      0.0019
      7  CD1       23.8340   19.2560   79.0420 C.3   217  LEU217      0.0001
      8  CD2       21.7770   19.5770   80.4330 C.3   217  LEU217      0.0001
      9  N         20.3860   24.2970   78.2280 N.am  218  ASN218     -0.1960
     10  CA        20.2880   25.7570   78.2860 C.3   218  ASN218      0.1819
     11  C         19.5040   26.0800   79.5500 C.2   218  ASN218      0.2621
     12  O         18.3150   26.4100   79.5280 O.2   218  ASN218     -0.2715
     13  CB        19.6110   26.2870   77.0260 C.3   218  ASN218      0.1195
     14  CG        19.7130   27.7830   76.8880 C.2   218  ASN218      0.2630
     15  OD1       20.4870   28.4260   77.5830 O.2   218  ASN218     -0.2716
     16  ND2       18.9270   28.3500   75.9730 N.am  218  ASN218     -0.0877
     17  N         20.1940   25.9430   80.6860 N.am  219  VAL219     -0.1964
     18  CA        19.4980   25.8860   81.9740 C.3   219  VAL219      0.1712
     19  C         18.7620   27.1750   82.3030 C.2   219  VAL219      0.2458
     20  O         17.6090   27.1020   82.7490 O.2   219  VAL219     -0.2730
     21  CB        20.4680   25.4440   83.0790 C.3   219  VAL219      0.0289
     22  CG1       19.7950   25.5420   84.4570 C.3   219  VAL219      0.0023
     23  CG2       20.9460   24.0250   82.8010 C.3   219  VAL219      0.0023
     24  N         19.3380   28.3720   82.1360 N.am  220  PRO220     -0.2727
     25  CA        18.5590   29.5750   82.4690 C.3   220  PRO220      0.1402
     26  C         17.2820   29.7100   81.6600 C.2   220  PRO220      0.2269
     27  O         16.2300   29.9830   82.2440 O.2   220  PRO220     -0.2865
     28  CB        19.5480   30.7130   82.1920 C.3   220  PRO220      0.0296
     29  CG        20.8900   30.0770   82.4030 C.3   220  PRO220      0.0237
     30  CD        20.7520   28.6890   81.8760 C.3   220  PRO220      0.0939
     31  N         20.2970   21.2890   88.5070 N.3   249  ARG249     -0.1245
     32  CA        21.5460   21.7470   87.9150 C.3   249  ARG249      0.1563
     33  C         21.8450   23.2010   88.2700 C.2   249  ARG249      0.2260
     34  O         23.0140   23.5870   88.3780 O.2   249  ARG249     -0.2867
     35  CB        21.4760   21.5500   86.4040 C.3   249  ARG249      0.0307
     36  CG        22.7990   21.5620   85.7140 C.3   249  ARG249      0.0489
     37  CD        22.7630   20.7650   84.4270 C.3   249  ARG249      0.2205
     38  NE        23.8030   21.2680   83.5470 N.pl3 249  ARG249     -0.0865
     39  CZ        24.6120   20.5240   82.8040 C.cat 249  ARG249      0.5346
     40  NH1       24.5440   19.1920   82.8220 N.pl3 249  ARG249      0.1354
     41  NH2       25.5220   21.1340   82.0530 N.pl3 249  ARG249      0.1354
     42  N         28.9680   19.0780   79.7710 N.3   512  GLN512     -0.1231
     43  CA        29.5500   19.8710   80.8450 C.3   512  GLN512      0.1698
     44  C         28.9350   21.2690   80.8710 C.2   512  GLN512      0.2592
     45  O         28.2220   21.6890   79.9500 O.2   512  GLN512     -0.2718
     46  CB        31.0670   19.9490   80.6780 C.3   512  GLN512      0.0381
     47  CG        31.7440   18.6020   80.8870 C.3   512  GLN512      0.0905
     48  CD        33.2180   18.6300   80.5300 C.2   512  GLN512      0.2608
     49  OE1       33.6300   18.0980   79.4960 O.2   512  GLN512     -0.2717
     50  NE2       34.0250   19.2340   81.3950 N.am  512  GLN512     -0.0878
     51  N         29.1980   21.9850   81.9610 N.am  513  ALA513     -0.1966
     52  CA        28.7750   23.3680   82.1400 C.3   513  ALA513      0.1728
     53  C         29.9920   24.2820   82.0940 C.2   513  ALA513      0.2616
     54  O         31.1380   23.8280   82.0380 O.2   513  ALA513     -0.2715
     55  CB        28.0390   23.5410   83.4760 C.3   513  ALA513      0.0334
     56  N         29.7260   25.5920   82.1170 N.am  514  ASP514     -0.1957
     57  CA        30.8030   26.5770   82.1800 C.3   514  ASP514      0.1840
     58  C         31.4790   26.6100   83.5480 C.2   514  ASP514      0.2622
     59  O         32.5620   27.1930   83.6800 O.2   514  ASP514     -0.2715
     60  CB        30.2610   27.9690   81.8430 C.3   514  ASP514      0.1450
     61  CG        29.8200   28.1040   80.3830 C.2   514  ASP514      0.3671
     62  OD1       30.1980   27.2690   79.5400 O.co2 514  ASP514     -0.2456
     63  OD2       29.0920   29.0720   80.0840 O.co2 514  ASP514     -0.2456
     64  N         30.8560   26.0290   84.5610 N.am  515  THR515     -0.1951
     65  CA        31.3820   25.9220   85.9130 C.3   515  THR515      0.1897
     66  C         31.3650   24.4570   86.3040 C.2   515  THR515      0.2313
     67  O         30.8170   23.6220   85.5800 O.2   515  THR515     -0.2863
     68  CB        30.5350   26.7510   86.8890 C.3   515  THR515      0.1794
     69  OG1       29.1550   26.3670   86.7850 O.3   515  THR515     -0.2208
     70  CG2       30.6900   28.2430   86.5960 C.3   515  THR515      0.0378
     71  N         30.4250   20.8820   88.0480 N.3   517  LEU517     -0.1245
     72  CA        29.1770   20.2210   88.4030 C.3   517  LEU517      0.1561
     73  C         29.4510   19.1130   89.4030 C.2   517  LEU517      0.2260
     74  O         30.3590   18.3030   89.2000 O.2   517  LEU517     -0.2867
     75  CB        28.4840   19.6110   87.1830 C.3   517  LEU517      0.0270
     76  CG        27.8980   20.5840   86.1660 C.3   517  LEU517      0.0019
     77  CD1       27.6250   19.8630   84.8500 C.3   517  LEU517      0.0001
     78  CD2       26.6300   21.2010   86.7180 C.3   517  LEU517      0.0001
     79  N         33.9410   23.0430   81.6060 N.3   564  ARG564     -0.1245
     80  CA        34.4230   22.6630   80.2830 C.3   564  ARG564      0.1563
     81  C         35.6770   23.4380   79.9190 C.2   564  ARG564      0.2260
     82  O         36.5500   22.9210   79.2130 O.2   564  ARG564     -0.2867
     83  CB        33.3490   22.8840   79.2240 C.3   564  ARG564      0.0307
     84  CG        33.7400   22.2980   77.8680 C.3   564  ARG564      0.0489
     85  CD        32.8580   22.7900   76.7360 C.3   564  ARG564      0.2205
     86  NE        31.5250   22.2050   76.7990 N.pl3 564  ARG564     -0.0865
     87  CZ        30.4900   22.7650   77.4150 C.cat 564  ARG564      0.5346
     88  NH1       29.3180   22.1520   77.4180 N.pl3 564  ARG564      0.1354
     89  NH2       30.6230   23.9390   78.0210 N.pl3 564  ARG564      0.1354
@<TRIPOS>BOND
     1    16    14   am
     2    85    86    1
     3    85    84    1
     4    86    87    2
     5    14    13    1
     6    14    15    2
     7    13    10    1
     8    87    88    1
     9    87    89    1
    10     1     2    1
    11    84    83    1
    12     9    10    1
    13     9     3   am
    14    10    11    1
    15     3     2    1
    16     3     4    2
    17     5     2    1
    18     5     6    1
    19     7     6    1
    20     6     8    1
    21    82    81    2
    22    83    80    1
    23    49    48    2
    24    12    11    2
    25    62    61   ar
    26    11    17   am
    27    42    43    1
    28    81    80    1
    29    45    44    2
    30    63    61   ar
    31    80    79    1
    32    61    60    1
    33    48    47    1
    34    48    50   am
    35    46    43    1
    36    46    47    1
    37    17    18    1
    38    43    44    1
    39    44    51   am
    40    26    27    2
    41    26    25    1
    42    60    57    1
    43    30    24    1
    44    30    29    1
    45    51    52    1
    46    18    19    1
    47    18    21    1
    48    54    53    2
    49    41    39    1
    50    53    56   am
    51    53    52    1
    52    56    57    1
    53    24    19   am
    54    24    25    1
    55    52    55    1
    56    57    58    1
    57    28    29    1
    58    28    25    1
    59    19    20    2
    60    23    21    1
    61    39    40    1
    62    39    38    2
    63    21    22    1
    64    38    37    1
    65    58    59    2
    66    58    64   am
    67    37    36    1
    68    64    65    1
    69    77    76    1
    70    67    66    2
    71    36    35    1
    72    65    66    1
    73    65    68    1
    74    76    78    1
    75    76    75    1
    76    35    32    1
    77    70    68    1
    78    69    68    1
    79    75    72    1
    80    32    33    1
    81    32    31    1
    82    71    72    1
    83    33    34    2
    84    72    73    1
    85    74    73    2
