@<TRIPOS>MOLECULE
tmp/5o2oA02.pdb
 81 78 0 0 0
SMALL
GASTEIGER

@<TRIPOS>ATOM
      1  N         17.6720    2.6330  -38.6250 N.3   300  ALA300     -0.1231
      2  CA        18.4950    1.4120  -38.6430 C.3   300  ALA300      0.1694
      3  C         18.8250    0.8900  -37.2330 C.2   300  ALA300      0.2593
      4  O         19.4740   -0.1640  -37.0860 O.2   300  ALA300     -0.2718
      5  CB        19.7910    1.6910  -39.3830 C.3   300  ALA300      0.0304
      6  N         18.4240    1.6250  -36.1820 N.am  301  THR301     -0.1939
      7  CA        18.7920    1.2110  -34.8100 C.3   301  THR301      0.2028
      8  C         17.8250    0.1930  -34.2350 C.2   301  THR301      0.2643
      9  O         18.0020   -0.2700  -33.1080 O.2   301  THR301     -0.2714
     10  CB        18.9100    2.3990  -33.8450 C.3   301  THR301      0.1808
     11  OG1       17.6330    3.0340  -33.6770 O.3   301  THR301     -0.2208
     12  CG2       19.9870    3.4260  -34.3210 C.3   301  THR301      0.0379
     13  N         16.8180   -0.1780  -34.9980 N.am  302  GLY302     -0.1939
     14  CA        15.9940   -1.3250  -34.6730 C.3   302  GLY302      0.2014
     15  C         14.6110   -0.9890  -34.1450 C.2   302  GLY302      0.2639
     16  O         13.8750   -0.1830  -34.7120 O.2   302  GLY302     -0.2714
     17  N         14.2340   -1.7350  -33.1190 N.am  303  ARG303     -0.1963
     18  CA        12.8800   -1.7640  -32.6680 C.3   303  ARG303      0.1729
     19  C         12.7350   -0.8850  -31.4430 C.2   303  ARG303      0.2616
     20  O         12.6940   -1.3510  -30.3210 O.2   303  ARG303     -0.2715
     21  CB        12.4400   -3.1890  -32.3290 C.3   303  ARG303      0.0348
     22  CG        11.9760   -3.9980  -33.5400 C.3   303  ARG303      0.0492
     23  CD        13.2650   -4.7320  -33.9060 C.3   303  ARG303      0.2205
     24  NE        13.7430   -4.2960  -35.1140 N.pl3 303  ARG303     -0.0865
     25  CZ        14.9270   -4.5510  -35.6590 C.cat 303  ARG303      0.5346
     26  NH1       15.9280   -5.2250  -35.0640 N.pl3 303  ARG303      0.1354
     27  NH2       15.0760   -4.0440  -36.8450 N.pl3 303  ARG303      0.1354
     28  N         12.6770    0.3920  -31.6740 N.am  304  ASN304     -0.1972
     29  CA        12.6100    1.3370  -30.5670 C.3   304  ASN304      0.1688
     30  C         11.9110    2.6250  -30.9570 C.2   304  ASN304      0.2292
     31  O         11.7080    2.9320  -32.1470 O.2   304  ASN304     -0.2864
     32  CB        13.9880    1.6340  -29.9980 C.3   304  ASN304      0.1181
     33  CG        14.9010    2.3830  -30.9990 C.2   304  ASN304      0.2629
     34  OD1       14.7290    3.5630  -31.2270 O.2   304  ASN304     -0.2716
     35  ND2       15.8720    1.6620  -31.5840 N.am  304  ASN304     -0.0877
     36  N         13.9780  -10.5700  -28.9040 N.3   400  GLU400     -0.1231
     37  CA        14.2590   -9.1780  -29.0890 C.3   400  GLU400      0.1699
     38  C         15.7340   -8.9280  -29.3420 C.2   400  GLU400      0.2592
     39  O         16.1080   -7.8120  -29.7210 O.2   400  GLU400     -0.2718
     40  CB        13.7920   -8.3470  -27.8460 C.3   400  GLU400      0.0402
     41  CG        14.6950   -8.5360  -26.6470 C.3   400  GLU400      0.1161
     42  CD        14.2680   -7.7330  -25.4200 C.2   400  GLU400      0.3649
     43  OE1       13.4420   -6.8240  -25.5410 O.co2 400  GLU400     -0.2457
     44  OE2       14.8650   -8.0090  -24.3560 O.co2 400  GLU400     -0.2457
     45  N         16.5670   -9.9590  -29.1450 N.am  401  ARG401     -0.1966
     46  CA        18.0300   -9.7570  -29.3100 C.3   401  ARG401      0.1729
     47  C         18.5000   -9.8040  -30.7750 C.2   401  ARG401      0.2617
     48  O         19.6670   -9.5080  -31.0500 O.2   401  ARG401     -0.2715
     49  CB        18.7530  -10.8200  -28.4810 C.3   401  ARG401      0.0348
     50  CG        18.7970  -10.4650  -27.0120 C.3   401  ARG401      0.0492
     51  CD        19.4420  -11.5670  -26.1650 C.3   401  ARG401      0.2205
     52  NE        20.8340  -11.7630  -26.5850 N.pl3 401  ARG401     -0.0865
     53  CZ        21.5390  -12.8870  -26.4470 C.cat 401  ARG401      0.5346
     54  NH1       20.9970  -13.9690  -25.9020 N.pl3 401  ARG401      0.1354
     55  NH2       22.7990  -12.9130  -26.8340 N.pl3 401  ARG401      0.1354
     56  N         17.6320  -10.1520  -31.7200 N.am  402  THR402     -0.1937
     57  CA        18.0880  -10.2820  -33.1000 C.3   402  THR402      0.2028
     58  C         18.2340   -8.9110  -33.7510 C.2   402  THR402      0.2642
     59  O         17.6730   -7.9150  -33.2490 O.2   402  THR402     -0.2714
     60  CB        17.1380  -11.1380  -33.9510 C.3   402  THR402      0.1808
     61  OG1       15.8690  -10.4800  -34.1420 O.3   402  THR402     -0.2208
     62  CG2       16.9370  -12.5130  -33.3280 C.3   402  THR402      0.0379
     63  N         18.9370   -8.8450  -34.8690 N.am  403  ASP403     -0.1971
     64  CA        18.9290   -7.6340  -35.6810 C.3   403  ASP403      0.1709
     65  C         18.2740   -7.7770  -37.0160 C.2   403  ASP403      0.2293
     66  O         17.5280   -6.9140  -37.4130 O.2   403  ASP403     -0.2864
     67  CB        20.2870   -7.0330  -35.9620 C.3   403  ASP403      0.1436
     68  CG        20.1350   -5.6970  -36.7440 C.2   403  ASP403      0.3671
     69  OD1       19.1650   -4.9410  -36.4420 O.co2 403  ASP403     -0.2456
     70  OD2       20.8980   -5.4310  -37.6840 O.co2 403  ASP403     -0.2456
     71  N          8.5350  -11.3340  -30.2480 N.3   411  ARG411     -0.1245
     72  CA         8.9890  -10.0580  -29.6060 C.3   411  ARG411      0.1563
     73  C          7.8400   -9.4030  -28.8230 C.2   411  ARG411      0.2260
     74  O          8.0590   -8.8660  -27.7120 O.2   411  ARG411     -0.2867
     75  CB         9.4770   -9.0710  -30.6360 C.3   411  ARG411      0.0307
     76  CG        10.8740   -9.3440  -31.1500 C.3   411  ARG411      0.0489
     77  CD        11.1820   -8.3390  -32.2830 C.3   411  ARG411      0.2205
     78  NE        12.5630   -8.5150  -32.7400 N.pl3 411  ARG411     -0.0865
     79  CZ        13.5940   -7.7810  -32.3600 C.cat 411  ARG411      0.5346
     80  NH1       13.4240   -6.7230  -31.5600 N.pl3 411  ARG411      0.1354
     81  NH2       14.8210   -8.0680  -32.8120 N.pl3 411  ARG411      0.1354
@<TRIPOS>BOND
     1     5     2    1
     2     2     1    1
     3     2     3    1
     4    70    68   ar
     5    66    65    2
     6     3     4    2
     7     3     6   am
     8    65    64    1
     9    27    25    1
    10    68    69   ar
    11    68    67    1
    12     6     7    1
    13    67    64    1
    14    64    63    1
    15    25    24    2
    16    25    26    1
    17    24    23    1
    18    13    14    1
    19    13     8   am
    20    63    58   am
    21     7     8    1
    22     7    10    1
    23    16    15    2
    24    14    15    1
    25    12    10    1
    26     8     9    2
    27    15    17   am
    28    61    60    1
    29    60    62    1
    30    60    57    1
    31    23    22    1
    32    10    11    1
    33    58    59    2
    34    58    57    1
    35    22    21    1
    36    17    18    1
    37    57    56    1
    38    81    79    1
    39    78    79    2
    40    78    77    1
    41    18    21    1
    42    18    19    1
    43    79    80    1
    44    77    76    1
    45    31    30    2
    46    56    47   am
    47    28    19   am
    48    28    29    1
    49    35    33   am
    50    19    20    2
    51    34    33    2
    52    76    75    1
    53    48    47    2
    54    33    32    1
    55    30    29    1
    56    47    46    1
    57    75    72    1
    58    29    32    1
    59    71    72    1
    60    39    38    2
    61    72    73    1
    62    38    45   am
    63    38    37    1
    64    46    45    1
    65    46    49    1
    66    37    36    1
    67    37    40    1
    68    73    74    2
    69    49    50    1
    70    40    41    1
    71    50    51    1
    72    55    53    1
    73    41    42    1
    74    52    53    2
    75    52    51    1
    76    53    54    1
    77    43    42   ar
    78    42    44   ar
