@<TRIPOS>MOLECULE
tmp/5o2wA13.pdb
 69 62 0 0 0
SMALL
GASTEIGER

@<TRIPOS>ATOM
      1  N         23.2150  -56.4600   55.5170 N.3     7  VAL7       -0.1245
      2  CA        22.1870  -57.1490   56.3080 C.3     7  VAL7        0.1561
      3  C         22.6750  -58.5430   56.6900 C.2     7  VAL7        0.2260
      4  O         22.9890  -59.3440   55.8130 O.2     7  VAL7       -0.2867
      5  CB        20.8420  -57.2480   55.5640 C.3     7  VAL7        0.0252
      6  CG1       19.8020  -57.8370   56.4960 C.3     7  VAL7        0.0019
      7  CG2       20.3620  -55.8860   55.0300 C.3     7  VAL7        0.0019
      8  N         22.0640  -61.9230   58.6050 N.3     9  ASN9       -0.1225
      9  CA        20.9720  -62.7380   59.0940 C.3     9  ASN9        0.1785
     10  C         19.7840  -61.9030   59.5170 C.2     9  ASN9        0.2597
     11  O         19.2460  -62.0840   60.6300 O.2     9  ASN9       -0.2718
     12  CB        21.4200  -63.5060   60.3220 C.3     9  ASN9        0.1169
     13  CG        22.1270  -64.7610   59.9790 C.2     9  ASN9        0.2627
     14  OD1       22.4970  -65.0190   58.8140 O.2     9  ASN9       -0.2716
     15  ND2       22.3270  -65.5690   60.9870 N.am    9  ASN9       -0.0877
     16  N         19.3810  -60.9740   58.6600 N.am   10  GLY10      -0.1957
     17  CA        18.1850  -60.1330   58.9070 C.3    10  GLY10       0.1869
     18  C         18.4140  -58.8300   59.6730 C.2    10  GLY10       0.2309
     19  O         17.4670  -58.0310   59.8700 O.2    10  GLY10      -0.2863
     20  N         25.1740  -65.6000   56.8250 N.3    73  THR73      -0.1203
     21  CA        25.3400  -64.9340   55.5310 C.3    73  THR73       0.1994
     22  C         25.1890  -63.4350   55.7350 C.2    73  THR73       0.2618
     23  O         24.4110  -62.9540   56.6120 O.2    73  THR73      -0.2717
     24  CB        24.3150  -65.3840   54.4460 C.3    73  THR73       0.1784
     25  OG1       22.9960  -65.1630   54.9390 O.3    73  THR73      -0.2211
     26  CG2       24.4950  -66.8970   54.0590 C.3    73  THR73       0.0376
     27  N         25.9070  -62.7040   54.8810 N.am   74  ILE74      -0.1965
     28  CA        25.9180  -61.2430   54.8530 C.3    74  ILE74       0.1727
     29  C         25.5500  -60.7670   53.4500 C.2    74  ILE74       0.2616
     30  O         26.1140  -61.2040   52.4880 O.2    74  ILE74      -0.2715
     31  CB        27.3060  -60.7070   55.1860 C.3    74  ILE74       0.0290
     32  CG1       27.7520  -61.2330   56.5660 C.3    74  ILE74       0.0022
     33  CG2       27.3160  -59.1800   55.1310 C.3    74  ILE74       0.0023
     34  CD1       29.0460  -60.6460   57.1010 C.3    74  ILE74       0.0001
     35  N         24.5930  -59.8500   53.3770 N.am   75  LEU75      -0.1977
     36  CA        24.1250  -59.2530   52.1390 C.3    75  LEU75       0.1596
     37  C         24.6520  -57.8310   52.0730 C.2    75  LEU75       0.2287
     38  O         24.5010  -57.0510   53.0640 O.2    75  LEU75      -0.2864
     39  CB        22.5880  -59.2150   52.1770 C.3    75  LEU75       0.0297
     40  CG        21.8940  -58.5650   50.9850 C.3    75  LEU75       0.0022
     41  CD1       20.5310  -59.2190   50.7830 C.3    75  LEU75       0.0001
     42  CD2       21.7380  -57.0500   51.1830 C.3    75  LEU75       0.0001
     43  N         25.3960  -61.7710   48.1920 N.3   140  VAL140     -0.1245
     44  CA        25.3570  -62.5780   49.4350 C.3   140  VAL140      0.1561
     45  C         26.6260  -63.4160   49.5640 C.2   140  VAL140      0.2260
     46  O         27.0180  -64.1100   48.6190 O.2   140  VAL140     -0.2867
     47  CB        24.0940  -63.4840   49.4550 C.3   140  VAL140      0.0252
     48  CG1       24.0610  -64.4350   50.6740 C.3   140  VAL140      0.0019
     49  CG2       22.8720  -62.5860   49.4520 C.3   140  VAL140      0.0019
     50  N         24.1340  -69.6170   47.1030 N.3   232  ALA232     -0.1245
     51  CA        22.9340  -69.2130   46.3770 C.3   232  ALA232      0.1562
     52  C         22.6160  -67.7120   46.6190 C.2   232  ALA232      0.2260
     53  O         22.5290  -67.2300   47.7740 O.2   232  ALA232     -0.2867
     54  CB        21.7610  -70.0900   46.7660 C.3   232  ALA232      0.0290
     55  N         20.4200  -64.1130   46.2550 N.3   234  GLY234     -0.1225
     56  CA        18.9950  -63.7350   46.2750 C.3   234  GLY234      0.1811
     57  C         18.8300  -62.7420   47.3950 C.2   234  GLY234      0.2280
     58  O         19.4660  -62.8840   48.4550 O.2   234  GLY234     -0.2866
     59  N         17.1060  -60.4520   50.3120 N.3   236  SER236     -0.1202
     60  CA        16.1160  -60.6230   51.3760 C.3   236  SER236      0.2020
     61  C         16.0860  -59.3370   52.1940 C.2   236  SER236      0.2618
     62  O         17.1380  -58.6850   52.3470 O.2   236  SER236     -0.2717
     63  CB        16.4710  -61.8050   52.2720 C.3   236  SER236      0.2103
     64  OG        17.4680  -61.4090   53.1810 O.3   236  SER236     -0.2182
     65  N         14.8880  -58.9700   52.6790 N.am  237  ALA237     -0.1979
     66  CA        14.7400  -57.7660   53.5320 C.3   237  ALA237      0.1597
     67  C         15.3090  -57.9290   54.9550 C.2   237  ALA237      0.2287
     68  O         15.4600  -59.0340   55.4750 O.2   237  ALA237     -0.2864
     69  CB        13.2770  -57.3160   53.6000 C.3   237  ALA237      0.0319
@<TRIPOS>BOND
     1    55    56    1
     2    56    57    1
     3    51    52    1
     4    51    54    1
     5    51    50    1
     6    52    53    2
     7    57    58    2
     8    43    44    1
     9    46    45    2
    10    44    47    1
    11    44    45    1
    12    49    47    1
    13    47    48    1
    14    59    60    1
    15    41    40    1
    16    40    42    1
    17    40    39    1
    18    60    61    1
    19    60    63    1
    20    37    36    1
    21    37    38    2
    22    36    39    1
    23    36    35    1
    24    61    62    2
    25    61    65   am
    26    63    64    1
    27    30    29    2
    28    65    66    1
    29    35    29   am
    30    29    28    1
    31    66    69    1
    32    66    67    1
    33    26    24    1
    34    24    25    1
    35    24    21    1
    36    28    27    1
    37    28    31    1
    38    27    22   am
    39    67    68    2
    40     7     5    1
    41    33    31    1
    42    31    32    1
    43     1     2    1
    44    21    22    1
    45    21    20    1
    46     5     2    1
    47     5     6    1
    48    22    23    2
    49     4     3    2
    50     2     3    1
    51    32    34    1
    52     8     9    1
    53    16    17    1
    54    16    10   am
    55    14    13    2
    56    17    18    1
    57     9    10    1
    58     9    12    1
    59    10    11    2
    60    18    19    2
    61    13    12    1
    62    13    15   am
