@<TRIPOS>MOLECULE
tmp/5o2zA00.pdb
 78 72 0 0 0
SMALL
GASTEIGER

@<TRIPOS>ATOM
      1  N        -14.5510   -4.0220   80.6330 N.3    18  ARG18      -0.1245
      2  CA       -15.0590   -5.0430   79.7310 C.3    18  ARG18       0.1563
      3  C        -14.6110   -4.7250   78.3130 C.2    18  ARG18       0.2260
      4  O        -14.7350   -3.5860   77.8500 O.2    18  ARG18      -0.2867
      5  CB       -16.5800   -5.1300   79.7970 C.3    18  ARG18       0.0307
      6  CG       -17.1240   -6.2450   78.9370 C.3    18  ARG18       0.0489
      7  CD       -18.6350   -6.1730   78.7880 C.3    18  ARG18       0.2205
      8  NE       -19.0670   -7.1850   77.8370 N.pl3  18  ARG18      -0.0865
      9  CZ       -20.3260   -7.5530   77.6270 C.cat  18  ARG18       0.5346
     10  NH1      -21.3230   -6.9910   78.3020 N.pl3  18  ARG18       0.1354
     11  NH2      -20.5830   -8.4880   76.7190 N.pl3  18  ARG18       0.1354
     12  N        -28.8560  -17.7870   70.5920 N.3    35  ASN35      -0.1240
     13  CA       -29.1300  -17.6070   72.0100 C.3    35  ASN35       0.1653
     14  C        -29.7570  -16.2300   72.1680 C.2    35  ASN35       0.2266
     15  O        -29.6150  -15.3600   71.2970 O.2    35  ASN35      -0.2867
     16  CB       -27.8610  -17.7570   72.8860 C.3    35  ASN35       0.1155
     17  CG       -26.8980  -16.6120   72.6970 C.2    35  ASN35       0.2627
     18  OD1      -27.0840  -15.5480   73.2770 O.2    35  ASN35      -0.2716
     19  ND2      -25.8760  -16.8090   71.8580 N.am   35  ASN35      -0.0877
     20  N        -29.0530  -13.8140   74.1440 N.3    37  GLY37      -0.1210
     21  CA       -28.1790  -12.7420   74.5860 C.3    37  GLY37       0.1956
     22  C        -27.3990  -12.0240   73.4920 C.2    37  GLY37       0.2611
     23  O        -26.7010  -11.0500   73.7910 O.2    37  GLY37      -0.2717
     24  N        -27.5290  -12.4460   72.2360 N.am   38  ASP38      -0.1973
     25  CA       -26.7640  -11.9070   71.1170 C.3    38  ASP38       0.1709
     26  C        -27.7020  -11.6020   69.9590 C.2    38  ASP38       0.2293
     27  O        -28.8980  -11.8890   70.0080 O.2    38  ASP38      -0.2864
     28  CB       -25.6730  -12.8840   70.6680 C.3    38  ASP38       0.1436
     29  CG       -24.6930  -13.1910   71.7710 C.2    38  ASP38       0.3671
     30  OD1      -24.4570  -12.2930   72.5940 O.co2  38  ASP38      -0.2456
     31  OD2      -24.1630  -14.3180   71.8130 O.co2  38  ASP38      -0.2456
     32  N        -31.8880  -10.3510   75.5090 N.3    55  ASN55      -0.1225
     33  CA       -30.8070  -10.0010   76.4260 C.3    55  ASN55       0.1785
     34  C        -29.5790   -9.4540   75.7020 C.2    55  ASN55       0.2598
     35  O        -28.5010   -9.3700   76.3020 O.2    55  ASN55      -0.2718
     36  CB       -30.4220  -11.2090   77.2820 C.3    55  ASN55       0.1169
     37  CG       -31.5940  -11.7840   78.0220 C.2    55  ASN55       0.2627
     38  OD1      -32.4300  -11.0490   78.5390 O.2    55  ASN55      -0.2716
     39  ND2      -31.6740  -13.1090   78.0670 N.am   55  ASN55      -0.0877
     40  N        -29.7180   -9.0780   74.4310 N.am   56  SER56      -0.1938
     41  CA       -28.6140   -8.4730   73.6980 C.3    56  SER56       0.2055
     42  C        -28.4170   -7.0220   74.1410 C.2    56  SER56       0.2643
     43  O        -29.3230   -6.3780   74.6770 O.2    56  SER56      -0.2714
     44  CB       -28.8620   -8.5460   72.1880 C.3    56  SER56       0.2130
     45  OG       -30.0410   -7.8520   71.8090 O.3    56  SER56      -0.2179
     46  N        -27.2090   -6.5130   73.9310 N.am   57  ASN57      -0.1971
     47  CA       -26.8880   -5.1430   74.3080 C.3    57  ASN57       0.1688
     48  C        -26.9260   -4.2270   73.0830 C.2    57  ASN57       0.2292
     49  O        -27.0100   -4.6760   71.9320 O.2    57  ASN57      -0.2864
     50  CB       -25.5250   -5.0710   75.0110 C.3    57  ASN57       0.1181
     51  CG       -24.3970   -5.6370   74.1750 C.2    57  ASN57       0.2629
     52  OD1      -24.0710   -5.1160   73.1030 O.2    57  ASN57      -0.2716
     53  ND2      -23.7890   -6.7100   74.6600 N.am   57  ASN57      -0.0877
     54  N        -24.3140   -4.7650   70.2640 N.3    60  GLU60      -0.1245
     55  CA       -24.6130   -5.8690   69.3620 C.3    60  GLU60       0.1567
     56  C        -25.7200   -5.4930   68.3870 C.2    60  GLU60       0.2260
     57  O        -25.6590   -5.8580   67.2090 O.2    60  GLU60      -0.2867
     58  CB       -24.9770   -7.1160   70.1660 C.3    60  GLU60       0.0388
     59  CG       -23.7570   -7.7370   70.8620 C.3    60  GLU60       0.1160
     60  CD       -24.0950   -8.6150   72.0450 C.2    60  GLU60       0.3649
     61  OE1      -25.2740   -8.6520   72.4770 O.co2  60  GLU60      -0.2457
     62  OE2      -23.1620   -9.2660   72.5680 O.co2  60  GLU60      -0.2457
     63  N        -30.6100  -18.5800   77.3570 N.3   106  ALA106     -0.1231
     64  CA       -30.6820  -17.1470   77.6300 C.3   106  ALA106      0.1694
     65  C        -29.4030  -16.4230   77.2240 C.2   106  ALA106      0.2593
     66  O        -29.4420  -15.2310   76.8950 O.2   106  ALA106     -0.2718
     67  CB       -30.9790  -16.9120   79.1110 C.3   106  ALA106      0.0304
     68  N        -28.2710  -17.1180   77.2540 N.am  107  GLY107     -0.1942
     69  CA       -26.9910  -16.5750   76.8470 C.3   107  GLY107      0.2014
     70  C        -26.0540  -17.7270   76.5700 C.2   107  GLY107      0.2639
     71  O        -26.4550  -18.8920   76.5720 O.2   107  GLY107     -0.2714
     72  N        -24.7940  -17.3950   76.3160 N.am  108  THR108     -0.1950
     73  CA       -23.7640  -18.4110   76.1450 C.3   108  THR108      0.1897
     74  C        -23.2010  -18.7800   77.5110 C.2   108  THR108      0.2313
     75  O        -22.9220  -17.8990   78.3310 O.2   108  THR108     -0.2863
     76  CB       -22.6450  -17.9190   75.2260 C.3   108  THR108      0.1794
     77  OG1      -23.2060  -17.3900   74.0190 O.3   108  THR108     -0.2208
     78  CG2      -21.7080  -19.0680   74.8720 C.3   108  THR108      0.0378
@<TRIPOS>BOND
     1    57    56    2
     2    56    55    1
     3    55    58    1
     4    55    54    1
     5    26    27    2
     6    26    25    1
     7    58    59    1
     8    12    13    1
     9    28    25    1
    10    28    29    1
    11    59    60    1
    12    25    24    1
    13    15    14    2
    14    29    31   ar
    15    29    30   ar
    16    45    44    1
    17    19    17   am
    18    49    48    2
    19    13    14    1
    20    13    16    1
    21    60    61   ar
    22    60    62   ar
    23    44    41    1
    24    24    22   am
    25    17    16    1
    26    17    18    2
    27    48    47    1
    28    52    51    2
    29    22    23    2
    30    22    21    1
    31    41    42    1
    32    41    40    1
    33    46    42   am
    34    46    47    1
    35    77    76    1
    36    42    43    2
    37    20    21    1
    38    51    53   am
    39    51    50    1
    40    47    50    1
    41    40    34   am
    42    78    76    1
    43    76    73    1
    44    32    33    1
    45    34    35    2
    46    34    33    1
    47    73    72    1
    48    73    74    1
    49    72    70   am
    50    33    36    1
    51    70    71    2
    52    70    69    1
    53    11     9    1
    54    69    68    1
    55    66    65    2
    56    65    68   am
    57    65    64    1
    58    36    37    1
    59    63    64    1
    60    74    75    2
    61     9     8    2
    62     9    10    1
    63    64    67    1
    64     8     7    1
    65     4     3    2
    66    37    39   am
    67    37    38    2
    68     3     2    1
    69     7     6    1
    70     6     5    1
    71     2     5    1
    72     2     1    1
