@<TRIPOS>MOLECULE
tmp/5o38A00.pdb
 150 145 0 0 0
SMALL
GASTEIGER

@<TRIPOS>ATOM
      1  N        -15.8620    4.6400   -9.3180 N.3    28  TRP28      -0.1228
      2  CA       -17.2270    4.3650   -8.8520 C.3    28  TRP28       0.1722
      3  C        -17.4430    3.0090   -8.1510 C.2    28  TRP28       0.2437
      4  O        -18.2360    2.9430   -7.2180 O.2    28  TRP28      -0.2733
      5  CB       -18.2830    4.6300   -9.9400 C.3    28  TRP28       0.0563
      6  CG       -18.2740    3.6690  -11.0890 C.ar   28  TRP28       0.0003
      7  CD1      -17.6940    3.8630  -12.3110 C.ar   28  TRP28       0.0946
      8  CD2      -18.8700    2.3650  -11.1300 C.ar   28  TRP28       0.0152
      9  NE1      -17.8900    2.7590  -13.1050 N.ar   28  TRP28      -0.2442
     10  CE2      -18.6060    1.8250  -12.4050 C.ar   28  TRP28       0.0810
     11  CE3      -19.5960    1.5970  -10.2080 C.ar   28  TRP28       0.0012
     12  CZ2      -19.0480    0.5540  -12.7880 C.ar   28  TRP28       0.0191
     13  CZ3      -20.0260    0.3340  -10.5860 C.ar   28  TRP28       0.0001
     14  CH2      -19.7520   -0.1730  -11.8660 C.ar   28  TRP28       0.0015
     15  N        -16.7470    1.9330   -8.5750 N.am   29  PRO29      -0.2718
     16  CA       -17.0080    0.6700   -7.8700 C.3    29  PRO29       0.1535
     17  C        -16.6050    0.7090   -6.3980 C.2    29  PRO29       0.2598
     18  O        -17.0640   -0.1390   -5.6350 O.2    29  PRO29      -0.2715
     19  CB       -16.1320   -0.3350   -8.6200 C.3    29  PRO29       0.0310
     20  CG       -16.0030    0.2450   -9.9980 C.3    29  PRO29       0.0237
     21  CD       -15.8780    1.7280   -9.7480 C.3    29  PRO29       0.0939
     22  N        -15.7670    1.6750   -6.0220 N.am   30  PHE30      -0.1974
     23  CA       -15.2050    1.7720   -4.6800 C.3    30  PHE30       0.1639
     24  C        -15.9470    2.7670   -3.7950 C.2    30  PHE30       0.2290
     25  O        -15.5540    2.9950   -2.6570 O.2    30  PHE30      -0.2864
     26  CB       -13.7140    2.1060   -4.8010 C.3    30  PHE30       0.0560
     27  CG       -13.0150    1.1800   -5.7400 C.ar   30  PHE30      -0.0200
     28  CD1      -12.7030   -0.1120   -5.3450 C.ar   30  PHE30      -0.0042
     29  CD2      -12.7500    1.5610   -7.0480 C.ar   30  PHE30      -0.0042
     30  CE1      -12.1180   -0.9960   -6.2340 C.ar   30  PHE30      -0.0003
     31  CE2      -12.1700    0.6800   -7.9390 C.ar   30  PHE30      -0.0003
     32  CZ       -11.8530   -0.5990   -7.5320 C.ar   30  PHE30      -0.0000
     33  N        -19.0030    2.7500   -2.3640 N.3    32  LYS32      -0.1245
     34  CA       -19.8790    2.2510   -1.3030 C.3    32  LYS32       0.1561
     35  C        -19.5290    0.7990   -0.9920 C.2    32  LYS32       0.2260
     36  O        -18.9070    0.1220   -1.8060 O.2    32  LYS32      -0.2867
     37  CB       -21.3490    2.3670   -1.7340 C.3    32  LYS32       0.0271
     38  CG       -21.8410    3.8020   -1.8500 C.3    32  LYS32       0.0035
     39  CD       -22.0050    4.4340   -0.4690 C.3    32  LYS32       0.0206
     40  CE       -22.0740    5.9550   -0.5350 C.3    32  LYS32       0.1093
     41  NZ       -23.1670    6.4330   -1.4180 N.3    32  LYS32      -0.1314
     42  N        -19.4560   -3.0920   -0.8700 N.3    34  VAL34      -0.1245
     43  CA       -19.9640   -4.1300   -1.7530 C.3    34  VAL34       0.1561
     44  C        -21.2410   -4.7120   -1.1510 C.2    34  VAL34       0.2260
     45  O        -21.2560   -5.1010    0.0190 O.2    34  VAL34      -0.2867
     46  CB       -18.9200   -5.2490   -1.9420 C.3    34  VAL34       0.0252
     47  CG1      -19.5390   -6.4470   -2.6510 C.3    34  VAL34       0.0019
     48  CG2      -17.7130   -4.7220   -2.7170 C.3    34  VAL34       0.0019
     49  N        -25.2560   -8.1990   -5.8910 N.3    39  LEU39      -0.1245
     50  CA       -24.4070   -8.5470   -7.0240 C.3    39  LEU39       0.1561
     51  C        -24.3810  -10.0490   -7.2820 C.2    39  LEU39       0.2260
     52  O        -23.8410  -10.4990   -8.2900 O.2    39  LEU39      -0.2867
     53  CB       -22.9780   -8.0570   -6.7820 C.3    39  LEU39       0.0270
     54  CG       -22.7700   -6.5470   -6.6750 C.3    39  LEU39       0.0019
     55  CD1      -21.3080   -6.2430   -6.4080 C.3    39  LEU39       0.0001
     56  CD2      -23.2410   -5.8400   -7.9370 C.3    39  LEU39       0.0001
     57  N        -22.7110  -12.1540   -5.4760 N.3    41  VAL41      -0.1245
     58  CA       -21.3920  -12.6750   -5.1170 C.3    41  VAL41       0.1561
     59  C        -21.4640  -13.3240   -3.7360 C.2    41  VAL41       0.2260
     60  O        -20.9830  -12.7900   -2.7360 O.2    41  VAL41      -0.2867
     61  CB       -20.2730  -11.6040   -5.2480 C.3    41  VAL41       0.0252
     62  CG1      -20.0440  -11.2710   -6.7190 C.3    41  VAL41       0.0019
     63  CG2      -20.5880  -10.3390   -4.4370 C.3    41  VAL41       0.0019
     64  N        -18.4940  -13.6670   -1.3570 N.3    44  TYR44      -0.1241
     65  CA       -17.6770  -12.4790   -1.1110 C.3    44  TYR44       0.1605
     66  C        -17.2010  -12.3950    0.3340 C.2    44  TYR44       0.2264
     67  O        -16.0180  -12.1600    0.5970 O.2    44  TYR44      -0.2867
     68  CB       -18.4320  -11.2020   -1.5030 C.3    44  TYR44       0.0534
     69  CG       -17.5470   -9.9800   -1.4720 C.ar   44  TYR44      -0.0201
     70  CD1      -16.7170   -9.6770   -2.5460 C.ar   44  TYR44      -0.0009
     71  CD2      -17.5170   -9.1540   -0.3630 C.ar   44  TYR44      -0.0009
     72  CE1      -15.8860   -8.5770   -2.5190 C.ar   44  TYR44       0.0417
     73  CE2      -16.6880   -8.0360   -0.3220 C.ar   44  TYR44       0.0417
     74  CZ       -15.8740   -7.7560   -1.4030 C.ar   44  TYR44       0.1957
     75  OH       -15.0410   -6.6580   -1.3660 O.3    44  TYR44      -0.2866
     76  N        -13.8210   -2.9360    2.8450 N.3    52  MET52      -0.1245
     77  CA       -13.5330   -1.5150    2.9750 C.3    52  MET52       0.1570
     78  C        -13.9140   -0.8260    1.6760 C.2    52  MET52       0.2261
     79  O        -13.8660   -1.4400    0.6070 O.2    52  MET52      -0.2867
     80  CB       -12.0540   -1.2950    3.3090 C.3    52  MET52       0.0387
     81  CG       -11.6550    0.1420    3.6200 C.3    52  MET52       0.0595
     82  SD       -12.6550    0.9520    4.8830 S.3    52  MET52      -0.1393
     83  CE       -12.5030   -0.1890    6.2540 C.3    52  MET52       0.0692
     84  N         -8.8600   -1.7200    0.8460 N.3    79  MET79      -0.1245
     85  CA        -9.9080   -1.6550   -0.1670 C.3    79  MET79       0.1570
     86  C         -9.4100   -2.1960   -1.5180 C.2    79  MET79       0.2261
     87  O        -10.0700   -3.0220   -2.1560 O.2    79  MET79      -0.2867
     88  CB       -10.3800   -0.2100   -0.3060 C.3    79  MET79       0.0387
     89  CG       -11.4130    0.0240   -1.3790 C.3    79  MET79       0.0595
     90  SD       -11.7750    1.7870   -1.5620 S.3    79  MET79      -0.1393
     91  CE       -10.3640    2.2700   -2.5520 C.3    79  MET79       0.0692
     92  N        -10.1790   -6.0280   -3.6600 N.3    83  CYS83      -0.1235
     93  CA       -10.5130   -6.1240   -5.0730 C.3    83  CYS83       0.1677
     94  C         -9.5730   -7.0980   -5.7880 C.2    83  CYS83       0.2270
     95  O        -10.0220   -7.9580   -6.5470 O.2    83  CYS83      -0.2867
     96  CB       -10.4730   -4.7300   -5.7050 C.3    83  CYS83       0.0956
     97  SG       -11.0190   -4.6520   -7.4080 S.3    83  CYS83      -0.0801
     98  N        -10.4530  -10.8050   -4.5290 N.3    86  TYR86      -0.1227
     99  CA       -11.7110  -11.3990   -4.9520 C.3    86  TYR86       0.1736
    100  C        -11.8110  -11.6440   -6.4590 C.2    86  TYR86       0.2595
    101  O        -12.3250  -12.6760   -6.8940 O.2    86  TYR86      -0.2718
    102  CB       -12.9170  -10.5680   -4.4600 C.3    86  TYR86       0.0548
    103  CG       -14.1930  -11.2800   -4.8080 C.ar   86  TYR86      -0.0200
    104  CD1      -14.6330  -12.3480   -4.0410 C.ar   86  TYR86      -0.0009
    105  CD2      -14.9130  -10.9480   -5.9490 C.ar   86  TYR86      -0.0009
    106  CE1      -15.7680  -13.0600   -4.3850 C.ar   86  TYR86       0.0417
    107  CE2      -16.0520  -11.6450   -6.3000 C.ar   86  TYR86       0.0417
    108  CZ       -16.4750  -12.7020   -5.5160 C.ar   86  TYR86       0.1957
    109  OH       -17.6020  -13.4110   -5.8790 O.3    86  TYR86      -0.2866
    110  N        -11.3410  -10.6840   -7.2510 N.am   87  ASN87      -0.1974
    111  CA       -11.5430  -10.7110   -8.6950 C.3    87  ASN87       0.1688
    112  C        -10.3650  -11.3220   -9.4390 C.2    87  ASN87       0.2292
    113  O         -9.2290  -11.2100   -8.9960 O.2    87  ASN87      -0.2864
    114  CB       -11.7680   -9.2890   -9.1990 C.3    87  ASN87       0.1181
    115  CG       -12.9960   -8.6600   -8.5980 C.2    87  ASN87       0.2629
    116  OD1      -14.1180   -8.9530   -9.0110 O.2    87  ASN87      -0.2716
    117  ND2      -12.8000   -7.8070   -7.6030 N.am   87  ASN87      -0.0877
    118  N         -9.9800   -8.9090  -14.7700 N.3    91  HIS91      -0.1226
    119  CA       -11.2990   -8.2860  -14.6480 C.3    91  HIS91       0.1752
    120  C        -11.2240   -6.7760  -14.8800 C.2    91  HIS91       0.2596
    121  O        -10.2660   -6.1220  -14.4660 O.2    91  HIS91      -0.2718
    122  CB       -11.8960   -8.5650  -13.2670 C.3    91  HIS91       0.0759
    123  CG       -13.3820   -8.3810  -13.1940 C.ar   91  HIS91       0.0818
    124  ND1      -13.9870   -7.1410  -13.2160 N.ar   91  HIS91      -0.2268
    125  CD2      -14.3830   -9.2870  -13.0770 C.ar   91  HIS91       0.1154
    126  CE1      -15.2970   -7.2930  -13.1270 C.ar   91  HIS91       0.1986
    127  NE2      -15.5630   -8.5850  -13.0400 N.ar   91  HIS91      -0.2212
    128  N        -12.2420   -6.2240  -15.5320 N.am   92  ASP92      -0.1960
    129  CA       -12.3210   -4.7780  -15.7170 C.3    92  ASP92       0.1840
    130  C        -12.1630   -4.0110  -14.4010 C.2    92  ASP92       0.2621
    131  O        -11.5390   -2.9480  -14.3650 O.2    92  ASP92      -0.2715
    132  CB       -13.6560   -4.3800  -16.3550 C.3    92  ASP92       0.1450
    133  CG       -13.7420   -4.7370  -17.8260 C.2    92  ASP92       0.3671
    134  OD1      -12.6970   -5.0250  -18.4430 O.co2  92  ASP92      -0.2456
    135  OD2      -14.8670   -4.7090  -18.3670 O.co2  92  ASP92      -0.2456
    136  N        -12.7300   -4.5330  -13.3160 N.am   93  VAL93      -0.1977
    137  CA       -12.7000   -3.7800  -12.0660 C.3    93  VAL93       0.1596
    138  C        -11.2970   -3.7440  -11.4730 C.2    93  VAL93       0.2287
    139  O        -10.9350   -2.8120  -10.7550 O.2    93  VAL93      -0.2864
    140  CB       -13.7280   -4.3030  -11.0360 C.3    93  VAL93       0.0276
    141  CG1      -13.2590   -5.6010  -10.3860 C.3    93  VAL93       0.0022
    142  CG2      -13.9990   -3.2390   -9.9850 C.3    93  VAL93       0.0022
    143  N         -9.5800   -0.9160  -13.0680 N.3    96  MET96      -0.1245
    144  CA       -10.0630    0.3080  -12.4300 C.3    96  MET96       0.1570
    145  C         -9.3720    0.5440  -11.0900 C.2    96  MET96       0.2261
    146  O         -8.9370    1.6570  -10.7990 O.2    96  MET96      -0.2867
    147  CB       -11.5810    0.2420  -12.2560 C.3    96  MET96       0.0387
    148  CG       -12.3130    0.1780  -13.5930 C.3    96  MET96       0.0595
    149  SD       -13.9950   -0.4600  -13.5330 S.3    96  MET96      -0.1393
    150  CE       -14.8860    1.0320  -13.1490 C.3    96  MET96       0.0692
@<TRIPOS>BOND
     1   134   133   ar
     2   135   133   ar
     3   133   132    1
     4   132   129    1
     5   129   128    1
     6   129   130    1
     7   128   120   am
     8   120   119    1
     9   120   121    2
    10   118   119    1
    11   119   122    1
    12   130   131    2
    13   130   136   am
    14   148   149    1
    15   148   147    1
    16   149   150    1
    17   136   137    1
    18   122   123    1
    19   124   123   ar
    20   124   126   ar
    21   123   125   ar
    22   126   127   ar
    23     9    10   ar
    24     9     7   ar
    25   125   127   ar
    26   143   144    1
    27    12    10   ar
    28    12    14   ar
    29   144   147    1
    30   144   145    1
    31    10     8   ar
    32     7     6   ar
    33   137   138    1
    34   137   140    1
    35    14    13   ar
    36   138   139    2
    37     8     6   ar
    38     8    11   ar
    39   145   146    2
    40     6     5    1
    41   140   141    1
    42   140   142    1
    43    13    11   ar
    44    20    21    1
    45    20    19    1
    46     5     2    1
    47    21    15    1
    48   112   113    2
    49   112   111    1
    50     1     2    1
    51   114   111    1
    52   114   115    1
    53   116   115    2
    54     2     3    1
    55   111   110    1
    56    19    16    1
    57   115   117   am
    58    15     3   am
    59    15    16    1
    60    52    51    2
    61     3     4    2
    62    31    32   ar
    63    31    29   ar
    64    56    54    1
    65    16    17    1
    66    32    30   ar
    67    97    96    1
    68    51    50    1
    69   110   100   am
    70    29    27   ar
    71    50    53    1
    72    50    49    1
    73   101   100    2
    74    53    54    1
    75    62    61    1
    76    54    55    1
    77    95    94    2
    78   100    99    1
    79    17    22   am
    80    17    18    2
    81   107   105   ar
    82   107   108   ar
    83    30    28   ar
    84    22    23    1
    85   105   103   ar
    86   109   108    1
    87    94    93    1
    88    27    28   ar
    89    27    26    1
    90    96    93    1
    91   108   106   ar
    92    57    58    1
    93    61    58    1
    94    61    63    1
    95    58    59    1
    96    93    92    1
    97    99    98    1
    98    99   102    1
    99   103   102    1
   100   103   104   ar
   101    26    23    1
   102    23    24    1
   103   106   104   ar
   104    24    25    2
   105    59    60    2
   106    48    46    1
   107    47    46    1
   108    91    90    1
   109    70    72   ar
   110    70    69   ar
   111    72    74   ar
   112    33    34    1
   113    87    86    2
   114    46    43    1
   115    38    37    1
   116    38    39    1
   117    36    35    2
   118    43    44    1
   119    43    42    1
   120    37    34    1
   121    90    89    1
   122    86    85    1
   123    68    69    1
   124    68    65    1
   125    69    71   ar
   126    41    40    1
   127    74    75    1
   128    74    73   ar
   129    89    88    1
   130    64    65    1
   131    34    35    1
   132    44    45    2
   133    65    66    1
   134    40    39    1
   135    71    73   ar
   136    88    85    1
   137    85    84    1
   138    66    67    2
   139    79    78    2
   140    78    77    1
   141    76    77    1
   142    77    80    1
   143    80    81    1
   144    81    82    1
   145    82    83    1
