@<TRIPOS>MOLECULE
tmp/5o3bB00.pdb
 154 153 0 0 0
SMALL
GASTEIGER

@<TRIPOS>ATOM
      1  N        -25.2680  -16.7040    9.5760 N.3    25  TRP25      -0.1228
      2  CA       -24.4600  -17.6520   10.3590 C.3    25  TRP25       0.1722
      3  C        -24.4350  -19.1000    9.8480 C.2    25  TRP25       0.2437
      4  O        -23.4340  -19.7920   10.0150 O.2    25  TRP25      -0.2733
      5  CB       -24.8790  -17.6320   11.8410 C.3    25  TRP25       0.0563
      6  CG       -26.2810  -18.0620   12.1760 C.ar   25  TRP25       0.0003
      7  CD1      -27.3440  -17.2530   12.4140 C.ar   25  TRP25       0.0946
      8  CD2      -26.7590  -19.4040   12.3290 C.ar   25  TRP25       0.0152
      9  NE1      -28.4600  -18.0010   12.6840 N.ar   25  TRP25      -0.2442
     10  CE2      -28.1230  -19.3260   12.6530 C.ar   25  TRP25       0.0810
     11  CE3      -26.1650  -20.6600   12.2240 C.ar   25  TRP25       0.0012
     12  CZ2      -28.8980  -20.4500   12.8730 C.ar   25  TRP25       0.0191
     13  CZ3      -26.9360  -21.7720   12.4430 C.ar   25  TRP25       0.0001
     14  CH2      -28.2920  -21.6610   12.7580 C.ar   25  TRP25       0.0015
     15  N        -25.5070  -19.5670    9.2050 N.am   26  PRO26      -0.2718
     16  CA       -25.3820  -20.9180    8.6680 C.3    26  PRO26       0.1535
     17  C        -24.3240  -21.0390    7.5650 C.2    26  PRO26       0.2598
     18  O        -23.8960  -22.1510    7.2890 O.2    26  PRO26      -0.2715
     19  CB       -26.7660  -21.2040    8.0900 C.3    26  PRO26       0.0310
     20  CG       -27.6680  -20.2750    8.7890 C.3    26  PRO26       0.0237
     21  CD       -26.8680  -19.0400    9.0520 C.3    26  PRO26       0.0939
     22  N        -23.9270  -19.9290    6.9540 N.am   27  PHE27      -0.1974
     23  CA       -22.9950  -19.9870    5.8290 C.3    27  PHE27       0.1639
     24  C        -21.5550  -19.6330    6.2050 C.2    27  PHE27       0.2290
     25  O        -20.6860  -19.6180    5.3470 O.2    27  PHE27      -0.2864
     26  CB       -23.4930  -19.0770    4.7040 C.3    27  PHE27       0.0560
     27  CG       -24.9420  -19.2520    4.4250 C.ar   27  PHE27      -0.0200
     28  CD1      -25.8660  -18.3500    4.9160 C.ar   27  PHE27      -0.0042
     29  CD2      -25.3920  -20.3780    3.7640 C.ar   27  PHE27      -0.0042
     30  CE1      -27.2270  -18.5360    4.6860 C.ar   27  PHE27      -0.0003
     31  CE2      -26.7530  -20.5730    3.5480 C.ar   27  PHE27      -0.0003
     32  CZ       -27.6600  -19.6510    4.0120 C.ar   27  PHE27      -0.0000
     33  N        -19.2770  -21.3730    7.9980 N.3    29  LYS29      -0.1231
     34  CA       -18.3600  -22.4940    7.9270 C.3    29  LYS29       0.1678
     35  C        -18.9860  -23.6400    7.1430 C.2    29  LYS29       0.2434
     36  O        -20.1960  -23.6820    6.9630 O.2    29  LYS29      -0.2733
     37  CB       -17.9760  -22.9730    9.3380 C.3    29  LYS29       0.0284
     38  CG       -17.3150  -21.9250   10.2020 C.3    29  LYS29       0.0035
     39  CD       -15.8250  -22.1600   10.3080 C.3    29  LYS29       0.0206
     40  CE       -15.5230  -23.4280   11.1080 C.3    29  LYS29       0.1093
     41  NZ       -15.6930  -23.2470   12.5790 N.3    29  LYS29      -0.1314
     42  N        -18.1560  -24.5790    6.6860 N.am   30  PRO30      -0.2718
     43  CA       -18.6130  -25.7550    5.9470 C.3    30  PRO30       0.1535
     44  C        -19.7350  -26.4640    6.6850 C.2    30  PRO30       0.2598
     45  O        -19.7930  -26.4170    7.9120 O.2    30  PRO30      -0.2715
     46  CB       -17.3650  -26.6330    5.8770 C.3    30  PRO30       0.0310
     47  CG       -16.2300  -25.6840    5.9870 C.3    30  PRO30       0.0237
     48  CD       -16.6980  -24.5870    6.8900 C.3    30  PRO30       0.0939
     49  N        -20.6260  -27.1010    5.9400 N.am   31  VAL31      -0.1964
     50  CA       -21.7210  -27.8230    6.5520 C.3    31  VAL31       0.1727
     51  C        -21.1880  -29.0650    7.2540 C.2    31  VAL31       0.2616
     52  O        -20.4750  -29.8860    6.6620 O.2    31  VAL31      -0.2715
     53  CB       -22.7930  -28.2390    5.5370 C.3    31  VAL31       0.0290
     54  CG1      -23.7810  -29.1400    6.2000 C.3    31  VAL31       0.0023
     55  CG2      -23.5030  -27.0210    4.9460 C.3    31  VAL31       0.0023
     56  N        -21.5330  -29.1910    8.5270 N.am   32  ASP32      -0.1957
     57  CA       -21.2210  -30.3900    9.2690 C.3    32  ASP32       0.1840
     58  C        -22.4760  -31.2480    9.3440 C.2    32  ASP32       0.2621
     59  O        -23.2660  -31.1270   10.2710 O.2    32  ASP32      -0.2715
     60  CB       -20.7120  -30.0370   10.6610 C.3    32  ASP32       0.1450
     61  CG       -20.1000  -31.2130   11.3670 C.2    32  ASP32       0.3671
     62  OD1      -19.4410  -30.9910   12.3960 O.co2  32  ASP32      -0.2456
     63  OD2      -20.2650  -32.3540   10.8950 O.co2  32  ASP32      -0.2456
     64  N        -22.6500  -32.1120    8.3570 N.am   33  ALA33      -0.1977
     65  CA       -23.9070  -32.8200    8.1800 C.3    33  ALA33       0.1597
     66  C        -24.1930  -33.7650    9.3310 C.2    33  ALA33       0.2287
     67  O        -25.2980  -33.7800    9.8670 O.2    33  ALA33      -0.2864
     68  CB       -23.8990  -33.5770    6.8700 C.3    33  ALA33       0.0319
     69  N        -25.6920  -32.1550   12.1660 N.3    36  LEU36      -0.1245
     70  CA       -27.0260  -31.5980   12.0400 C.3    36  LEU36       0.1561
     71  C        -28.0350  -32.7150   11.8980 C.2    36  LEU36       0.2260
     72  O        -29.1850  -32.4730   11.5840 O.2    36  LEU36      -0.2867
     73  CB       -27.1090  -30.6470   10.8430 C.3    36  LEU36       0.0270
     74  CG       -26.2760  -29.3690   10.9360 C.3    36  LEU36       0.0019
     75  CD1      -26.0130  -28.7940    9.5760 C.3    36  LEU36       0.0001
     76  CD2      -26.9810  -28.3380   11.8110 C.3    36  LEU36       0.0001
     77  N        -28.0130  -35.1220    9.6570 N.3    38  VAL38      -0.1245
     78  CA       -28.2590  -35.4340    8.2660 C.3    38  VAL38       0.1561
     79  C        -27.1690  -36.3580    7.7560 C.2    38  VAL38       0.2260
     80  O        -26.0060  -36.1680    8.0650 O.2    38  VAL38      -0.2867
     81  CB       -28.3090  -34.1640    7.4180 C.3    38  VAL38       0.0252
     82  CG1      -28.2040  -34.5040    5.9450 C.3    38  VAL38       0.0019
     83  CG2      -29.5770  -33.3780    7.7270 C.3    38  VAL38       0.0019
     84  N        -26.3110  -35.4620    2.9380 N.3    41  TYR41      -0.1241
     85  CA       -25.9570  -34.1660    2.3830 C.3    41  TYR41       0.1605
     86  C        -24.9550  -34.2990    1.2500 C.2    41  TYR41       0.2264
     87  O        -25.0990  -33.6550    0.2210 O.2    41  TYR41      -0.2867
     88  CB       -25.3880  -33.2410    3.4560 C.3    41  TYR41       0.0534
     89  CG       -25.1510  -31.8340    2.9700 C.ar   41  TYR41      -0.0201
     90  CD1      -26.1920  -30.9340    2.8700 C.ar   41  TYR41      -0.0009
     91  CD2      -23.8880  -31.4040    2.6140 C.ar   41  TYR41      -0.0009
     92  CE1      -25.9920  -29.6550    2.4360 C.ar   41  TYR41       0.0417
     93  CE2      -23.6720  -30.1160    2.1760 C.ar   41  TYR41       0.0417
     94  CZ       -24.7260  -29.2420    2.0870 C.ar   41  TYR41       0.1957
     95  OH       -24.5250  -27.9520    1.6520 O.3    41  TYR41      -0.2866
     96  N        -27.6800  -24.8130   -0.8410 N.3    80  CYS80      -0.1235
     97  CA       -28.6520  -24.6700    0.2210 C.3    80  CYS80       0.1677
     98  C        -30.0510  -24.8340   -0.3680 C.2    80  CYS80       0.2270
     99  O        -30.8600  -25.6000    0.1520 O.2    80  CYS80      -0.2867
    100  CB       -28.4760  -23.3140    0.9200 C.3    80  CYS80       0.0956
    101  SG       -29.7190  -22.9530    2.1760 S.3    80  CYS80      -0.0801
    102  N        -30.6870  -28.6210   -1.5670 N.3    83  TYR83      -0.1227
    103  CA       -30.9010  -29.6390   -0.5390 C.3    83  TYR83       0.1736
    104  C        -32.2180  -29.4510    0.2210 C.2    83  TYR83       0.2595
    105  O        -32.8200  -30.4170    0.6570 O.2    83  TYR83      -0.2718
    106  CB       -29.7400  -29.6760    0.4720 C.3    83  TYR83       0.0548
    107  CG       -29.8850  -30.8470    1.4320 C.ar   83  TYR83      -0.0200
    108  CD1      -29.5150  -32.1260    1.0520 C.ar   83  TYR83      -0.0009
    109  CD2      -30.4560  -30.6830    2.6900 C.ar   83  TYR83      -0.0009
    110  CE1      -29.6820  -33.2080    1.8970 C.ar   83  TYR83       0.0417
    111  CE2      -30.6290  -31.7620    3.5400 C.ar   83  TYR83       0.0417
    112  CZ       -30.2410  -33.0180    3.1420 C.ar   83  TYR83       0.1957
    113  OH       -30.4040  -34.0980    3.9790 O.3    83  TYR83      -0.2866
    114  N        -32.6480  -28.2090    0.3780 N.am   84  ASN84      -0.1974
    115  CA       -33.7510  -27.8950    1.2740 C.3    84  ASN84       0.1688
    116  C        -35.0680  -27.5400    0.5730 C.2    84  ASN84       0.2292
    117  O        -35.0620  -26.9720   -0.5290 O.2    84  ASN84      -0.2864
    118  CB       -33.3370  -26.7520    2.1890 C.3    84  ASN84       0.1181
    119  CG       -32.2280  -27.1520    3.1520 C.2    84  ASN84       0.2629
    120  OD1      -32.4810  -27.8230    4.1470 O.2    84  ASN84      -0.2716
    121  ND2      -30.9950  -26.7460    2.8540 N.am   84  ASN84      -0.0877
    122  N        -38.0890  -23.8220    4.1970 N.3    88  HIS88      -0.1226
    123  CA       -37.1200  -24.0160    5.2700 C.3    88  HIS88       0.1752
    124  C        -36.5040  -22.6850    5.6740 C.2    88  HIS88       0.2596
    125  O        -36.1480  -21.8740    4.8250 O.2    88  HIS88      -0.2718
    126  CB       -36.0340  -24.9900    4.8180 C.3    88  HIS88       0.0759
    127  CG       -35.1960  -25.5490    5.9300 C.ar   88  HIS88       0.0818
    128  ND1      -34.3900  -24.7660    6.7270 N.ar   88  HIS88      -0.2268
    129  CD2      -35.0060  -26.8240    6.3440 C.ar   88  HIS88       0.1154
    130  CE1      -33.7560  -25.5320    7.5960 C.ar   88  HIS88       0.1986
    131  NE2      -34.1090  -26.7860    7.3830 N.ar   88  HIS88      -0.2212
    132  N        -36.4040  -22.4640    6.9780 N.am   89  ASP89      -0.1960
    133  CA       -35.7820  -21.2730    7.5420 C.3    89  ASP89       0.1840
    134  C        -34.4660  -20.9280    6.8610 C.2    89  ASP89       0.2621
    135  O        -34.1790  -19.7650    6.6150 O.2    89  ASP89      -0.2715
    136  CB       -35.5250  -21.4580    9.0440 C.3    89  ASP89       0.1450
    137  CG       -36.8090  -21.5270    9.8640 C.2    89  ASP89       0.3671
    138  OD1      -37.3910  -22.6210    9.9880 O.co2  89  ASP89      -0.2456
    139  OD2      -37.2280  -20.4880   10.3950 O.co2  89  ASP89      -0.2456
    140  N        -33.6710  -21.9490    6.5600 N.am   90  VAL90      -0.1977
    141  CA       -32.3210  -21.6900    6.0790 C.3    90  VAL90       0.1596
    142  C        -32.3770  -21.1900    4.6400 C.2    90  VAL90       0.2287
    143  O        -31.5410  -20.3960    4.2400 O.2    90  VAL90      -0.2864
    144  CB       -31.4180  -22.9230    6.1790 C.3    90  VAL90       0.0276
    145  CG1      -31.7170  -23.8920    5.0780 C.3    90  VAL90       0.0022
    146  CG2      -29.9600  -22.4990    6.1500 C.3    90  VAL90       0.0022
    147  N        -33.0260  -17.5980    4.9820 N.3    93  MET93      -0.1245
    148  CA       -31.8110  -16.9110    5.3980 C.3    93  MET93       0.1570
    149  C        -30.8670  -16.7700    4.1940 C.2    93  MET93       0.2261
    150  O        -30.3090  -15.7070    3.9500 O.2    93  MET93      -0.2867
    151  CB       -31.1530  -17.6670    6.5570 C.3    93  MET93       0.0387
    152  CG       -32.0110  -17.6220    7.8260 C.3    93  MET93       0.0595
    153  SD       -31.5620  -18.8380    9.0610 S.3    93  MET93      -0.1393
    154  CE       -30.1740  -17.9890    9.7820 C.3    93  MET93       0.0692
@<TRIPOS>BOND
     1   102   103    1
     2    96    97    1
     3   103   104    1
     4   103   106    1
     5   117   116    2
     6    98    99    2
     7    98    97    1
     8    87    86    2
     9    97   100    1
    10   104   114   am
    11   104   105    2
    12   114   115    1
    13   106   107    1
    14   116   115    1
    15   100   101    1
    16   108   107   ar
    17   108   110   ar
    18    86    85    1
    19   115   118    1
    20   107   109   ar
    21    95    94    1
    22   110   112   ar
    23    94    93   ar
    24    94    92   ar
    25    93    91   ar
    26   118   119    1
    27    85    84    1
    28    85    88    1
    29    92    90   ar
    30    91    89   ar
    31   109   111   ar
    32   121   119   am
    33    90    89   ar
    34    89    88    1
    35   112   111   ar
    36   112   113    1
    37   119   120    2
    38    31    29   ar
    39    31    32   ar
    40    29    27   ar
    41   150   149    2
    42    32    30   ar
    43   149   148    1
    44   122   123    1
    45   143   142    2
    46    27    26    1
    47    27    28   ar
    48   142   141    1
    49    30    28   ar
    50    26    23    1
    51   126   123    1
    52   126   127    1
    53   125   124    2
    54    55    53    1
    55   147   148    1
    56   145   144    1
    57   123   124    1
    58    25    24    2
    59   148   151    1
    60    53    54    1
    61    53    50    1
    62   124   132   am
    63    23    24    1
    64    23    22    1
    65    46    43    1
    66    46    47    1
    67   127   129   ar
    68   127   128   ar
    69    49    50    1
    70    49    44   am
    71    82    81    1
    72    43    44    1
    73    43    42    1
    74    47    48    1
    75   141   144    1
    76   141   140    1
    77   146   144    1
    78   129   131   ar
    79    50    51    1
    80   151   152    1
    81   140   134   am
    82   135   134    2
    83    52    51    2
    84    44    45    2
    85    42    48    1
    86    42    35   am
    87   128   130   ar
    88   134   133    1
    89    68    65    1
    90    22    17   am
    91    36    35    2
    92   132   133    1
    93    35    34    1
    94    51    56   am
    95    18    17    2
    96   131   130   ar
    97    81    83    1
    98    81    78    1
    99   133   136    1
   100    17    16    1
   101    79    80    2
   102    79    78    1
   103   152   153    1
   104    34    33    1
   105    34    37    1
   106    19    16    1
   107    19    20    1
   108    65    64    1
   109    65    66    1
   110    78    77    1
   111    64    58   am
   112    56    57    1
   113    16    15    1
   114    20    21    1
   115   136   137    1
   116    21    15    1
   117   153   154    1
   118    15     3   am
   119    57    58    1
   120    57    60    1
   121    66    67    2
   122    37    38    1
   123    58    59    2
   124    75    74    1
   125     1     2    1
   126     3     4    2
   127     3     2    1
   128   137   138   ar
   129   137   139   ar
   130    38    39    1
   131    39    40    1
   132     2     5    1
   133    60    61    1
   134    73    74    1
   135    73    70    1
   136    63    61   ar
   137    74    76    1
   138    40    41    1
   139    61    62   ar
   140    72    71    2
   141     5     6    1
   142    71    70    1
   143    70    69    1
   144     6     8   ar
   145     6     7   ar
   146    11     8   ar
   147    11    13   ar
   148     8    10   ar
   149     7     9   ar
   150    13    14   ar
   151    10     9   ar
   152    10    12   ar
   153    14    12   ar
