@<TRIPOS>MOLECULE
tmp/5o3dA00.pdb
 149 148 0 0 0
SMALL
GASTEIGER

@<TRIPOS>ATOM
      1  N         15.9610   76.2600    9.3320 N.3    28  TRP28      -0.1228
      2  CA        17.3220   76.0100    8.8380 C.3    28  TRP28       0.1722
      3  C         17.5520   74.6400    8.1520 C.2    28  TRP28       0.2437
      4  O         18.3610   74.5630    7.2280 O.2    28  TRP28      -0.2733
      5  CB        18.3660   76.2160    9.9680 C.3    28  TRP28       0.0563
      6  CG        18.3210   75.2380   11.0970 C.ar   28  TRP28       0.0003
      7  CD1       17.6890   75.3950   12.3050 C.ar   28  TRP28       0.0946
      8  CD2       18.9340   73.9460   11.1320 C.ar   28  TRP28       0.0152
      9  NE1       17.8690   74.2700   13.0820 N.ar   28  TRP28      -0.2442
     10  CE2       18.6260   73.3670   12.3800 C.ar   28  TRP28       0.0810
     11  CE3       19.7060   73.2160   10.2240 C.ar   28  TRP28       0.0012
     12  CZ2       19.0700   72.0930   12.7420 C.ar   28  TRP28       0.0191
     13  CZ3       20.1450   71.9480   10.5840 C.ar   28  TRP28       0.0001
     14  CH2       19.8190   71.4000   11.8280 C.ar   28  TRP28       0.0015
     15  N         16.8510   73.5690    8.5680 N.am   29  PRO29      -0.2718
     16  CA        17.1140   72.2990    7.8720 C.3    29  PRO29       0.1535
     17  C         16.7210   72.3410    6.3970 C.2    29  PRO29       0.2598
     18  O         17.1520   71.4790    5.6290 O.2    29  PRO29      -0.2715
     19  CB        16.2360   71.2910    8.6190 C.3    29  PRO29       0.0310
     20  CG        16.0840   71.8860    9.9880 C.3    29  PRO29       0.0237
     21  CD        15.9590   73.3800    9.7250 C.3    29  PRO29       0.0939
     22  N         15.9250   73.3350    6.0150 N.am   30  PHE30      -0.1974
     23  CA        15.3400   73.3850    4.6810 C.3    30  PHE30       0.1639
     24  C         16.0490   74.3710    3.7690 C.2    30  PHE30       0.2290
     25  O         15.6190   74.5950    2.6400 O.2    30  PHE30      -0.2864
     26  CB        13.8500   73.7280    4.8060 C.3    30  PHE30       0.0560
     27  CG        13.1250   72.7860    5.7170 C.ar   30  PHE30      -0.0200
     28  CD1       12.8890   73.1200    7.0390 C.ar   30  PHE30      -0.0042
     29  CD2       12.7700   71.5160    5.2740 C.ar   30  PHE30      -0.0042
     30  CE1       12.2670   72.2220    7.8970 C.ar   30  PHE30      -0.0003
     31  CE2       12.1450   70.6130    6.1300 C.ar   30  PHE30      -0.0003
     32  CZ        11.8920   70.9650    7.4390 C.ar   30  PHE30      -0.0000
     33  N         19.0940   74.2760    2.3220 N.3    32  LYS32      -0.1231
     34  CA        19.9450   73.7430    1.2550 C.3    32  LYS32       0.1678
     35  C         19.5650   72.2920    0.9440 C.2    32  LYS32       0.2434
     36  O         18.9190   71.6280    1.7580 O.2    32  LYS32      -0.2733
     37  CB        21.4220   73.8380    1.6660 C.3    32  LYS32       0.0284
     38  CG        21.9710   75.2700    1.7150 C.3    32  LYS32       0.0035
     39  CD        22.1610   75.8240    0.3140 C.3    32  LYS32       0.0206
     40  CE        21.9900   77.3510    0.2690 C.3    32  LYS32       0.1093
     41  NZ        23.0350   78.1010    1.0280 N.3    32  LYS32      -0.1314
     42  N         19.9570   71.7850   -0.2350 N.am   33  PRO33      -0.2718
     43  CA        19.6480   70.3840   -0.5460 C.3    33  PRO33       0.1535
     44  C         20.1630   69.4290    0.5190 C.2    33  PRO33       0.2598
     45  O         21.2930   69.6020    0.9910 O.2    33  PRO33      -0.2715
     46  CB        20.3890   70.1520   -1.8680 C.3    33  PRO33       0.0310
     47  CG        20.4650   71.4960   -2.4890 C.3    33  PRO33       0.0237
     48  CD        20.6890   72.4380   -1.3340 C.3    33  PRO33       0.0939
     49  N         19.3550   68.4390    0.8970 N.am   34  VAL34      -0.1964
     50  CA        19.8480   67.3660    1.7470 C.3    34  VAL34       0.1727
     51  C         21.1110   66.7510    1.1400 C.2    34  VAL34       0.2616
     52  O         21.1190   66.3500   -0.0290 O.2    34  VAL34      -0.2715
     53  CB        18.7780   66.2870    1.9440 C.3    34  VAL34       0.0290
     54  CG1       19.3680   65.0660    2.6350 C.3    34  VAL34       0.0023
     55  CG2       17.6060   66.8510    2.7380 C.3    34  VAL34       0.0023
     56  N         22.1810   66.7270    1.9320 N.am   35  ASP35      -0.1971
     57  CA        23.4180   66.0370    1.5740 C.3    35  ASP35       0.1709
     58  C         23.3830   64.6610    2.2350 C.2    35  ASP35       0.2293
     59  O         23.7390   64.5120    3.4020 O.2    35  ASP35      -0.2864
     60  CB        24.6300   66.8560    2.0250 C.3    35  ASP35       0.1436
     61  CG        25.9520   66.2850    1.5380 C.2    35  ASP35       0.3671
     62  OD1       26.0130   65.0810    1.2240 O.co2  35  ASP35      -0.2456
     63  OD2       26.9410   67.0570    1.4860 O.co2  35  ASP35      -0.2456
     64  N         25.0390   63.3100    5.8780 N.3    39  LEU39      -0.1245
     65  CA        24.1680   63.0270    7.0190 C.3    39  LEU39       0.1561
     66  C         24.1000   61.5350    7.3360 C.2    39  LEU39       0.2260
     67  O         23.5080   61.1400    8.3360 O.2    39  LEU39      -0.2867
     68  CB        22.7560   63.5630    6.7590 C.3    39  LEU39       0.0270
     69  CG        22.6550   65.0840    6.6870 C.3    39  LEU39       0.0019
     70  CD1       21.2290   65.5070    6.3430 C.3    39  LEU39       0.0001
     71  CD2       23.1130   65.7080    7.9980 C.3    39  LEU39       0.0001
     72  N         22.5320   59.2990    5.6010 N.3    41  VAL41      -0.1245
     73  CA        21.2270   58.7380    5.2620 C.3    41  VAL41       0.1561
     74  C         21.2740   58.1200    3.8660 C.2    41  VAL41       0.2260
     75  O         20.7620   58.6640    2.8830 O.2    41  VAL41      -0.2867
     76  CB        20.1040   59.8010    5.3780 C.3    41  VAL41       0.0252
     77  CG1       19.9070   60.1740    6.8370 C.3    41  VAL41       0.0019
     78  CG2       20.4130   61.0410    4.5400 C.3    41  VAL41       0.0019
     79  N         18.2870   57.8300    1.4610 N.3    44  TYR44      -0.1241
     80  CA        17.4710   59.0200    1.1990 C.3    44  TYR44       0.1605
     81  C         16.9980   59.1100   -0.2470 C.2    44  TYR44       0.2264
     82  O         15.8210   59.3720   -0.5020 O.2    44  TYR44      -0.2867
     83  CB        18.2350   60.2980    1.5680 C.3    44  TYR44       0.0534
     84  CG        17.3540   61.5350    1.5550 C.ar   44  TYR44      -0.0201
     85  CD1       16.5320   61.8430    2.6320 C.ar   44  TYR44      -0.0009
     86  CD2       17.3190   62.3660    0.4530 C.ar   44  TYR44      -0.0009
     87  CE1       15.7110   62.9750    2.6180 C.ar   44  TYR44       0.0417
     88  CE2       16.5030   63.5050    0.4260 C.ar   44  TYR44       0.0417
     89  CZ        15.7040   63.7960    1.5070 C.ar   44  TYR44       0.1957
     90  OH        14.8890   64.9150    1.4740 O.3    44  TYR44      -0.2866
     91  N         10.0790   65.6050    3.6720 N.3    83  CYS83      -0.1235
     92  CA        10.4230   65.5060    5.0820 C.3    83  CYS83       0.1677
     93  C          9.4710   64.5520    5.7990 C.2    83  CYS83       0.2270
     94  O          9.9080   63.7050    6.5720 O.2    83  CYS83      -0.2867
     95  CB        10.3940   66.8920    5.7190 C.3    83  CYS83       0.0956
     96  SG        11.0350   66.9370    7.3890 S.3    83  CYS83      -0.0801
     97  N         10.2500   60.8010    4.5920 N.3    86  TYR86      -0.1227
     98  CA        11.4780   60.1320    5.0110 C.3    86  TYR86       0.1736
     99  C         11.5460   59.8790    6.5120 C.2    86  TYR86       0.2595
    100  O         12.0230   58.8290    6.9480 O.2    86  TYR86      -0.2718
    101  CB        12.7110   60.9420    4.5890 C.3    86  TYR86       0.0548
    102  CG        13.9690   60.1900    4.9370 C.ar   86  TYR86      -0.0200
    103  CD1       14.4180   59.1610    4.1330 C.ar   86  TYR86      -0.0009
    104  CD2       14.6670   60.4750    6.1010 C.ar   86  TYR86      -0.0009
    105  CE1       15.5470   58.4440    4.4570 C.ar   86  TYR86       0.0417
    106  CE2       15.7920   59.7550    6.4430 C.ar   86  TYR86       0.0417
    107  CZ        16.2320   58.7520    5.6110 C.ar   86  TYR86       0.1957
    108  OH        17.3540   58.0270    5.9470 O.3    86  TYR86      -0.2866
    109  N         11.0930   60.8540    7.3000 N.am   87  ASN87      -0.1974
    110  CA        11.2770   60.8440    8.7470 C.3    87  ASN87       0.1688
    111  C         10.0690   60.3030    9.5040 C.2    87  ASN87       0.2292
    112  O          8.9350   60.5080    9.0920 O.2    87  ASN87      -0.2864
    113  CB        11.5690   62.2670    9.2310 C.3    87  ASN87       0.1181
    114  CG        12.7940   62.8610    8.5900 C.2    87  ASN87       0.2629
    115  OD1       12.7040   63.7090    7.6830 O.2    87  ASN87      -0.2716
    116  ND2       13.9520   62.4350    9.0550 N.am   87  ASN87      -0.0877
    117  N          9.7830   62.7670   14.8350 N.3    91  HIS91      -0.1226
    118  CA        11.1340   63.3300   14.7310 C.3    91  HIS91       0.1752
    119  C         11.1300   64.8600   14.8850 C.2    91  HIS91       0.2596
    120  O         10.2030   65.5410   14.4330 O.2    91  HIS91      -0.2718
    121  CB        11.7550   62.9330   13.3840 C.3    91  HIS91       0.0759
    122  CG        13.2350   63.1570   13.2970 C.ar   91  HIS91       0.0818
    123  ND1       13.8020   64.4140   13.2640 N.ar   91  HIS91      -0.2268
    124  CD2       14.2630   62.2780   13.2080 C.ar   91  HIS91       0.1154
    125  CE1       15.1140   64.3010   13.1720 C.ar   91  HIS91       0.1986
    126  NE2       15.4210   63.0160   13.1360 N.ar   91  HIS91      -0.2212
    127  N         12.1770   65.3990   15.5090 N.am   92  ASP92      -0.1960
    128  CA        12.2990   66.8450   15.6730 C.3    92  ASP92       0.1840
    129  C         12.1660   67.6000   14.3450 C.2    92  ASP92       0.2621
    130  O         11.5660   68.6830   14.2970 O.2    92  ASP92      -0.2715
    131  CB        13.6460   67.2100   16.3190 C.3    92  ASP92       0.1450
    132  CG        13.7390   66.7920   17.7840 C.2    92  ASP92       0.3671
    133  OD1       12.6990   66.4760   18.3990 O.co2  92  ASP92      -0.2456
    134  OD2       14.8630   66.7950   18.3230 O.co2  92  ASP92      -0.2456
    135  N         12.7390   67.0620   13.2710 N.am   93  VAL93      -0.1977
    136  CA        12.7470   67.8110   12.0060 C.3    93  VAL93       0.1596
    137  C         11.3340   67.8930   11.4200 C.2    93  VAL93       0.2287
    138  O         10.9970   68.8580   10.7240 O.2    93  VAL93      -0.2864
    139  CB        13.7190   67.2000   10.9700 C.3    93  VAL93       0.0276
    140  CG1       13.2050   65.8470   10.4510 C.3    93  VAL93       0.0022
    141  CG2       13.9550   68.2020    9.8220 C.3    93  VAL93       0.0022
    142  N          9.6010   70.7500   13.0490 N.3    96  MET96      -0.1245
    143  CA        10.0870   71.9680   12.4210 C.3    96  MET96       0.1570
    144  C          9.4050   72.1990   11.0730 C.2    96  MET96       0.2261
    145  O          9.0140   73.3230   10.7550 O.2    96  MET96      -0.2867
    146  CB        11.6080   71.9060   12.2480 C.3    96  MET96       0.0387
    147  CG        12.3080   71.7380   13.5870 C.3    96  MET96       0.0595
    148  SD        14.0290   71.2190   13.4560 S.3    96  MET96      -0.1393
    149  CE        14.7880   72.7220   12.9490 C.3    96  MET96       0.0692
@<TRIPOS>BOND
     1    47    46    1
     2    47    48    1
     3    46    43    1
     4    48    42    1
     5    43    42    1
     6    43    44    1
     7    82    81    2
     8    81    80    1
     9    42    35   am
    10    52    51    2
    11    40    39    1
    12    40    41    1
    13    39    38    1
    14    88    86   ar
    15    88    89   ar
    16    86    84   ar
    17    44    49   am
    18    44    45    2
    19    49    50    1
    20    35    34    1
    21    35    36    2
    22    51    50    1
    23    51    56   am
    24    80    79    1
    25    80    83    1
    26    62    61   ar
    27    34    37    1
    28    34    33    1
    29    90    89    1
    30    63    61   ar
    31    89    87   ar
    32    61    60    1
    33    84    83    1
    34    84    85   ar
    35    57    56    1
    36    57    60    1
    37    57    58    1
    38    37    38    1
    39    50    53    1
    40    53    54    1
    41    53    55    1
    42    58    59    2
    43    87    85   ar
    44    25    24    2
    45    75    74    2
    46    91    92    1
    47    24    23    1
    48    74    73    1
    49   103   105   ar
    50   103   102   ar
    51   105   107   ar
    52    78    76    1
    53   101   102    1
    54   101    98    1
    55    97    98    1
    56    23    26    1
    57    23    22    1
    58    26    27    1
    59   102   104   ar
    60    98    99    1
    61    92    95    1
    62    92    93    1
    63    73    76    1
    64    73    72    1
    65    29    27   ar
    66    29    31   ar
    67    76    77    1
    68   107   108    1
    69   107   106   ar
    70    18    17    2
    71    27    28   ar
    72    95    96    1
    73    93    94    2
    74    64    65    1
    75    22    17   am
    76   104   106   ar
    77    31    32   ar
    78    70    69    1
    79    17    16    1
    80    99   100    2
    81    99   109   am
    82    69    68    1
    83    69    71    1
    84    68    65    1
    85    65    66    1
    86    28    30   ar
    87     4     3    2
    88   109   110    1
    89    66    67    2
    90    32    30   ar
    91   115   114    2
    92    16    15    1
    93    16    19    1
    94     3    15   am
    95     3     2    1
    96    15    21    1
    97   114   116   am
    98   114   113    1
    99    19    20    1
   100   110   113    1
   101   110   111    1
   102     2     1    1
   103     2     5    1
   104   112   111    2
   105    21    20    1
   106   141   139    1
   107     5     6    1
   108    11    13   ar
   109    11     8   ar
   110   140   139    1
   111    13    14   ar
   112   138   137    2
   113   145   144    2
   114   139   136    1
   115   144   143    1
   116     6     8   ar
   117     6     7   ar
   118     8    10   ar
   119   137   136    1
   120    14    12   ar
   121   136   135    1
   122   146   143    1
   123   146   147    1
   124     7     9   ar
   125    10    12   ar
   126    10     9   ar
   127   143   142    1
   128   149   148    1
   129   126   125   ar
   130   126   124   ar
   131   125   123   ar
   132   124   122   ar
   133   123   122   ar
   134   135   129   am
   135   122   121    1
   136   121   118    1
   137   148   147    1
   138   130   129    2
   139   129   128    1
   140   120   119    2
   141   118   117    1
   142   118   119    1
   143   119   127   am
   144   127   128    1
   145   128   131    1
   146   131   132    1
   147   132   134   ar
   148   132   133   ar
