@<TRIPOS>MOLECULE
tmp/5o3fA00.pdb
 157 155 0 0 0
SMALL
GASTEIGER

@<TRIPOS>ATOM
      1  N        -15.8190    4.5840   -9.2730 N.3    25  TRP25      -0.1228
      2  CA       -17.2000    4.3640   -8.8290 C.3    25  TRP25       0.1722
      3  C        -17.4650    3.0000   -8.1590 C.2    25  TRP25       0.2437
      4  O        -18.2460    2.9380   -7.2170 O.2    25  TRP25      -0.2733
      5  CB       -18.1980    4.5900   -9.9890 C.3    25  TRP25       0.0563
      6  CG       -18.1590    3.6490  -11.1400 C.ar   25  TRP25       0.0003
      7  CD1      -17.5710    3.8620  -12.3540 C.ar   25  TRP25       0.0946
      8  CD2      -18.7770    2.3580  -11.2160 C.ar   25  TRP25       0.0152
      9  NE1      -17.7630    2.7770  -13.1710 N.ar   25  TRP25      -0.2442
     10  CE2      -18.4970    1.8360  -12.4970 C.ar   25  TRP25       0.0810
     11  CE3      -19.5250    1.5850  -10.3220 C.ar   25  TRP25       0.0012
     12  CZ2      -18.9350    0.5770  -12.9040 C.ar   25  TRP25       0.0191
     13  CZ3      -19.9560    0.3240  -10.7270 C.ar   25  TRP25       0.0001
     14  CH2      -19.6590   -0.1620  -12.0100 C.ar   25  TRP25       0.0015
     15  N        -16.8120    1.9120   -8.6150 N.am   26  PRO26      -0.2718
     16  CA       -17.0420    0.6410   -7.9070 C.3    26  PRO26       0.1535
     17  C        -16.6540    0.6810   -6.4220 C.2    26  PRO26       0.2598
     18  O        -17.1600   -0.1070   -5.6390 O.2    26  PRO26      -0.2715
     19  CB       -16.1470   -0.3540   -8.6570 C.3    26  PRO26       0.0310
     20  CG       -15.9750    0.2430  -10.0200 C.3    26  PRO26       0.0237
     21  CD       -15.9380    1.7390   -9.7870 C.3    26  PRO26       0.0939
     22  N        -15.7730    1.6040   -6.0610 N.am   27  PHE27      -0.1974
     23  CA       -15.2360    1.6900   -4.7130 C.3    27  PHE27       0.1639
     24  C        -15.9540    2.7030   -3.8180 C.2    27  PHE27       0.2290
     25  O        -15.5360    2.9350   -2.6840 O.2    27  PHE27      -0.2864
     26  CB       -13.7420    2.0130   -4.8060 C.3    27  PHE27       0.0560
     27  CG       -13.0080    1.0890   -5.7310 C.ar   27  PHE27      -0.0200
     28  CD1      -12.6170   -0.1680   -5.3020 C.ar   27  PHE27      -0.0042
     29  CD2      -12.7670    1.4450   -7.0440 C.ar   27  PHE27      -0.0042
     30  CE1      -11.9700   -1.0360   -6.1490 C.ar   27  PHE27      -0.0003
     31  CE2      -12.1160    0.5790   -7.8980 C.ar   27  PHE27      -0.0003
     32  CZ       -11.7210   -0.6670   -7.4550 C.ar   27  PHE27      -0.0000
     33  N        -19.0360    2.6300   -2.4320 N.3    29  LYS29      -0.1231
     34  CA       -19.8610    2.0570   -1.3720 C.3    29  LYS29       0.1678
     35  C        -19.4750    0.6040   -1.1140 C.2    29  LYS29       0.2434
     36  O        -18.8810   -0.0260   -1.9680 O.2    29  LYS29      -0.2733
     37  CB       -21.3420    2.1490   -1.7440 C.3    29  LYS29       0.0284
     38  CG       -21.8580    3.5760   -1.8400 C.3    29  LYS29       0.0035
     39  CD       -21.8310    4.2450   -0.4780 C.3    29  LYS29       0.0206
     40  CE       -21.8750    5.7680   -0.5950 C.3    29  LYS29       0.1093
     41  NZ       -23.1160    6.2660   -1.2460 N.3    29  LYS29      -0.1314
     42  N        -19.8240    0.0730    0.0640 N.am   30  PRO30      -0.2718
     43  CA       -19.4820   -1.3130    0.4020 C.3    30  PRO30       0.1535
     44  C        -19.9890   -2.2960   -0.6400 C.2    30  PRO30       0.2598
     45  O        -21.1060   -2.1300   -1.1250 O.2    30  PRO30      -0.2715
     46  CB       -20.1920   -1.5330    1.7410 C.3    30  PRO30       0.0310
     47  CG       -20.3490   -0.1530    2.3230 C.3    30  PRO30       0.0237
     48  CD       -20.5960    0.7290    1.1320 C.3    30  PRO30       0.0939
     49  N        -19.1810   -3.2930   -0.9830 N.am   31  VAL31      -0.1964
     50  CA       -19.6480   -4.3520   -1.8690 C.3    31  VAL31       0.1727
     51  C        -20.9330   -4.9580   -1.3070 C.2    31  VAL31       0.2616
     52  O        -20.9860   -5.3330   -0.1360 O.2    31  VAL31      -0.2715
     53  CB       -18.6050   -5.4610   -2.0510 C.3    31  VAL31       0.0290
     54  CG1      -19.2610   -6.7090   -2.6580 C.3    31  VAL31       0.0023
     55  CG2      -17.4630   -4.9830   -2.9200 C.3    31  VAL31       0.0023
     56  N        -21.9700   -5.0060   -2.1350 N.am   32  ASP32      -0.1971
     57  CA       -23.2220   -5.6480   -1.7620 C.3    32  ASP32       0.1709
     58  C        -23.2230   -7.0240   -2.4010 C.2    32  ASP32       0.2293
     59  O        -23.6130   -7.1790   -3.5600 O.2    32  ASP32      -0.2864
     60  CB       -24.4250   -4.8250   -2.2160 C.3    32  ASP32       0.1436
     61  CG       -25.7470   -5.3740   -1.7050 C.2    32  ASP32       0.3671
     62  OD1      -25.8240   -6.5640   -1.3610 O.co2  32  ASP32      -0.2456
     63  OD2      -26.7260   -4.6060   -1.6640 O.co2  32  ASP32      -0.2456
     64  N        -24.8560   -8.3060   -6.0910 N.3    36  LEU36      -0.1245
     65  CA       -23.9470   -8.6290   -7.1810 C.3    36  LEU36       0.1561
     66  C        -23.8920  -10.1380   -7.4380 C.2    36  LEU36       0.2260
     67  O        -23.2630  -10.6020   -8.3860 O.2    36  LEU36      -0.2867
     68  CB       -22.5540   -8.0970   -6.8720 C.3    36  LEU36       0.0270
     69  CG       -22.4210   -6.5700   -6.8850 C.3    36  LEU36       0.0019
     70  CD1      -21.0480   -6.1240   -6.3960 C.3    36  LEU36       0.0001
     71  CD2      -22.7020   -6.0430   -8.2830 C.3    36  LEU36       0.0001
     72  N        -22.4010  -12.4140   -5.6540 N.3    38  VAL38      -0.1245
     73  CA       -21.1140  -13.0140   -5.3080 C.3    38  VAL38       0.1561
     74  C        -21.1850  -13.6120   -3.8980 C.2    38  VAL38       0.2260
     75  O        -20.6530  -13.0610   -2.9330 O.2    38  VAL38      -0.2867
     76  CB       -19.9670  -11.9840   -5.4120 C.3    38  VAL38       0.0252
     77  CG1      -19.6390  -11.7100   -6.8660 C.3    38  VAL38       0.0019
     78  CG2      -20.3410  -10.7020   -4.7000 C.3    38  VAL38       0.0019
     79  N        -18.2210  -13.9120   -1.5010 N.3    41  TYR41      -0.1241
     80  CA       -17.4090  -12.7190   -1.2570 C.3    41  TYR41       0.1605
     81  C        -16.9490  -12.6230    0.1910 C.2    41  TYR41       0.2264
     82  O        -15.7780  -12.3750    0.4630 O.2    41  TYR41      -0.2867
     83  CB       -18.1720  -11.4470   -1.6450 C.3    41  TYR41       0.0534
     84  CG       -17.2940  -10.2080   -1.6380 C.ar   41  TYR41      -0.0201
     85  CD1      -16.4630   -9.9140   -2.7090 C.ar   41  TYR41      -0.0009
     86  CD2      -17.2810   -9.3530   -0.5490 C.ar   41  TYR41      -0.0009
     87  CE1      -15.6540   -8.7890   -2.7050 C.ar   41  TYR41       0.0417
     88  CE2      -16.4700   -8.2290   -0.5310 C.ar   41  TYR41       0.0417
     89  CZ       -15.6610   -7.9520   -1.6120 C.ar   41  TYR41       0.1957
     90  OH       -14.8490   -6.8390   -1.5970 O.3    41  TYR41      -0.2866
     91  N         -8.8030   -1.8090    0.7460 N.3    76  MET76      -0.1245
     92  CA        -9.8590   -1.7440   -0.2580 C.3    76  MET76       0.1570
     93  C         -9.3940   -2.2920   -1.6220 C.2    76  MET76       0.2261
     94  O        -10.0850   -3.0850   -2.2670 O.2    76  MET76      -0.2867
     95  CB       -10.3350   -0.2950   -0.3920 C.3    76  MET76       0.0387
     96  CG       -11.4270   -0.0480   -1.4070 C.3    76  MET76       0.0595
     97  SD       -11.7670    1.7130   -1.5970 S.3    76  MET76      -0.1393
     98  CE       -10.3410    2.2090   -2.5470 C.3    76  MET76       0.0692
     99  N        -10.1050   -6.1550   -3.7360 N.3    80  CYS80      -0.1235
    100  CA       -10.4210   -6.2570   -5.1460 C.3    80  CYS80       0.1677
    101  C         -9.4760   -7.2230   -5.8560 C.2    80  CYS80       0.2270
    102  O         -9.9160   -8.0250   -6.6570 O.2    80  CYS80      -0.2867
    103  CB       -10.3520   -4.8800   -5.7990 C.3    80  CYS80       0.0956
    104  SG       -10.9850   -4.8270   -7.4750 S.3    80  CYS80      -0.0801
    105  N        -10.2630  -10.9850   -4.7110 N.3    83  TYR83      -0.1227
    106  CA       -11.4780  -11.6640   -5.1320 C.3    83  TYR83       0.1736
    107  C        -11.5600  -11.8740   -6.6480 C.2    83  TYR83       0.2595
    108  O        -12.0460  -12.9000   -7.1070 O.2    83  TYR83      -0.2718
    109  CB       -12.7210  -10.9100   -4.6590 C.3    83  TYR83       0.0548
    110  CG       -13.9650  -11.6670   -5.0360 C.ar   83  TYR83      -0.0200
    111  CD1      -14.4290  -12.7100   -4.2430 C.ar   83  TYR83      -0.0009
    112  CD2      -14.6360  -11.3900   -6.2170 C.ar   83  TYR83      -0.0009
    113  CE1      -15.5440  -13.4190   -4.5930 C.ar   83  TYR83       0.0417
    114  CE2      -15.7500  -12.1010   -6.5780 C.ar   83  TYR83       0.0417
    115  CZ       -16.1950  -13.1170   -5.7630 C.ar   83  TYR83       0.1957
    116  OH       -17.3010  -13.8320   -6.1220 O.3    83  TYR83      -0.2866
    117  N        -11.0750  -10.9100   -7.4220 N.am   84  ASN84      -0.1974
    118  CA       -11.2240  -10.9430   -8.8750 C.3    84  ASN84       0.1688
    119  C         -9.9930  -11.4560   -9.6220 C.2    84  ASN84       0.2292
    120  O         -8.8710  -11.3000   -9.1560 O.2    84  ASN84      -0.2864
    121  CB       -11.5620   -9.5410   -9.3890 C.3    84  ASN84       0.1181
    122  CG       -12.8190   -8.9870   -8.7740 C.2    84  ASN84       0.2629
    123  OD1      -13.9130   -9.3600   -9.1620 O.2    84  ASN84      -0.2716
    124  ND2      -12.6700   -8.0940   -7.8030 N.am   84  ASN84      -0.0877
    125  N         -9.6070   -8.8180  -14.8990 N.3    88  HIS88      -0.1226
    126  CA       -10.9660   -8.2850  -14.8320 C.3    88  HIS88       0.1752
    127  C        -10.9960   -6.7680  -14.9560 C.2    88  HIS88       0.2596
    128  O        -10.0910   -6.0780  -14.5040 O.2    88  HIS88      -0.2718
    129  CB       -11.6450   -8.6970  -13.5280 C.3    88  HIS88       0.0759
    130  CG       -13.1330   -8.5340  -13.5450 C.ar   88  HIS88       0.0818
    131  ND1      -13.7530   -7.3120  -13.4000 N.ar   88  HIS88      -0.2268
    132  CD2      -14.1270   -9.4450  -13.6880 C.ar   88  HIS88       0.1154
    133  CE1      -15.0630   -7.4740  -13.4530 C.ar   88  HIS88       0.1986
    134  NE2      -15.3160   -8.7600  -13.6300 N.ar   88  HIS88      -0.2212
    135  N        -12.0590   -6.2570  -15.5610 N.am   89  ASP89      -0.1960
    136  CA       -12.2670   -4.8230  -15.6760 C.3    89  ASP89       0.1840
    137  C        -12.1590   -4.0760  -14.3460 C.2    89  ASP89       0.2621
    138  O        -11.5770   -2.9960  -14.2880 O.2    89  ASP89      -0.2715
    139  CB       -13.6320   -4.5410  -16.2850 C.3    89  ASP89       0.1450
    140  CG       -13.6680   -4.8100  -17.7740 C.2    89  ASP89       0.3671
    141  OD1      -12.5930   -4.8440  -18.4030 O.co2  89  ASP89      -0.2456
    142  OD2      -14.7770   -4.9780  -18.3070 O.co2  89  ASP89      -0.2456
    143  N        -12.7190   -4.6290  -13.2770 N.am   90  VAL90      -0.1977
    144  CA       -12.7520   -3.8610  -12.0370 C.3    90  VAL90       0.1596
    145  C        -11.3540   -3.7920  -11.4290 C.2    90  VAL90       0.2287
    146  O        -11.0280   -2.8510  -10.7190 O.2    90  VAL90      -0.2864
    147  CB       -13.7520   -4.4280  -11.0190 C.3    90  VAL90       0.0276
    148  CG1      -13.3540   -5.8280  -10.5620 C.3    90  VAL90       0.0022
    149  CG2      -13.8900   -3.4570   -9.8350 C.3    90  VAL90       0.0022
    150  N         -9.5900   -0.9130  -13.0230 N.3    93  MET93      -0.1245
    151  CA       -10.0570    0.3040  -12.3860 C.3    93  MET93       0.1570
    152  C         -9.3910    0.5050  -11.0330 C.2    93  MET93       0.2261
    153  O         -8.9900    1.6100  -10.7010 O.2    93  MET93      -0.2867
    154  CB       -11.5770    0.2780  -12.2360 C.3    93  MET93       0.0387
    155  CG       -12.2860    0.1860  -13.5650 C.3    93  MET93       0.0595
    156  SD       -14.0170   -0.2520  -13.4180 S.3    93  MET93      -0.1393
    157  CE       -14.6780    1.2110  -12.6960 C.3    93  MET93       0.0692
@<TRIPOS>BOND
     1   141   140   ar
     2   142   140   ar
     3   140   139    1
     4   139   136    1
     5   136   135    1
     6   136   137    1
     7   135   127   am
     8   127   126    1
     9   127   128    2
    10   125   126    1
    11   126   129    1
    12   137   138    2
    13   137   143   am
    14   132   134   ar
    15   132   130   ar
    16   134   133   ar
    17   155   156    1
    18   155   154    1
    19   130   129    1
    20   130   131   ar
    21   133   131   ar
    22   156   157    1
    23   143   144    1
    24     9    10   ar
    25     9     7   ar
    26   150   151    1
    27    12    10   ar
    28    12    14   ar
    29    10     8   ar
    30   151   154    1
    31   151   152    1
    32     7     6   ar
    33   144   145    1
    34   144   147    1
    35    14    13   ar
    36   145   146    2
    37     8     6   ar
    38     8    11   ar
    39     6     5    1
    40   152   153    2
    41   147   148    1
    42   147   149    1
    43    13    11   ar
    44    20    21    1
    45    20    19    1
    46     5     2    1
    47    21    15    1
    48   119   120    2
    49   119   118    1
    50   121   118    1
    51   121   122    1
    52     1     2    1
    53   123   122    2
    54   118   117    1
    55     2     3    1
    56   122   124   am
    57    19    16    1
    58    15     3   am
    59    15    16    1
    60    67    66    2
    61    71    69    1
    62     3     4    2
    63    16    17    1
    64    31    32   ar
    65    31    29   ar
    66   104   103    1
    67    32    30   ar
    68    66    65    1
    69   117   107   am
    70    65    68    1
    71    65    64    1
    72   108   107    2
    73    29    27   ar
    74    69    68    1
    75    69    70    1
    76    77    76    1
    77   102   101    2
    78   107   106    1
    79   114   112   ar
    80   114   115   ar
    81    17    22   am
    82    17    18    2
    83   112   110   ar
    84    30    28   ar
    85   116   115    1
    86    22    23    1
    87   101   100    1
    88   103   100    1
    89   115   113   ar
    90    27    28   ar
    91    27    26    1
    92    72    73    1
    93    76    73    1
    94    76    78    1
    95    73    74    1
    96   100    99    1
    97   106   105    1
    98   106   109    1
    99   110   109    1
   100   110   111   ar
   101    26    23    1
   102    23    24    1
   103   113   111   ar
   104    74    75    2
   105    24    25    2
   106    59    58    2
   107    55    53    1
   108    85    87   ar
   109    85    84   ar
   110    87    89   ar
   111    54    53    1
   112    98    97    1
   113    33    34    1
   114    58    57    1
   115    94    93    2
   116    60    57    1
   117    60    61    1
   118    56    57    1
   119    56    51   am
   120    53    50    1
   121    36    35    2
   122    50    51    1
   123    50    49    1
   124    38    37    1
   125    38    39    1
   126    37    34    1
   127    61    63   ar
   128    61    62   ar
   129    83    84    1
   130    83    80    1
   131    84    86   ar
   132    93    92    1
   133    89    90    1
   134    89    88   ar
   135    97    96    1
   136    79    80    1
   137    96    95    1
   138    34    35    1
   139    51    52    2
   140    80    81    1
   141    41    40    1
   142    45    44    2
   143    35    42   am
   144    49    44   am
   145    44    43    1
   146    40    39    1
   147    86    88   ar
   148    95    92    1
   149    92    91    1
   150    42    43    1
   151    42    48    1
   152    81    82    2
   153    43    46    1
   154    48    47    1
   155    46    47    1
