@<TRIPOS>MOLECULE
tmp/5o3hA00.pdb
 149 148 0 0 0
SMALL
GASTEIGER

@<TRIPOS>ATOM
      1  N        -15.9420    4.5100   -9.3390 N.3    25  TRP25      -0.1228
      2  CA       -17.3240    4.2550   -8.9020 C.3    25  TRP25       0.1722
      3  C        -17.5530    2.9010   -8.2040 C.2    25  TRP25       0.2437
      4  O        -18.3500    2.8380   -7.2680 O.2    25  TRP25      -0.2733
      5  CB       -18.3420    4.5010  -10.0300 C.3    25  TRP25       0.0563
      6  CG       -18.2960    3.5100  -11.1560 C.ar   25  TRP25       0.0003
      7  CD1      -17.6440    3.6560  -12.3540 C.ar   25  TRP25       0.0946
      8  CD2      -18.9260    2.2250  -11.1970 C.ar   25  TRP25       0.0152
      9  NE1      -17.8240    2.5350  -13.1300 N.ar   25  TRP25      -0.2442
     10  CE2      -18.6000    1.6380  -12.4390 C.ar   25  TRP25       0.0810
     11  CE3      -19.7230    1.5060  -10.2980 C.ar   25  TRP25       0.0012
     12  CZ2      -19.0570    0.3690  -12.8090 C.ar   25  TRP25       0.0191
     13  CZ3      -20.1630    0.2390  -10.6610 C.ar   25  TRP25       0.0001
     14  CH2      -19.8310   -0.3130  -11.9060 C.ar   25  TRP25       0.0015
     15  N        -16.8660    1.8230   -8.6260 N.am   26  PRO26      -0.2718
     16  CA       -17.1350    0.5710   -7.8990 C.3    26  PRO26       0.1535
     17  C        -16.7210    0.6160   -6.4240 C.2    26  PRO26       0.2598
     18  O        -17.1860   -0.2280   -5.6460 O.2    26  PRO26      -0.2715
     19  CB       -16.2860   -0.4640   -8.6510 C.3    26  PRO26       0.0310
     20  CG       -16.1520    0.1100  -10.0270 C.3    26  PRO26       0.0237
     21  CD       -15.9660    1.5940   -9.7670 C.3    26  PRO26       0.0939
     22  N        -15.8840    1.5840   -6.0480 N.am   27  PHE27      -0.1974
     23  CA       -15.2940    1.6670   -4.7100 C.3    27  PHE27       0.1639
     24  C        -16.0270    2.6330   -3.7910 C.2    27  PHE27       0.2290
     25  O        -15.6110    2.8430   -2.6520 O.2    27  PHE27      -0.2864
     26  CB       -13.8020    2.0100   -4.8390 C.3    27  PHE27       0.0560
     27  CG       -13.0840    1.0480   -5.7350 C.ar   27  PHE27      -0.0200
     28  CD1      -12.8620    1.3500   -7.0650 C.ar   27  PHE27      -0.0042
     29  CD2      -12.7370   -0.2180   -5.2700 C.ar   27  PHE27      -0.0042
     30  CE1      -12.2660    0.4330   -7.9090 C.ar   27  PHE27      -0.0003
     31  CE2      -12.1440   -1.1380   -6.1130 C.ar   27  PHE27      -0.0003
     32  CZ       -11.9060   -0.8140   -7.4350 C.ar   27  PHE27      -0.0000
     33  N        -19.0990    2.4930   -2.3740 N.3    29  LYS29      -0.1231
     34  CA       -19.9300    1.9470   -1.2980 C.3    29  LYS29       0.1678
     35  C        -19.5290    0.4980   -1.0180 C.2    29  LYS29       0.2434
     36  O        -18.8680   -0.1300   -1.8370 O.2    29  LYS29      -0.2733
     37  CB       -21.4100    2.0240   -1.6890 C.3    29  LYS29       0.0284
     38  CG       -21.9510    3.4470   -1.7970 C.3    29  LYS29       0.0035
     39  CD       -22.2240    4.0240   -0.4100 C.3    29  LYS29       0.0206
     40  CE       -22.1080    5.5530   -0.3770 C.3    29  LYS29       0.1093
     41  NZ       -23.1100    6.2430   -1.2280 N.3    29  LYS29      -0.1314
     42  N        -19.9310   -0.0480    0.1380 N.am   30  PRO30      -0.2718
     43  CA       -19.5300   -1.4290    0.4240 C.3    30  PRO30       0.1535
     44  C        -20.0250   -2.3830   -0.6540 C.2    30  PRO30       0.2598
     45  O        -21.1540   -2.2240   -1.1360 O.2    30  PRO30      -0.2715
     46  CB       -20.2450   -1.7280    1.7400 C.3    30  PRO30       0.0310
     47  CG       -20.3910   -0.3960    2.3920 C.3    30  PRO30       0.0237
     48  CD       -20.6660    0.5570    1.2590 C.3    30  PRO30       0.0939
     49  N        -19.2090   -3.3650   -1.0250 N.am   31  VAL31      -0.1964
     50  CA       -19.6530   -4.4090   -1.9400 C.3    31  VAL31       0.1727
     51  C        -20.9210   -5.0620   -1.3860 C.2    31  VAL31       0.2616
     52  O        -20.9650   -5.4910   -0.2290 O.2    31  VAL31      -0.2715
     53  CB       -18.5640   -5.4820   -2.1280 C.3    31  VAL31       0.0290
     54  CG1      -19.1430   -6.7040   -2.8310 C.3    31  VAL31       0.0023
     55  CG2      -17.3690   -4.9110   -2.9020 C.3    31  VAL31       0.0023
     56  N        -21.9680   -5.0800   -2.2040 N.am   32  ASP32      -0.1971
     57  CA       -23.2130   -5.7590   -1.8670 C.3    32  ASP32       0.1709
     58  C        -23.1690   -7.1350   -2.5280 C.2    32  ASP32       0.2293
     59  O        -23.5360   -7.2960   -3.7010 O.2    32  ASP32      -0.2864
     60  CB       -24.4050   -4.9320   -2.3560 C.3    32  ASP32       0.1436
     61  CG       -25.7370   -5.4960   -1.9150 C.2    32  ASP32       0.3671
     62  OD1      -25.8230   -6.7120   -1.6370 O.co2  32  ASP32      -0.2456
     63  OD2      -26.7150   -4.7140   -1.8620 O.co2  32  ASP32      -0.2456
     64  N        -24.7400   -8.4870   -6.2050 N.3    36  LEU36      -0.1245
     65  CA       -23.8180   -8.8510   -7.2820 C.3    36  LEU36       0.1561
     66  C        -23.7870  -10.3510   -7.5810 C.2    36  LEU36       0.2260
     67  O        -23.1520  -10.7810   -8.5440 O.2    36  LEU36      -0.2867
     68  CB       -22.4170   -8.3540   -6.9540 C.3    36  LEU36       0.0270
     69  CG       -22.2570   -6.8330   -6.9530 C.3    36  LEU36       0.0019
     70  CD1      -20.8920   -6.4330   -6.4250 C.3    36  LEU36       0.0001
     71  CD2      -22.4760   -6.2950   -8.3530 C.3    36  LEU36       0.0001
     72  N        -22.3450  -12.5960   -5.7840 N.3    38  VAL38      -0.1245
     73  CA       -21.0480  -13.1660   -5.3970 C.3    38  VAL38       0.1561
     74  C        -21.1280  -13.7580   -3.9890 C.2    38  VAL38       0.2260
     75  O        -20.6540  -13.1900   -3.0070 O.2    38  VAL38      -0.2867
     76  CB       -19.8860  -12.1620   -5.5960 C.3    38  VAL38       0.0252
     77  CG1      -19.6720  -11.9200   -7.0870 C.3    38  VAL38       0.0019
     78  CG2      -20.1590  -10.8510   -4.8670 C.3    38  VAL38       0.0019
     79  N        -18.1480  -14.0100   -1.6050 N.3    41  TYR41      -0.1241
     80  CA       -17.3390  -12.8120   -1.3600 C.3    41  TYR41       0.1605
     81  C        -16.9220  -12.7090    0.1040 C.2    41  TYR41       0.2264
     82  O        -15.7550  -12.4590    0.4040 O.2    41  TYR41      -0.2867
     83  CB       -18.0950  -11.5450   -1.7940 C.3    41  TYR41       0.0534
     84  CG       -17.2380  -10.2980   -1.7350 C.ar   41  TYR41      -0.0201
     85  CD1      -16.4080   -9.9470   -2.7920 C.ar   41  TYR41      -0.0009
     86  CD2      -17.2340   -9.4930   -0.6010 C.ar   41  TYR41      -0.0009
     87  CE1      -15.6070   -8.8110   -2.7300 C.ar   41  TYR41       0.0417
     88  CE2      -16.4430   -8.3560   -0.5230 C.ar   41  TYR41       0.0417
     89  CZ       -15.6220   -8.0310   -1.5930 C.ar   41  TYR41       0.1957
     90  OH       -14.8200   -6.9060   -1.5290 O.3    41  TYR41      -0.2866
     91  N        -10.1090   -6.2010   -3.6980 N.3    80  CYS80      -0.1235
     92  CA       -10.4500   -6.2990   -5.1110 C.3    80  CYS80       0.1677
     93  C         -9.4980   -7.2440   -5.8460 C.2    80  CYS80       0.2270
     94  O         -9.9450   -8.1070   -6.6110 O.2    80  CYS80      -0.2867
     95  CB       -10.4780   -4.9030   -5.7380 C.3    80  CYS80       0.0956
     96  SG       -11.1060   -4.8500   -7.4210 S.3    80  CYS80      -0.0801
     97  N        -10.2300  -11.0240   -4.6500 N.3    83  TYR83      -0.1227
     98  CA       -11.4460  -11.6800   -5.0970 C.3    83  TYR83       0.1736
     99  C        -11.4710  -11.9300   -6.6080 C.2    83  TYR83       0.2595
    100  O        -11.9590  -12.9720   -7.0640 O.2    83  TYR83      -0.2718
    101  CB       -12.7020  -10.8950   -4.6760 C.3    83  TYR83       0.0548
    102  CG       -13.9300  -11.6800   -5.0470 C.ar   83  TYR83      -0.0200
    103  CD1      -14.3780  -12.7070   -4.2380 C.ar   83  TYR83      -0.0009
    104  CD2      -14.5980  -11.4450   -6.2460 C.ar   83  TYR83      -0.0009
    105  CE1      -15.4710  -13.4750   -4.6010 C.ar   83  TYR83       0.0417
    106  CE2      -15.6850  -12.1980   -6.6150 C.ar   83  TYR83       0.0417
    107  CZ       -16.1180  -13.2140   -5.7910 C.ar   83  TYR83       0.1957
    108  OH       -17.1910  -13.9660   -6.1730 O.3    83  TYR83      -0.2866
    109  N        -10.9970  -10.9570   -7.3750 N.am   84  ASN84      -0.1974
    110  CA       -11.1840  -10.9710   -8.8210 C.3    84  ASN84       0.1688
    111  C         -9.9470  -11.4370   -9.5680 C.2    84  ASN84       0.2292
    112  O         -8.8270  -11.1950   -9.1280 O.2    84  ASN84      -0.2864
    113  CB       -11.5430   -9.5680   -9.3100 C.3    84  ASN84       0.1181
    114  CG       -12.8210   -9.0430   -8.6980 C.2    84  ASN84       0.2629
    115  OD1      -12.7950   -8.2100   -7.7710 O.2    84  ASN84      -0.2716
    116  ND2      -13.9390   -9.5190   -9.1900 N.am   84  ASN84      -0.0877
    117  N         -9.4460   -8.9090  -14.8390 N.3    88  HIS88      -0.1226
    118  CA       -10.8250   -8.4230  -14.7540 C.3    88  HIS88       0.1752
    119  C        -10.9100   -6.9000  -14.9050 C.2    88  HIS88       0.2596
    120  O        -10.0310   -6.1760  -14.4410 O.2    88  HIS88      -0.2718
    121  CB       -11.4670   -8.8470  -13.4290 C.3    88  HIS88       0.0759
    122  CG       -12.9620   -8.8330  -13.4610 C.ar   88  HIS88       0.0818
    123  ND1      -13.7000   -7.6750  -13.3360 N.ar   88  HIS88      -0.2268
    124  CD2      -13.8570   -9.8340  -13.6350 C.ar   88  HIS88       0.1154
    125  CE1      -14.9850   -7.9670  -13.4170 C.ar   88  HIS88       0.1986
    126  NE2      -15.1070   -9.2690  -13.6000 N.ar   88  HIS88      -0.2212
    127  N        -11.9850   -6.4250  -15.5300 N.am   89  ASP89      -0.1960
    128  CA       -12.2250   -4.9850  -15.6720 C.3    89  ASP89       0.1840
    129  C        -12.1380   -4.2380  -14.3360 C.2    89  ASP89       0.2621
    130  O        -11.5640   -3.1570  -14.2600 O.2    89  ASP89      -0.2715
    131  CB       -13.5930   -4.7150  -16.3210 C.3    89  ASP89       0.1450
    132  CG       -13.6400   -5.0930  -17.7900 C.2    89  ASP89       0.3671
    133  OD1      -12.5690   -5.2670  -18.4130 O.co2  89  ASP89      -0.2456
    134  OD2      -14.7620   -5.1900  -18.3260 O.co2  89  ASP89      -0.2456
    135  N        -12.7110   -4.7960  -13.2790 N.am   90  VAL90      -0.1977
    136  CA       -12.7210   -4.0800  -12.0030 C.3    90  VAL90       0.1596
    137  C        -11.3100   -3.9550  -11.4380 C.2    90  VAL90       0.2287
    138  O        -10.9810   -2.9760  -10.7570 O.2    90  VAL90      -0.2864
    139  CB       -13.7180   -4.6790  -10.9670 C.3    90  VAL90       0.0276
    140  CG1      -13.2200   -5.9990  -10.3910 C.3    90  VAL90       0.0022
    141  CG2      -13.9910   -3.6610   -9.8600 C.3    90  VAL90       0.0022
    142  N         -9.6250   -1.0550  -13.0040 N.3    93  MET93      -0.1245
    143  CA       -10.1160    0.1620  -12.3690 C.3    93  MET93       0.1570
    144  C         -9.4220    0.3910  -11.0280 C.2    93  MET93       0.2261
    145  O         -8.9790    1.5150  -10.7390 O.2    93  MET93      -0.2867
    146  CB       -11.6290    0.0900  -12.1940 C.3    93  MET93       0.0387
    147  CG       -12.3320    0.0040  -13.5360 C.3    93  MET93       0.0595
    148  SD       -14.0540   -0.4900  -13.4240 S.3    93  MET93      -0.1393
    149  CE       -14.8040    1.0340  -12.9540 C.3    93  MET93       0.0692
@<TRIPOS>BOND
     1   133   132   ar
     2   134   132   ar
     3   132   131    1
     4   131   128    1
     5   128   127    1
     6   128   129    1
     7   127   119   am
     8   119   118    1
     9   119   120    2
    10   117   118    1
    11   118   121    1
    12   129   130    2
    13   129   135   am
    14   124   126   ar
    15   124   122   ar
    16   126   125   ar
    17   147   148    1
    18   147   146    1
    19   122   121    1
    20   122   123   ar
    21   148   149    1
    22   125   123   ar
    23   135   136    1
    24     9    10   ar
    25     9     7   ar
    26   142   143    1
    27    12    10   ar
    28    12    14   ar
    29    10     8   ar
    30   143   146    1
    31   143   144    1
    32     7     6   ar
    33   136   137    1
    34   136   139    1
    35    14    13   ar
    36   137   138    2
    37     8     6   ar
    38     8    11   ar
    39     6     5    1
    40   144   145    2
    41   139   140    1
    42   139   141    1
    43    13    11   ar
    44     5     2    1
    45    20    21    1
    46    20    19    1
    47    21    15    1
    48   111   112    2
    49   111   110    1
    50     1     2    1
    51   113   110    1
    52   113   114    1
    53   116   114   am
    54     2     3    1
    55   110   109    1
    56   114   115    2
    57    19    16    1
    58    15     3   am
    59    15    16    1
    60    67    66    2
    61    71    69    1
    62     3     4    2
    63    30    32   ar
    64    30    28   ar
    65    16    17    1
    66    66    65    1
    67    32    31   ar
    68    96    95    1
    69   109    99   am
    70    65    68    1
    71    65    64    1
    72    77    76    1
    73    28    27   ar
    74   100    99    2
    75    68    69    1
    76    69    70    1
    77   106   104   ar
    78   106   107   ar
    79    94    93    2
    80    99    98    1
    81    17    22   am
    82    17    18    2
    83   104   102   ar
    84   108   107    1
    85    31    29   ar
    86    22    23    1
    87    93    92    1
    88   107   105   ar
    89    72    73    1
    90    95    92    1
    91    27    29   ar
    92    27    26    1
    93    76    73    1
    94    76    78    1
    95    73    74    1
    96    92    91    1
    97    98   101    1
    98    98    97    1
    99   102   101    1
   100   102   103   ar
   101    26    23    1
   102    23    24    1
   103   105   103   ar
   104    74    75    2
   105    24    25    2
   106    59    58    2
   107    55    53    1
   108    54    53    1
   109    85    87   ar
   110    85    84   ar
   111    87    89   ar
   112    58    57    1
   113    33    34    1
   114    60    61    1
   115    60    57    1
   116    56    57    1
   117    56    51   am
   118    53    50    1
   119    50    51    1
   120    50    49    1
   121    61    63   ar
   122    61    62   ar
   123    36    35    2
   124    38    37    1
   125    38    39    1
   126    83    84    1
   127    83    80    1
   128    84    86   ar
   129    37    34    1
   130    79    80    1
   131    89    90    1
   132    89    88   ar
   133    51    52    2
   134    80    81    1
   135    34    35    1
   136    41    40    1
   137    45    44    2
   138    49    44   am
   139    35    42   am
   140    44    43    1
   141    86    88   ar
   142    39    40    1
   143    81    82    2
   144    42    43    1
   145    42    48    1
   146    43    46    1
   147    48    47    1
   148    46    47    1
