@<TRIPOS>MOLECULE
tmp/5o3jA00.pdb
 103 101 0 0 0
SMALL
GASTEIGER

@<TRIPOS>ATOM
      1  N        -16.8160   -0.4010   -1.5500 N.3     8  PHE8       -0.1241
      2  CA       -15.7640   -0.5390   -0.5410 C.3     8  PHE8        0.1605
      3  C        -16.3380   -1.1980    0.7160 C.2     8  PHE8        0.2264
      4  O        -17.4530   -0.8830    1.1290 O.2     8  PHE8       -0.2867
      5  CB       -15.1660    0.8360   -0.1990 C.3     8  PHE8        0.0534
      6  CG       -14.2600    0.8320    1.0030 C.ar    8  PHE8       -0.0203
      7  CD1      -12.9410    0.4090    0.8950 C.ar    8  PHE8       -0.0042
      8  CD2      -14.7270    1.2580    2.2480 C.ar    8  PHE8       -0.0042
      9  CE1      -12.1040    0.4060    2.0030 C.ar    8  PHE8       -0.0003
     10  CE2      -13.8940    1.2560    3.3590 C.ar    8  PHE8       -0.0003
     11  CZ       -12.5800    0.8300    3.2360 C.ar    8  PHE8       -0.0000
     12  N        -14.9250   -1.9260    4.6260 N.3    10  GLY10      -0.1210
     13  CA       -13.8750   -1.7050    5.6270 C.3    10  GLY10       0.1956
     14  C        -14.1080   -2.4710    6.9170 C.2    10  GLY10       0.2611
     15  O        -15.2050   -2.9820    7.1570 O.2    10  GLY10      -0.2717
     16  N        -13.0620   -2.5410    7.7410 N.am   11  ASP11      -0.1973
     17  CA       -13.0820   -3.2040    9.0580 C.3    11  ASP11       0.1709
     18  C        -13.4540   -4.6880    8.9730 C.2    11  ASP11       0.2293
     19  O        -14.4100   -5.1490    9.6030 O.2    11  ASP11      -0.2864
     20  CB       -13.9880   -2.4460   10.0480 C.3    11  ASP11       0.1436
     21  CG       -13.5200   -1.0160   10.3070 C.2    11  ASP11       0.3671
     22  OD1      -12.3280   -0.7070   10.0880 O.co2  11  ASP11      -0.2456
     23  OD2      -14.3510   -0.1930   10.7460 O.co2  11  ASP11      -0.2456
     24  N        -13.1390   -9.0800   -3.7500 N.3    35  ARG35      -0.1245
     25  CA       -11.8750   -9.4850   -3.1250 C.3    35  ARG35       0.1563
     26  C        -11.5860   -8.7640   -1.8130 C.2    35  ARG35       0.2260
     27  O        -12.1260   -7.6880   -1.5540 O.2    35  ARG35      -0.2867
     28  CB       -10.6920   -9.2800   -4.0820 C.3    35  ARG35       0.0307
     29  CG       -10.3440   -7.8370   -4.4400 C.3    35  ARG35       0.0489
     30  CD        -8.8350   -7.6590   -4.5120 C.3    35  ARG35       0.2205
     31  NE        -8.4340   -6.3150   -4.9280 N.pl3  35  ARG35      -0.0865
     32  CZ        -7.1860   -5.8410   -4.8880 C.cat  35  ARG35       0.5346
     33  NH1       -6.1740   -6.5890   -4.4460 N.pl3  35  ARG35       0.1354
     34  NH2       -6.9420   -4.5980   -5.2950 N.pl3  35  ARG35       0.1354
     35  N         -5.2160   -6.8700    4.7560 N.3    46  LYS46      -0.1231
     36  CA        -4.9400   -5.4620    5.0620 C.3    46  LYS46       0.1693
     37  C         -5.9930   -4.8540    5.9910 C.2    46  LYS46       0.2593
     38  O         -5.6730   -3.9680    6.7800 O.2    46  LYS46      -0.2718
     39  CB        -4.8410   -4.6320    3.7770 C.3    46  LYS46       0.0285
     40  CG        -4.2840   -3.2510    3.9880 C.3    46  LYS46       0.0035
     41  CD        -2.7870   -3.3790    4.0320 C.3    46  LYS46       0.0206
     42  CE        -2.0680   -2.0740    4.2030 C.3    46  LYS46       0.1093
     43  NZ        -0.6290   -2.3210    4.1250 N.3    46  LYS46      -0.1314
     44  N         -7.2340   -5.3370    5.8940 N.am   47  GLY47      -0.1942
     45  CA        -8.3490   -4.8430    6.7080 C.3    47  GLY47       0.2014
     46  C         -9.6040   -4.5120    5.9170 C.2    47  GLY47       0.2638
     47  O        -10.6970   -4.4840    6.4880 O.2    47  GLY47      -0.2714
     48  N         -9.4530   -4.2600    4.6140 N.am   48  TYR48      -0.1973
     49  CA       -10.5650   -3.8620    3.7450 C.3    48  TYR48       0.1639
     50  C        -10.6320   -4.6970    2.4650 C.2    48  TYR48       0.2290
     51  O         -9.7170   -5.4670    2.1640 O.2    48  TYR48      -0.2864
     52  CB       -10.4560   -2.3700    3.3990 C.3    48  TYR48       0.0560
     53  CG        -9.2460   -1.9930    2.5620 C.ar   48  TYR48      -0.0198
     54  CD1       -8.0140   -1.7210    3.1610 C.ar   48  TYR48      -0.0009
     55  CD2       -9.3350   -1.8980    1.1700 C.ar   48  TYR48      -0.0009
     56  CE1       -6.9060   -1.3730    2.4000 C.ar   48  TYR48       0.0417
     57  CE2       -8.2320   -1.5510    0.4010 C.ar   48  TYR48       0.0417
     58  CZ        -7.0220   -1.2900    1.0190 C.ar   48  TYR48       0.1957
     59  OH        -5.9310   -0.9450    0.2560 O.3    48  TYR48      -0.2866
     60  N        -13.1010   -5.0430   -1.6710 N.3    50  PHE50      -0.1241
     61  CA       -13.9870   -4.4690   -2.6930 C.3    50  PHE50       0.1605
     62  C        -14.9650   -5.5150   -3.2220 C.2    50  PHE50       0.2264
     63  O        -14.6440   -6.7030   -3.2620 O.2    50  PHE50      -0.2867
     64  CB       -13.1710   -3.8980   -3.8540 C.3    50  PHE50       0.0534
     65  CG       -12.2850   -2.7510   -3.4650 C.ar   50  PHE50      -0.0203
     66  CD1      -12.7960   -1.4600   -3.3740 C.ar   50  PHE50      -0.0042
     67  CD2      -10.9360   -2.9570   -3.1860 C.ar   50  PHE50      -0.0042
     68  CE1      -11.9810   -0.3970   -3.0110 C.ar   50  PHE50      -0.0003
     69  CE2      -10.1160   -1.8990   -2.8240 C.ar   50  PHE50      -0.0003
     70  CZ       -10.6400   -0.6180   -2.7360 C.ar   50  PHE50      -0.0000
     71  N        -17.6810   -1.3100    7.7800 N.3    77  ARG77      -0.1245
     72  CA       -18.0760   -0.1200    7.0310 C.3    77  ARG77       0.1563
     73  C        -18.4600   -0.5430    5.6240 C.2    77  ARG77       0.2260
     74  O        -17.9690   -1.5590    5.1280 O.2    77  ARG77      -0.2867
     75  CB       -16.9210    0.8720    6.9390 C.3    77  ARG77       0.0307
     76  CG       -16.4190    1.3760    8.2760 C.3    77  ARG77       0.0489
     77  CD       -15.4110    2.4910    8.0740 C.3    77  ARG77       0.2205
     78  NE       -14.1690    2.0120    7.4620 N.pl3  77  ARG77      -0.0865
     79  CZ       -13.2540    2.7740    6.8550 C.cat  77  ARG77       0.5346
     80  NH1      -13.4060    4.0950    6.7400 N.pl3  77  ARG77       0.1354
     81  NH2      -12.1660    2.2040    6.3420 N.pl3  77  ARG77       0.1354
     82  N        -19.3370    1.5240    1.6790 N.3    79  ASN79      -0.1225
     83  CA       -19.4100    2.7590    0.8970 C.3    79  ASN79       0.1785
     84  C        -18.9610    2.4580   -0.5380 C.2    79  ASN79       0.2597
     85  O        -18.5820    1.3260   -0.8300 O.2    79  ASN79      -0.2718
     86  CB       -18.5070    3.8220    1.5310 C.3    79  ASN79       0.1169
     87  CG       -18.9810    5.2420    1.2740 C.2    79  ASN79       0.2627
     88  OD1      -19.6130    5.5300    0.2550 O.2    79  ASN79      -0.2716
     89  ND2      -18.6630    6.1430    2.1980 N.am   79  ASN79      -0.0877
     90  N        -18.9910    3.4570   -1.4220 N.am   80  TRP80      -0.1976
     91  CA       -18.6310    3.2600   -2.8340 C.3    80  TRP80       0.1640
     92  C        -17.1270    3.0100   -3.0140 C.2    80  TRP80       0.2290
     93  O        -16.3940    3.8260   -3.5740 O.2    80  TRP80      -0.2864
     94  CB       -19.1020    4.4480   -3.6860 C.3    80  TRP80       0.0576
     95  CG       -20.5960    4.6020   -3.7100 C.ar   80  TRP80       0.0006
     96  CD1      -21.3370    5.5310   -3.0360 C.ar   80  TRP80       0.0946
     97  CD2      -21.5310    3.7930   -4.4340 C.ar   80  TRP80       0.0152
     98  NE1      -22.6740    5.3560   -3.2990 N.ar   80  TRP80      -0.2442
     99  CE2      -22.8230    4.2950   -4.1530 C.ar   80  TRP80       0.0810
    100  CE3      -21.4030    2.6920   -5.2950 C.ar   80  TRP80       0.0012
    101  CZ2      -23.9850    3.7320   -4.7050 C.ar   80  TRP80       0.0191
    102  CZ3      -22.5580    2.1310   -5.8430 C.ar   80  TRP80       0.0001
    103  CH2      -23.8330    2.6550   -5.5450 C.ar   80  TRP80       0.0015
@<TRIPOS>BOND
     1   102   103   ar
     2   102   100   ar
     3   103   101   ar
     4   100    97   ar
     5    34    32    1
     6    31    32    2
     7    31    30    1
     8    32    33    1
     9   101    99   ar
    10    30    29    1
    11    29    28    1
    12    97    99   ar
    13    97    95   ar
    14    99    98   ar
    15    28    25    1
    16    64    65    1
    17    64    61    1
    18    24    25    1
    19    95    94    1
    20    95    96   ar
    21    94    91    1
    22    93    92    2
    23    65    66   ar
    24    65    67   ar
    25    66    68   ar
    26    98    96   ar
    27    63    62    2
    28    62    61    1
    29    67    69   ar
    30    25    26    1
    31    92    91    1
    32    68    70   ar
    33    91    90    1
    34    69    70   ar
    35    61    60    1
    36    26    27    2
    37     1     2    1
    38    90    84   am
    39    85    84    2
    40     2     5    1
    41     2     3    1
    42    84    83    1
    43     5     6    1
    44    88    87    2
    45    59    58    1
    46    57    58   ar
    47    57    55   ar
    48     3     4    2
    49     7     6   ar
    50     7     9   ar
    51    83    86    1
    52    83    82    1
    53     6     8   ar
    54    58    56   ar
    55    55    53   ar
    56    87    86    1
    57    87    89   am
    58     9    11   ar
    59    51    50    2
    60     8    10   ar
    61    56    54   ar
    62    50    49    1
    63    53    54   ar
    64    53    52    1
    65    11    10   ar
    66    52    49    1
    67    49    48    1
    68    39    40    1
    69    39    36    1
    70    40    41    1
    71    41    42    1
    72    43    42    1
    73    48    46   am
    74    12    13    1
    75    35    36    1
    76    36    37    1
    77    74    73    2
    78    73    72    1
    79    13    14    1
    80    44    37   am
    81    44    45    1
    82    46    47    2
    83    46    45    1
    84    37    38    2
    85    81    79    1
    86    80    79    1
    87    79    78    2
    88    14    15    2
    89    14    16   am
    90    75    72    1
    91    75    76    1
    92    72    71    1
    93    78    77    1
    94    16    17    1
    95    77    76    1
    96    18    17    1
    97    18    19    2
    98    17    20    1
    99    20    21    1
   100    22    21   ar
   101    21    23   ar
