@<TRIPOS>MOLECULE
tmp/5o3mA00.pdb
 104 98 0 0 0
SMALL
GASTEIGER

@<TRIPOS>ATOM
      1  N         26.1100  -12.0460   -4.2070 N.3   147  CYS147     -0.1221
      2  CA        24.7330  -12.2730   -3.7750 C.3   147  CYS147      0.1808
      3  C         24.0380  -13.4190   -4.4890 C.2   147  CYS147      0.2601
      4  O         22.8990  -13.7390   -4.1420 O.2   147  CYS147     -0.2717
      5  CB        23.8960  -10.9970   -3.9470 C.3   147  CYS147      0.0970
      6  SG        24.3770   -9.6400   -2.8360 S.3   147  CYS147     -0.0800
      7  N         24.6750  -14.0560   -5.4640 N.am  148  LEU148     -0.1979
      8  CA        24.0230  -15.1450   -6.1860 C.3   148  LEU148      0.1596
      9  C         24.9190  -16.3750   -6.2170 C.2   148  LEU148      0.2287
     10  O         25.1310  -16.9980   -7.2580 O.2   148  LEU148     -0.2864
     11  CB        23.6270  -14.6970   -7.5900 C.3   148  LEU148      0.0297
     12  CG        22.3160  -13.9120   -7.6860 C.3   148  LEU148      0.0022
     13  CD1       22.0420  -13.5270   -9.1070 C.3   148  LEU148      0.0001
     14  CD2       21.1330  -14.7270   -7.1140 C.3   148  LEU148      0.0001
     15  N         21.4060  -21.5410   -2.4530 N.3   166  ILE166     -0.1231
     16  CA        21.8090  -20.1860   -2.8260 C.3   166  ILE166      0.1692
     17  C         22.1590  -19.4200   -1.5610 C.2   166  ILE166      0.2592
     18  O         21.4300  -19.4840   -0.5600 O.2   166  ILE166     -0.2718
     19  CB        20.7120  -19.4480   -3.6170 C.3   166  ILE166      0.0266
     20  CG1       20.3630  -20.1910   -4.9010 C.3   166  ILE166      0.0019
     21  CG2       21.1600  -18.0420   -3.9910 C.3   166  ILE166      0.0020
     22  CD1       19.3220  -19.4670   -5.7540 C.3   166  ILE166      0.0001
     23  N         23.2770  -18.7000   -1.6100 N.am  167  HIS167     -0.1962
     24  CA        23.7460  -17.8900   -0.5050 C.3   167  HIS167      0.1787
     25  C         24.2640  -16.5670   -1.0530 C.2   167  HIS167      0.2620
     26  O         24.5690  -16.4320   -2.2420 O.2   167  HIS167     -0.2715
     27  CB        24.8830  -18.5690    0.2790 C.3   167  HIS167      0.0785
     28  CG        24.5430  -19.9210    0.8270 C.ar  167  HIS167      0.0821
     29  ND1       24.3570  -20.1500    2.1740 N.ar  167  HIS167     -0.2267
     30  CD2       24.3950  -21.1230    0.2180 C.ar  167  HIS167      0.1154
     31  CE1       24.0910  -21.4290    2.3710 C.ar  167  HIS167      0.1986
     32  NE2       24.1100  -22.0430    1.2010 N.ar  167  HIS167     -0.2212
     33  N         24.3540  -15.5920   -0.1620 N.am  168  ARG168     -0.1977
     34  CA        25.1870  -14.4170   -0.3390 C.3   168  ARG168      0.1597
     35  C         26.4470  -14.5890    0.5140 C.2   168  ARG168      0.2287
     36  O         26.4390  -15.3190    1.5120 O.2   168  ARG168     -0.2864
     37  CB        24.4150  -13.1510    0.0490 C.3   168  ARG168      0.0334
     38  CG        24.1560  -12.9940    1.5530 C.3   168  ARG168      0.0492
     39  CD        23.2550  -11.7960    1.8150 C.3   168  ARG168      0.2205
     40  NE        23.1050  -11.5050    3.2410 N.pl3 168  ARG168     -0.0865
     41  CZ        22.0920  -10.8000    3.7520 C.cat 168  ARG168      0.5346
     42  NH1       21.1420  -10.3300    2.9450 N.pl3 168  ARG168      0.1354
     43  NH2       22.0210  -10.5660    5.0670 N.pl3 168  ARG168      0.1354
     44  N         15.5900  -22.7920   -5.8920 N.3   218  CYS218     -0.1235
     45  CA        14.8320  -22.2310   -4.7790 C.3   218  CYS218      0.1677
     46  C         13.6390  -23.0920   -4.3820 C.2   218  CYS218      0.2270
     47  O         12.9340  -22.7320   -3.4430 O.2   218  CYS218     -0.2867
     48  CB        14.3400  -20.8230   -5.1210 C.3   218  CYS218      0.0956
     49  SG        15.6420  -19.6220   -5.4450 S.3   218  CYS218     -0.0801
     50  N         23.5650   -6.1090    4.4080 N.3   284  MET284     -0.1245
     51  CA        23.1910   -5.4190    3.1800 C.3   284  MET284      0.1570
     52  C         21.6760   -5.2660    3.1740 C.2   284  MET284      0.2261
     53  O         21.0170   -5.6870    4.1360 O.2   284  MET284     -0.2867
     54  CB        23.6580   -6.1890    1.9420 C.3   284  MET284      0.0387
     55  CG        23.1210   -7.6050    1.9200 C.3   284  MET284      0.0595
     56  SD        23.3590   -8.4230    0.3480 S.3   284  MET284     -0.1393
     57  CE        22.1680   -7.5780   -0.6880 C.3   284  MET284      0.0692
     58  N         23.0750   -9.4430   -7.7970 N.3   317  LEU317     -0.1245
     59  CA        21.7950   -8.7500   -7.8450 C.3   317  LEU317      0.1561
     60  C         21.8830   -7.4340   -7.0780 C.2   317  LEU317      0.2260
     61  O         22.8020   -7.2090   -6.2890 O.2   317  LEU317     -0.2867
     62  CB        20.6600   -9.6400   -7.2940 C.3   317  LEU317      0.0270
     63  CG        20.8660  -10.3380   -5.9380 C.3   317  LEU317      0.0019
     64  CD1       20.9720   -9.3250   -4.8000 C.3   317  LEU317      0.0001
     65  CD2       19.7320  -11.3090   -5.6850 C.3   317  LEU317      0.0001
     66  N         17.4430   -6.2020   -2.6510 N.3   320  PRO320     -0.2116
     67  CA        17.4530   -7.2160   -3.7170 C.3   320  PRO320      0.1372
     68  C         16.2450   -7.0940   -4.6850 C.2   320  PRO320      0.2244
     69  O         16.2180   -7.7170   -5.7540 O.2   320  PRO320     -0.2868
     70  CB        17.4400   -8.5420   -2.9220 C.3   320  PRO320      0.0268
     71  CG        16.6840   -8.2010   -1.6680 C.3   320  PRO320      0.0207
     72  CD        17.1400   -6.7870   -1.3300 C.3   320  PRO320      0.0892
     73  N         14.8040  -10.7600   -6.0110 N.3   324  HIS324     -0.1241
     74  CA        14.4090  -11.6190   -4.8890 C.3   324  HIS324      0.1621
     75  C         12.9530  -12.0700   -5.0250 C.2   324  HIS324      0.2264
     76  O         12.6220  -13.2350   -4.7650 O.2   324  HIS324     -0.2867
     77  CB        14.6340  -10.8870   -3.5530 C.3   324  HIS324      0.0745
     78  CG        14.4370  -11.7570   -2.3510 C.ar  324  HIS324      0.0817
     79  ND1       13.1880  -12.0550   -1.8420 N.ar  324  HIS324     -0.2268
     80  CD2       15.3300  -12.4210   -1.5750 C.ar  324  HIS324      0.1154
     81  CE1       13.3230  -12.8590   -0.7990 C.ar  324  HIS324      0.1986
     82  NE2       14.6140  -13.0950   -0.6150 N.ar  324  HIS324     -0.2212
     83  N         12.8710  -15.0760   -7.3120 N.3   327  LEU327     -0.1231
     84  CA        13.5000  -16.2910   -6.8000 C.3   327  LEU327      0.1693
     85  C         12.7550  -16.8500   -5.5910 C.2   327  LEU327      0.2591
     86  O         12.5380  -18.0640   -5.5080 O.2   327  LEU327     -0.2718
     87  CB        14.9670  -16.0180   -6.4570 C.3   327  LEU327      0.0284
     88  CG        15.8360  -15.6640   -7.6680 C.3   327  LEU327      0.0019
     89  CD1       17.2550  -15.2510   -7.2250 C.3   327  LEU327      0.0001
     90  CD2       15.8860  -16.8470   -8.6330 C.3   327  LEU327      0.0001
     91  N         12.3640  -15.9940   -4.6350 N.am  328  ALA328     -0.1980
     92  CA        11.5870  -16.4890   -3.4990 C.3   328  ALA328      0.1597
     93  C         10.1070  -16.6510   -3.8230 C.2   328  ALA328      0.2287
     94  O          9.4490  -17.5320   -3.2530 O.2   328  ALA328     -0.2864
     95  CB        11.7290  -15.5650   -2.2960 C.3   328  ALA328      0.0319
     96  N          7.4450  -13.0820   -0.1710 N.3   360  LYS360     -0.1245
     97  CA         7.3360  -13.8440    1.0720 C.3   360  LYS360      0.1561
     98  C          6.2320  -13.3650    2.0040 C.2   360  LYS360      0.2260
     99  O          5.5430  -14.2040    2.5920 O.2   360  LYS360     -0.2867
    100  CB         8.6840  -13.8060    1.8240 C.3   360  LYS360      0.0271
    101  CG         9.7990  -14.5500    1.0950 C.3   360  LYS360      0.0035
    102  CD        11.1010  -14.3810    1.8400 C.3   360  LYS360      0.0206
    103  CE        11.2400  -15.3930    2.9620 C.3   360  LYS360      0.1093
    104  NZ        11.6260  -16.7330    2.4300 N.3   360  LYS360     -0.1314
@<TRIPOS>BOND
     1    13    12    1
     2    90    88    1
     3    59    58    1
     4    59    62    1
     5    59    60    1
     6    12    11    1
     7    12    14    1
     8    88    89    1
     9    88    87    1
    10    11     8    1
    11    83    84    1
    12    62    63    1
    13    10     9    2
    14    60    61    2
    15    84    87    1
    16    84    85    1
    17     9     8    1
    18     8     7    1
    19    73    74    1
    20    63    65    1
    21    63    64    1
    22    44    45    1
    23    22    20    1
    24    69    68    2
    25    85    86    2
    26    85    91   am
    27     7     3   am
    28    49    48    1
    29    48    45    1
    30    75    74    1
    31    75    76    2
    32    20    19    1
    33    74    77    1
    34    45    46    1
    35    68    67    1
    36    91    92    1
    37     3     4    2
    38     3     2    1
    39    46    47    2
    40     1     2    1
    41    21    19    1
    42     5     2    1
    43     5     6    1
    44    93    92    1
    45    93    94    2
    46    67    70    1
    47    67    66    1
    48    19    16    1
    49    77    78    1
    50    92    95    1
    51    70    71    1
    52    16    15    1
    53    16    17    1
    54    66    72    1
    55    78    79   ar
    56    78    80   ar
    57    26    25    2
    58    79    81   ar
    59    71    72    1
    60    23    17   am
    61    23    24    1
    62    80    82   ar
    63    17    18    2
    64    25    24    1
    65    25    33   am
    66    81    82   ar
    67    57    56    1
    68    24    27    1
    69    34    33    1
    70    34    37    1
    71    34    35    1
    72    96    97    1
    73    37    38    1
    74    30    28   ar
    75    30    32   ar
    76    27    28    1
    77    56    55    1
    78    35    36    2
    79    28    29   ar
    80    97   100    1
    81    97    98    1
    82   101   100    1
    83   101   102    1
    84    32    31   ar
    85    38    39    1
    86    39    40    1
    87   102   103    1
    88    55    54    1
    89    54    51    1
    90    98    99    2
    91    29    31   ar
    92   104   103    1
    93    42    41    1
    94    52    51    1
    95    52    53    2
    96    51    50    1
    97    40    41    2
    98    41    43    1
