@<TRIPOS>MOLECULE
tmp/5o3nB00.pdb
 218 212 0 0 0
SMALL
GASTEIGER

@<TRIPOS>ATOM
      1  N        -67.7420  197.6380  219.1420 N.3   147  CYS147     -0.1235
      2  CA       -68.5250  197.0480  218.0630 C.3   147  CYS147      0.1677
      3  C        -67.7080  196.6330  216.8510 C.2   147  CYS147      0.2270
      4  O        -68.2560  195.9880  215.9500 O.2   147  CYS147     -0.2867
      5  CB       -69.6210  198.0180  217.6120 C.3   147  CYS147      0.0956
      6  SG       -70.8460  198.3610  218.8740 S.3   147  CYS147     -0.0801
      7  N        -59.8280  180.9620  214.2090 N.3   163  ASP163     -0.1225
      8  CA       -60.9910  181.6380  213.6530 C.3   163  ASP163      0.1805
      9  C        -61.0410  183.0590  214.1870 C.2   163  ASP163      0.2598
     10  O        -60.7040  183.3080  215.3490 O.2   163  ASP163     -0.2718
     11  CB       -62.2890  180.9030  214.0010 C.3   163  ASP163      0.1424
     12  CG       -63.4660  181.3560  213.1540 C.2   163  ASP163      0.3668
     13  OD1      -63.9630  182.4820  213.3660 O.co2 163  ASP163     -0.2456
     14  OD2      -63.9080  180.5780  212.2840 O.co2 163  ASP163     -0.2456
     15  N        -61.4610  183.9890  213.3380 N.am  164  VAL164     -0.1966
     16  CA       -61.5620  185.3920  213.7100 C.3   164  VAL164      0.1727
     17  C        -62.9680  185.8760  213.4060 C.2   164  VAL164      0.2617
     18  O        -63.5030  185.6260  212.3190 O.2   164  VAL164     -0.2715
     19  CB       -60.5210  186.2480  212.9810 C.3   164  VAL164      0.0290
     20  CG1      -59.1330  185.7920  213.3830 C.3   164  VAL164      0.0023
     21  CG2      -60.7600  186.1350  211.4990 C.3   164  VAL164      0.0023
     22  N        -63.5730  186.5520  214.3700 N.am  165  THR165     -0.1937
     23  CA       -64.9540  186.9580  214.1990 C.3   165  THR165      0.2028
     24  C        -65.1990  188.2450  214.9630 C.2   165  THR165      0.2642
     25  O        -64.6460  188.4540  216.0470 O.2   165  THR165     -0.2714
     26  CB       -65.9250  185.8670  214.6710 C.3   165  THR165      0.1808
     27  OG1      -65.4860  184.5890  214.1920 O.3   165  THR165     -0.2208
     28  CG2      -67.3220  186.1340  214.1330 C.3   165  THR165      0.0379
     29  N        -66.0200  189.1060  214.3770 N.am  166  ILE166     -0.1963
     30  CA       -66.4780  190.3070  215.0570 C.3   166  ILE166      0.1727
     31  C        -67.6190  189.9280  215.9910 C.2   166  ILE166      0.2616
     32  O        -68.6110  189.3200  215.5660 O.2   166  ILE166     -0.2715
     33  CB       -66.9220  191.3740  214.0440 C.3   166  ILE166      0.0290
     34  CG1      -65.7240  191.9110  213.2580 C.3   166  ILE166      0.0022
     35  CG2      -67.6470  192.5070  214.7530 C.3   166  ILE166      0.0023
     36  CD1      -65.4310  191.1580  211.9810 C.3   166  ILE166      0.0001
     37  N        -67.4720  190.2710  217.2690 N.am  167  HIS167     -0.1959
     38  CA       -68.5100  190.0760  218.2710 C.3   167  HIS167      0.1787
     39  C        -68.6760  191.3560  219.0730 C.2   167  HIS167      0.2620
     40  O        -67.6920  192.0360  219.3790 O.2   167  HIS167     -0.2715
     41  CB       -68.1790  188.9230  219.2300 C.3   167  HIS167      0.0785
     42  CG       -68.1240  187.5790  218.5740 C.ar  167  HIS167      0.0821
     43  ND1      -69.2520  186.9180  218.1380 N.ar  167  HIS167     -0.2267
     44  CD2      -67.0790  186.7610  218.3020 C.ar  167  HIS167      0.1154
     45  CE1      -68.9040  185.7560  217.6140 C.ar  167  HIS167      0.1986
     46  NE2      -67.5910  185.6370  217.7020 N.ar  167  HIS167     -0.2212
     47  N        -69.9190  191.6780  219.4230 N.am  168  ARG168     -0.1977
     48  CA       -70.1620  192.8410  220.2650 C.3   168  ARG168      0.1597
     49  C        -69.6660  192.5600  221.6810 C.2   168  ARG168      0.2287
     50  O        -69.9350  191.4970  222.2520 O.2   168  ARG168     -0.2864
     51  CB       -71.6480  193.2160  220.2620 C.3   168  ARG168      0.0334
     52  CG       -72.5980  192.1970  220.8840 C.3   168  ARG168      0.0492
     53  CD       -73.8840  192.8580  221.3680 C.3   168  ARG168      0.2205
     54  NE       -74.6760  191.9790  222.2270 N.pl3 168  ARG168     -0.0865
     55  CZ       -75.8490  191.4580  221.8770 C.cat 168  ARG168      0.5346
     56  NH1      -76.3660  191.7290  220.6850 N.pl3 168  ARG168      0.1354
     57  NH2      -76.5070  190.6680  222.7170 N.pl3 168  ARG168      0.1354
     58  N        -71.2680  188.1020  223.3300 N.3   180  PHE180     -0.1241
     59  CA       -72.4000  187.3270  222.8440 C.3   180  PHE180      0.1605
     60  C        -71.9730  186.4930  221.6450 C.2   180  PHE180      0.2264
     61  O        -71.3620  187.0130  220.7060 O.2   180  PHE180     -0.2867
     62  CB       -73.5670  188.2420  222.4670 C.3   180  PHE180      0.0534
     63  CG       -74.6330  187.5600  221.6580 C.ar  180  PHE180     -0.0203
     64  CD1      -75.3790  186.5290  222.2040 C.ar  180  PHE180     -0.0042
     65  CD2      -74.8910  187.9520  220.3530 C.ar  180  PHE180     -0.0042
     66  CE1      -76.3630  185.8970  221.4630 C.ar  180  PHE180     -0.0003
     67  CE2      -75.8740  187.3250  219.6050 C.ar  180  PHE180     -0.0003
     68  CZ       -76.6120  186.2960  220.1610 C.ar  180  PHE180     -0.0000
     69  N        -73.8350  183.7940  218.9950 N.3   182  ALA182     -0.1245
     70  CA       -75.0360  183.1110  218.5460 C.3   182  ALA182      0.1562
     71  C        -74.7830  181.6080  218.4520 C.2   182  ALA182      0.2260
     72  O        -73.6420  181.1370  218.4850 O.2   182  ALA182     -0.2867
     73  CB       -75.4970  183.6600  217.1940 C.3   182  ALA182      0.0290
     74  N        -71.8940  179.4860  216.3570 N.3   185  ARG185     -0.1231
     75  CA       -70.7660  180.3220  215.9710 C.3   185  ARG185      0.1694
     76  C        -69.4780  179.5080  216.0360 C.2   185  ARG185      0.2592
     77  O        -69.3290  178.6070  216.8650 O.2   185  ARG185     -0.2718
     78  CB       -70.6740  181.5500  216.8800 C.3   185  ARG185      0.0321
     79  CG       -71.6490  182.6720  216.5310 C.3   185  ARG185      0.0489
     80  CD       -71.4090  183.2120  215.1320 C.3   185  ARG185      0.2205
     81  NE       -72.3070  184.3110  214.7920 N.pl3 185  ARG185     -0.0865
     82  CZ       -73.2570  184.2420  213.8650 C.cat 185  ARG185      0.5346
     83  NH1      -74.0290  185.2940  213.6280 N.pl3 185  ARG185      0.1354
     84  NH2      -73.4310  183.1270  213.1670 N.pl3 185  ARG185      0.1354
     85  N        -68.5410  179.8240  215.1400 N.am  186  HIS186     -0.1962
     86  CA       -67.3610  178.9770  214.9900 C.3   186  HIS186      0.1787
     87  C        -66.4300  179.0900  216.1910 C.2   186  HIS186      0.2620
     88  O        -65.8320  178.0930  216.6130 O.2   186  HIS186     -0.2715
     89  CB       -66.6320  179.3290  213.6950 C.3   186  HIS186      0.0785
     90  CG       -67.2960  178.7820  212.4720 C.ar  186  HIS186      0.0821
     91  ND1      -67.2850  179.4380  211.2600 N.ar  186  HIS186     -0.2267
     92  CD2      -67.9980  177.6410  212.2760 C.ar  186  HIS186      0.1154
     93  CE1      -67.9520  178.7240  210.3700 C.ar  186  HIS186      0.1986
     94  NE2      -68.3940  177.6290  210.9610 N.ar  186  HIS186     -0.2212
     95  N        -66.2910  180.2920  216.7560 N.am  187  ILE187     -0.1977
     96  CA       -65.4780  180.4370  217.9590 C.3   187  ILE187      0.1596
     97  C        -66.1560  179.7670  219.1460 C.2   187  ILE187      0.2287
     98  O        -65.4820  179.2410  220.0410 O.2   187  ILE187     -0.2864
     99  CB       -65.1790  181.9220  218.2320 C.3   187  ILE187      0.0276
    100  CG1      -64.3820  182.5240  217.0750 C.3   187  ILE187      0.0022
    101  CG2      -64.4080  182.0940  219.5320 C.3   187  ILE187      0.0022
    102  CD1      -64.0550  183.9840  217.2660 C.3   187  ILE187      0.0001
    103  N        -63.4030  189.0210  207.0500 N.3   217  ALA217     -0.1231
    104  CA       -63.6660  188.1720  208.2040 C.3   217  ALA217      0.1694
    105  C        -65.1350  187.8020  208.3490 C.2   217  ALA217      0.2592
    106  O        -65.4540  186.8830  209.1120 O.2   217  ALA217     -0.2718
    107  CB       -63.1920  188.8680  209.4820 C.3   217  ALA217      0.0304
    108  N        -66.0320  188.4850  207.6370 N.am  218  CYS218     -0.1956
    109  CA       -67.4660  188.3720  207.8740 C.3   218  CYS218      0.1843
    110  C        -68.1440  187.3410  206.9770 C.2   218  CYS218      0.2625
    111  O        -69.3370  187.4800  206.6760 O.2   218  CYS218     -0.2714
    112  CB       -68.1280  189.7360  207.6980 C.3   218  CYS218      0.0997
    113  SG       -67.7960  190.9280  209.0180 S.3   218  CYS218     -0.0797
    114  N        -67.4240  186.3130  206.5420 N.am  219  PHE219     -0.1960
    115  CA       -68.0460  185.2360  205.7890 C.3   219  PHE219      0.1771
    116  C        -68.6530  184.2010  206.7350 C.2   219  PHE219      0.2619
    117  O        -68.3240  184.1310  207.9240 O.2   219  PHE219     -0.2715
    118  CB       -67.0310  184.5610  204.8690 C.3   219  PHE219      0.0574
    119  CG       -66.7060  185.3440  203.6290 C.ar  219  PHE219     -0.0200
    120  CD1      -67.3350  185.0510  202.4270 C.ar  219  PHE219     -0.0042
    121  CD2      -65.7610  186.3590  203.6590 C.ar  219  PHE219     -0.0042
    122  CE1      -67.0310  185.7650  201.2760 C.ar  219  PHE219     -0.0003
    123  CE2      -65.4540  187.0780  202.5150 C.ar  219  PHE219     -0.0003
    124  CZ       -66.0880  186.7800  201.3230 C.ar  219  PHE219     -0.0000
    125  N        -69.5510  183.3860  206.1860 N.am  220  GLU220     -0.1963
    126  CA       -70.2110  182.3250  206.9310 C.3   220  GLU220      0.1733
    127  C        -70.1750  181.0340  206.1260 C.2   220  GLU220      0.2616
    128  O        -69.9080  181.0310  204.9210 O.2   220  GLU220     -0.2715
    129  CB       -71.6730  182.6690  207.2580 C.3   220  GLU220      0.0429
    130  CG       -71.9130  184.0340  207.8840 C.3   220  GLU220      0.1163
    131  CD       -73.1990  184.0760  208.6920 C.2   220  GLU220      0.3649
    132  OE1      -74.1430  183.3370  208.3450 O.co2 220  GLU220     -0.2457
    133  OE2      -73.2730  184.8570  209.6610 O.co2 220  GLU220     -0.2457
    134  N        -70.4640  179.9330  206.8130 N.am  221  ALA221     -0.1977
    135  CA       -70.6300  178.6600  206.1380 C.3   221  ALA221      0.1597
    136  C        -71.8520  178.7220  205.2210 C.2   221  ALA221      0.2287
    137  O        -72.7990  179.4690  205.4890 O.2   221  ALA221     -0.2864
    138  CB       -70.7870  177.5330  207.1570 C.3   221  ALA221      0.0319
    139  N        -60.4420  183.0230  208.4680 N.3   230  GLU230     -0.1245
    140  CA       -60.9640  184.1210  207.6500 C.3   230  GLU230      0.1567
    141  C        -59.8950  185.1580  207.3480 C.2   230  GLU230      0.2260
    142  O        -60.0140  185.8950  206.3610 O.2   230  GLU230     -0.2867
    143  CB       -62.1550  184.7870  208.3360 C.3   230  GLU230      0.0388
    144  CG       -63.3260  183.8640  208.5820 C.3   230  GLU230      0.1160
    145  CD       -63.3230  183.2700  209.9660 C.2   230  GLU230      0.3649
    146  OE1      -62.4030  183.5610  210.7570 O.co2 230  GLU230     -0.2457
    147  OE2      -64.2500  182.4960  210.2540 O.co2 230  GLU230     -0.2457
    148  N        -77.9180  196.2370  222.3270 N.3   284  MET284     -0.1231
    149  CA       -77.6410  197.4040  221.4980 C.3   284  MET284      0.1687
    150  C        -78.4400  197.2570  220.2040 C.2   284  MET284      0.2434
    151  O        -79.0830  196.2160  220.0060 O.2   284  MET284     -0.2733
    152  CB       -76.1390  197.5300  221.2210 C.3   284  MET284      0.0400
    153  CG       -75.5380  196.3580  220.4740 C.3   284  MET284      0.0596
    154  SD       -73.9410  196.7980  219.7600 S.3   284  MET284     -0.1393
    155  CE       -74.4500  197.9160  218.4510 C.3   284  MET284      0.0692
    156  N        -78.4510  198.2550  219.3110 N.am  285  PRO285     -0.2718
    157  CA       -79.1820  198.0880  218.0460 C.3   285  PRO285      0.1535
    158  C        -78.6170  196.9590  217.1990 C.2   285  PRO285      0.2598
    159  O        -77.4010  196.7880  217.0800 O.2   285  PRO285     -0.2715
    160  CB       -79.0020  199.4390  217.3440 C.3   285  PRO285      0.0310
    161  CG       -78.7580  200.3950  218.4400 C.3   285  PRO285      0.0237
    162  CD       -77.9840  199.6440  219.4810 C.3   285  PRO285      0.0939
    163  N        -79.5220  196.1980  216.5990 N.am  286  GLU286     -0.1978
    164  CA       -79.1780  195.1140  215.6940 C.3   286  GLU286      0.1602
    165  C        -79.2830  195.5940  214.2510 C.2   286  GLU286      0.2287
    166  O        -79.8450  196.6520  213.9590 O.2   286  GLU286     -0.2864
    167  CB       -80.0960  193.9080  215.9270 C.3   286  GLU286      0.0415
    168  CG       -80.1180  193.3820  217.3610 C.3   286  GLU286      0.1163
    169  CD       -78.7580  192.9170  217.8500 C.2   286  GLU286      0.3649
    170  OE1      -77.9220  192.5090  217.0170 O.co2 286  GLU286     -0.2457
    171  OE2      -78.5260  192.9510  219.0770 O.co2 286  GLU286     -0.2457
    172  N        -68.3410  201.4250  215.3180 N.3   317  LEU317     -0.1245
    173  CA       -69.3620  201.7830  214.3460 C.3   317  LEU317      0.1561
    174  C        -70.5930  202.3290  215.0570 C.2   317  LEU317      0.2260
    175  O        -70.7230  202.2570  216.2830 O.2   317  LEU317     -0.2867
    176  CB       -69.7390  200.5900  213.4520 C.3   317  LEU317      0.0270
    177  CG       -70.0420  199.2190  214.0710 C.3   317  LEU317      0.0019
    178  CD1      -71.3910  199.1970  214.7730 C.3   317  LEU317      0.0001
    179  CD2      -69.9910  198.1380  213.0010 C.3   317  LEU317      0.0001
    180  N        -76.1730  199.6370  213.6020 N.3   320  PRO320     -0.2116
    181  CA       -74.9050  199.5010  212.8670 C.3   320  PRO320      0.1372
    182  C        -74.9680  199.9930  211.4140 C.2   320  PRO320      0.2244
    183  O        -73.9260  200.1570  210.7810 O.2   320  PRO320     -0.2868
    184  CB       -74.6370  197.9940  212.9170 C.3   320  PRO320      0.0268
    185  CG       -76.0020  197.3750  213.0360 C.3   320  PRO320      0.0207
    186  CD       -76.7890  198.3260  213.8910 C.3   320  PRO320      0.0892
    187  N        -72.5490  197.9040  208.8160 N.3   324  HIS324     -0.1241
    188  CA       -72.8770  196.4840  208.8480 C.3   324  HIS324      0.1621
    189  C        -73.2450  195.9720  207.4610 C.2   324  HIS324      0.2264
    190  O        -72.9130  194.8350  207.1040 O.2   324  HIS324     -0.2867
    191  CB       -74.0230  196.2230  209.8240 C.3   324  HIS324      0.0745
    192  CG       -74.4010  194.7780  209.9270 C.ar  324  HIS324      0.0817
    193  ND1      -75.2010  194.1540  208.9940 N.ar  324  HIS324     -0.2268
    194  CD2      -74.1000  193.8380  210.8550 C.ar  324  HIS324      0.1154
    195  CE1      -75.3660  192.8880  209.3330 C.ar  324  HIS324      0.1986
    196  NE2      -74.7140  192.6730  210.4620 N.ar  324  HIS324     -0.2212
    197  N        -69.9060  195.1750  205.7750 N.3   327  LEU327     -0.1231
    198  CA       -69.1910  194.0500  206.3680 C.3   327  LEU327      0.1693
    199  C        -69.9210  192.7350  206.1330 C.2   327  LEU327      0.2591
    200  O        -69.2960  191.7220  205.8050 O.2   327  LEU327     -0.2718
    201  CB       -68.9900  194.2870  207.8640 C.3   327  LEU327      0.0284
    202  CG       -68.1040  195.4870  208.2050 C.3   327  LEU327      0.0019
    203  CD1      -68.1980  195.8280  209.6870 C.3   327  LEU327      0.0001
    204  CD2      -66.6680  195.2230  207.7950 C.3   327  LEU327      0.0001
    205  N        -71.2390  192.7230  206.3050 N.am  328  ALA328     -0.1980
    206  CA       -71.9900  191.4970  206.0760 C.3   328  ALA328      0.1597
    207  C        -72.3610  191.3130  204.6080 C.2   328  ALA328      0.2287
    208  O        -72.4040  190.1760  204.1240 O.2   328  ALA328     -0.2864
    209  CB       -73.2550  191.4850  206.9350 C.3   328  ALA328      0.0319
    210  N        -78.0920  191.2050  204.6400 N.3   360  LYS360     -0.1245
    211  CA       -78.3740  189.7990  204.9160 C.3   360  LYS360      0.1561
    212  C        -79.7660  189.3530  204.4880 C.2   360  LYS360      0.2260
    213  O        -79.9180  188.2290  204.0040 O.2   360  LYS360     -0.2867
    214  CB       -78.1830  189.5130  206.4230 C.3   360  LYS360      0.0271
    215  CG       -76.7500  189.6860  206.9130 C.3   360  LYS360      0.0035
    216  CD       -76.6420  189.5450  208.4210 C.3   360  LYS360      0.0206
    217  CE       -76.7870  188.0840  208.8280 C.3   360  LYS360      0.1093
    218  NZ       -75.5660  187.2820  208.5320 N.3   360  LYS360     -0.1314
@<TRIPOS>BOND
     1   122   124   ar
     2   122   120   ar
     3   124   123   ar
     4   120   119   ar
     5   123   121   ar
     6   119   121   ar
     7   119   118    1
     8   213   212    2
     9   208   207    2
    10   212   211    1
    11   207   206    1
    12   210   211    1
    13   118   115    1
    14   211   214    1
    15   128   127    2
    16   136   137    2
    17   136   135    1
    18   197   198    1
    19   115   114    1
    20   115   116    1
    21   200   199    2
    22   206   205    1
    23   206   209    1
    24   127   134   am
    25   127   126    1
    26   199   205   am
    27   199   198    1
    28   135   134    1
    29   135   138    1
    30   125   116   am
    31   125   126    1
    32   142   141    2
    33   198   201    1
    34   214   215    1
    35   114   110   am
    36   111   110    2
    37   116   117    2
    38   215   216    1
    39   126   129    1
    40   110   109    1
    41   103   104    1
    42   190   189    2
    43   129   130    1
    44   141   140    1
    45   189   188    1
    46   108   109    1
    47   108   105   am
    48   140   143    1
    49   140   139    1
    50   112   109    1
    51   112   113    1
    52   204   202    1
    53   201   202    1
    54   130   131    1
    55   104   105    1
    56   104   107    1
    57   202   203    1
    58   143   144    1
    59   132   131   ar
    60   105   106    2
    61   216   217    1
    62   218   217    1
    63   144   145    1
    64   131   133   ar
    65   187   188    1
    66   188   191    1
    67   193   195   ar
    68   193   192   ar
    69   195   196   ar
    70   191   192    1
    71   192   194   ar
    72   145   147   ar
    73   145   146   ar
    74    93    94   ar
    75    93    91   ar
    76   196   194   ar
    77   183   182    2
    78    94    92   ar
    79    91    90   ar
    80   182   181    1
    81    21    19    1
    82    36    34    1
    83    92    90   ar
    84    14    12   ar
    85    18    17    2
    86    90    89    1
    87   181   184    1
    88   181   180    1
    89   184   185    1
    90    19    20    1
    91    19    16    1
    92   179   177    1
    93   185   186    1
    94    12    13   ar
    95    12    11    1
    96    84    82    1
    97    34    33    1
    98    15    16    1
    99    15     9   am
   100    17    16    1
   101    17    22   am
   102   176   177    1
   103   176   173    1
   104   180   186    1
   105    83    82    1
   106     8    11    1
   107     8     9    1
   108     8     7    1
   109    89    86    1
   110    82    81    2
   111   166   165    2
   112    33    35    1
   113    33    30    1
   114   177   178    1
   115    28    26    1
   116     9    10    2
   117    27    26    1
   118    23    22    1
   119    23    26    1
   120    23    24    1
   121   165   164    1
   122   173   174    1
   123   173   172    1
   124    29    24   am
   125    29    30    1
   126    81    80    1
   127    24    25    2
   128    86    85    1
   129    86    87    1
   130   174   175    2
   131    30    31    1
   132    80    79    1
   133    85    76   am
   134    32    31    2
   135   164   167    1
   136   164   163    1
   137   167   168    1
   138     4     3    2
   139    75    76    1
   140    75    74    1
   141    75    78    1
   142    31    37   am
   143    76    77    2
   144    87    88    2
   145    87    95   am
   146    79    78    1
   147   163   158   am
   148    95    96    1
   149     3     2    1
   150   170   169   ar
   151   100   102    1
   152   100    99    1
   153   159   158    2
   154    73    70    1
   155   158   157    1
   156    37    38    1
   157   160   157    1
   158   160   161    1
   159   168   169    1
   160     5     2    1
   161     5     6    1
   162    45    46   ar
   163    45    43   ar
   164    46    44   ar
   165   169   171   ar
   166    96    99    1
   167    96    97    1
   168   157   156    1
   169     2     1    1
   170    43    42   ar
   171    99   101    1
   172    38    39    1
   173    38    41    1
   174    44    42   ar
   175   161   162    1
   176   155   154    1
   177    71    72    2
   178    71    70    1
   179    70    69    1
   180    42    41    1
   181    39    40    2
   182    39    47   am
   183    97    98    2
   184   156   162    1
   185   156   150   am
   186    47    48    1
   187    67    68   ar
   188    67    65   ar
   189   154   153    1
   190   151   150    2
   191    68    66   ar
   192   150   149    1
   193    51    48    1
   194    51    52    1
   195    48    49    1
   196    65    63   ar
   197   153   152    1
   198    56    55    1
   199    61    60    2
   200    52    53    1
   201   152   149    1
   202    53    54    1
   203    66    64   ar
   204   149   148    1
   205    60    59    1
   206    63    64   ar
   207    63    62    1
   208    49    50    2
   209    55    54    2
   210    55    57    1
   211    62    59    1
   212    59    58    1
