@<TRIPOS>MOLECULE
tmp/5o3pC00.pdb
 96 91 0 0 0
SMALL
GASTEIGER

@<TRIPOS>ATOM
      1  N         -0.9760   21.6930   -8.5840 N.3    10  VAL10      -0.1231
      2  CA        -2.1040   21.2350   -9.4220 C.3    10  VAL10       0.1692
      3  C         -1.9000   21.8370  -10.8020 C.2    10  VAL10       0.2593
      4  O         -1.7600   23.0620  -10.9170 O.2    10  VAL10      -0.2718
      5  CB        -3.5100   21.6090   -8.8420 C.3    10  VAL10       0.0266
      6  CG1       -4.6430   21.1010   -9.7730 C.3    10  VAL10       0.0020
      7  CG2       -3.6910   21.0200   -7.4610 C.3    10  VAL10       0.0020
      8  N         -1.8900   21.0070  -11.8500 N.am   11  THR11      -0.1939
      9  CA        -1.5200   21.4920  -13.1690 C.3    11  THR11       0.2028
     10  C         -2.0880   20.6300  -14.2820 C.2    11  THR11       0.2642
     11  O         -2.8690   19.7090  -14.0410 O.2    11  THR11      -0.2714
     12  CB        -0.0040   21.6850  -13.2810 C.3    11  THR11       0.1808
     13  OG1        0.3270   22.4970  -14.4410 O.3    11  THR11      -0.2208
     14  CG2        0.6790   20.3650  -13.3330 C.3    11  THR11       0.0379
     15  N         -1.7110   20.9550  -15.5110 N.am   12  GLU12      -0.1976
     16  CA        -2.1800   20.2040  -16.6440 C.3    12  GLU12       0.1602
     17  C         -1.5450   18.8310  -16.7120 C.2    12  GLU12       0.2287
     18  O         -0.3780   18.6360  -16.4250 O.2    12  GLU12      -0.2864
     19  CB        -1.9640   20.9780  -17.9690 C.3    12  GLU12       0.0415
     20  CG        -2.4080   22.4160  -17.9040 C.3    12  GLU12       0.1163
     21  CD        -2.3320   23.1500  -19.2510 C.2    12  GLU12       0.3649
     22  OE1       -2.2980   22.4470  -20.2880 O.co2  12  GLU12      -0.2457
     23  OE2       -2.3340   24.4270  -19.2710 O.co2  12  GLU12      -0.2457
     24  N        -10.7070   19.8850  -12.7380 N.3    38  GLY38      -0.1210
     25  CA       -10.7810   21.3200  -12.3970 C.3    38  GLY38       0.1956
     26  C        -11.8490   22.0090  -13.1940 C.2    38  GLY38       0.2611
     27  O        -12.3640   21.4060  -14.1400 O.2    38  GLY38      -0.2717
     28  N        -12.2100   23.2440  -12.8350 N.am   39  LYS39      -0.1979
     29  CA       -13.2570   23.9600  -13.6180 C.3    39  LYS39       0.1596
     30  C        -12.8400   24.0290  -15.1070 C.2    39  LYS39       0.2287
     31  O        -11.7150   24.3970  -15.4310 O.2    39  LYS39      -0.2864
     32  CB       -13.5630   25.3520  -13.0520 C.3    39  LYS39       0.0298
     33  CG       -14.6590   26.0970  -13.7860 C.3    39  LYS39       0.0038
     34  CD       -15.1320   27.3290  -13.0350 C.3    39  LYS39       0.0206
     35  CE       -15.7830   28.3080  -14.0120 C.3    39  LYS39       0.1093
     36  NZ       -16.5960   29.3390  -13.3200 N.3    39  LYS39      -0.1314
     37  N        -12.6870   19.5410  -16.5010 N.3    42  GLU42      -0.1231
     38  CA       -11.5640   19.0200  -17.2920 C.3    42  GLU42       0.1699
     39  C        -10.5660   18.2840  -16.4000 C.2    42  GLU42       0.2592
     40  O        -10.2820   18.7330  -15.2640 O.2    42  GLU42      -0.2718
     41  CB       -10.8160   20.1610  -17.9930 C.3    42  GLU42       0.0402
     42  CG       -11.5480   20.7090  -19.2160 C.3    42  GLU42       0.1161
     43  CD       -11.0430   22.0730  -19.7120 C.2    42  GLU42       0.3649
     44  OE1       -9.9320   22.5190  -19.2950 O.co2  42  GLU42      -0.2457
     45  OE2      -11.7960   22.6860  -20.5340 O.co2  42  GLU42      -0.2457
     46  N        -10.0230   17.1910  -16.9440 N.am   43  ALA43      -0.1966
     47  CA        -9.0160   16.3300  -16.2490 C.3    43  ALA43       0.1728
     48  C         -7.7350   17.0840  -16.1010 C.2    43  ALA43       0.2616
     49  O         -7.3470   17.7560  -17.0550 O.2    43  ALA43      -0.2715
     50  CB        -8.7840   15.0480  -17.0630 C.3    43  ALA43       0.0334
     51  N         -7.1270   17.0090  -14.9020 N.am   44  ASN44      -0.1972
     52  CA        -5.8430   17.5620  -14.5660 C.3    44  ASN44       0.1688
     53  C         -5.1090   16.6750  -13.5890 C.2    44  ASN44       0.2292
     54  O         -5.4880   15.5240  -13.4210 O.2    44  ASN44      -0.2864
     55  CB        -5.9130   19.0030  -14.1200 C.3    44  ASN44       0.1181
     56  CG        -6.7700   19.2280  -12.9350 C.2    44  ASN44       0.2629
     57  OD1       -7.2170   18.2950  -12.2360 O.2    44  ASN44      -0.2716
     58  ND2       -7.0710   20.5260  -12.7070 N.am   44  ASN44      -0.0877
     59  N         -2.6090   16.3730   -9.8160 N.3    46  LYS46      -0.1245
     60  CA        -2.1640   16.9330   -8.5380 C.3    46  LYS46       0.1561
     61  C         -0.9930   16.1380   -7.9650 C.2    46  LYS46       0.2260
     62  O         -1.1140   14.9460   -7.7360 O.2    46  LYS46      -0.2867
     63  CB        -3.2940   16.9190   -7.5310 C.3    46  LYS46       0.0271
     64  CG        -2.9750   17.4060   -6.1430 C.3    46  LYS46       0.0035
     65  CD        -4.1750   17.3240   -5.2250 C.3    46  LYS46       0.0206
     66  CE        -3.8810   17.4610   -3.7970 C.3    46  LYS46       0.1093
     67  NZ        -5.0410   16.9260   -2.9900 N.3    46  LYS46      -0.1314
     68  N         -1.3860   26.3230  -17.2610 N.3    73  ALA73      -0.1231
     69  CA        -2.0680   26.6350  -16.0380 C.3    73  ALA73       0.1694
     70  C         -1.5120   25.8030  -14.9100 C.2    73  ALA73       0.2593
     71  O         -1.2780   24.6470  -15.0790 O.2    73  ALA73      -0.2718
     72  CB        -3.5580   26.3430  -16.1430 C.3    73  ALA73       0.0304
     73  N         -1.2730   26.4420  -13.8200 N.am   74  GLY74      -0.1942
     74  CA        -0.7270   25.7210  -12.5820 C.3    74  GLY74       0.2014
     75  C         -0.9010   26.5250  -11.3270 C.2    74  GLY74       0.2638
     76  O         -0.9410   27.7740  -11.3800 O.2    74  GLY74      -0.2714
     77  N         -1.0940   25.8540  -10.1730 N.am   75  ILE75      -0.1977
     78  CA        -1.1730   26.5210   -8.8710 C.3    75  ILE75       0.1596
     79  C         -0.2990   25.6890   -7.9360 C.2    75  ILE75       0.2287
     80  O         -0.2400   24.4640   -8.0270 O.2    75  ILE75      -0.2864
     81  CB        -2.6010   26.7560   -8.3680 C.3    75  ILE75       0.0276
     82  CG1       -2.6260   27.5660   -7.0700 C.3    75  ILE75       0.0022
     83  CG2       -3.2650   25.4040   -8.1210 C.3    75  ILE75       0.0022
     84  CD1       -3.9540   28.1860   -6.7460 C.3    75  ILE75       0.0001
     85  N          0.8570   25.4700   -3.7610 N.3    77  TYR77      -0.1241
     86  CA         0.6270   25.8510   -2.4240 C.3    77  TYR77       0.1605
     87  C          1.3190   24.9450   -1.4280 C.2    77  TYR77       0.2264
     88  O          1.7600   23.8670   -1.7870 O.2    77  TYR77      -0.2867
     89  CB        -0.8230   26.1350   -2.1290 C.3    77  TYR77       0.0534
     90  CG        -1.7200   24.8840   -2.1260 C.ar   77  TYR77      -0.0201
     91  CD1       -1.8710   24.1600   -0.9950 C.ar   77  TYR77      -0.0009
     92  CD2       -2.3700   24.4600   -3.3110 C.ar   77  TYR77      -0.0009
     93  CE1       -2.6920   23.0240   -0.9310 C.ar   77  TYR77       0.0417
     94  CE2       -3.2220   23.3590   -3.2720 C.ar   77  TYR77       0.0417
     95  CZ        -3.4010   22.6810   -2.0970 C.ar   77  TYR77       0.1957
     96  OH        -4.1810   21.5220   -2.0550 O.3    77  TYR77      -0.2866
@<TRIPOS>BOND
     1    45    43   ar
     2    22    21   ar
     3    43    44   ar
     4    43    42    1
     5    23    21   ar
     6    21    20    1
     7    42    41    1
     8    41    38    1
     9    19    20    1
    10    19    16    1
    11    38    37    1
    12    38    39    1
    13    68    69    1
    14    50    47    1
    15    49    48    2
    16    46    39   am
    17    46    47    1
    18    17    16    1
    19    17    18    2
    20    16    15    1
    21    39    40    2
    22    47    48    1
    23    72    69    1
    24    48    51   am
    25    69    70    1
    26    15    10   am
    27    31    30    2
    28    30    29    1
    29    71    70    2
    30    70    73   am
    31    51    52    1
    32    52    55    1
    33    52    53    1
    34    13    12    1
    35    10    11    2
    36    10     9    1
    37    27    26    2
    38    55    56    1
    39    35    36    1
    40    35    34    1
    41    73    74    1
    42    33    32    1
    43    33    34    1
    44    29    32    1
    45    29    28    1
    46    53    54    2
    47    14    12    1
    48    12     9    1
    49    26    28   am
    50    26    25    1
    51     9     8    1
    52    56    58   am
    53    56    57    2
    54    24    25    1
    55    74    75    1
    56     8     3   am
    57    76    75    2
    58    75    77   am
    59     4     3    2
    60     3     2    1
    61    77    78    1
    62    59    60    1
    63     6     5    1
    64     2     5    1
    65     2     1    1
    66    78    81    1
    67    78    79    1
    68     5     7    1
    69    60    61    1
    70    60    63    1
    71    81    83    1
    72    81    82    1
    73    80    79    2
    74    61    62    2
    75    63    64    1
    76    82    84    1
    77    64    65    1
    78    65    66    1
    79    66    67    1
    80    85    86    1
    81    92    94   ar
    82    92    90   ar
    83    94    95   ar
    84    86    89    1
    85    86    87    1
    86    89    90    1
    87    90    91   ar
    88    95    96    1
    89    95    93   ar
    90    88    87    2
    91    91    93   ar
