@<TRIPOS>MOLECULE
tmp/5o3qA01.pdb
 95 91 0 0 0
SMALL
GASTEIGER

@<TRIPOS>ATOM
      1  N        -16.1870   16.5790    1.1790 N.3    10  VAL10      -0.1231
      2  CA       -16.2600   15.2090    0.7300 C.3    10  VAL10       0.1692
      3  C        -17.7160   14.8230    0.8150 C.2    10  VAL10       0.2593
      4  O        -18.3450   14.8780    1.8720 O.2    10  VAL10      -0.2718
      5  CB       -15.4300   14.2240    1.5340 C.3    10  VAL10       0.0266
      6  CG1      -15.4800   12.8620    0.8270 C.3    10  VAL10       0.0020
      7  CG2      -13.9760   14.7060    1.6710 C.3    10  VAL10       0.0020
      8  N        -18.2850   14.4120   -0.3130 N.am   11  THR11      -0.1939
      9  CA       -19.7110   14.1540   -0.3220 C.3    11  THR11       0.2028
     10  C        -20.1210   13.2430   -1.4610 C.2    11  THR11       0.2642
     11  O        -19.2800   12.6830   -2.1610 O.2    11  THR11      -0.2714
     12  CB       -20.4970   15.4870   -0.3450 C.3    11  THR11       0.1808
     13  OG1      -21.8850   15.2700   -0.0810 O.3    11  THR11      -0.2208
     14  CG2      -20.3780   16.1300   -1.6980 C.3    11  THR11       0.0379
     15  N        -21.4250   13.0950   -1.6670 N.am   12  GLU12      -0.1976
     16  CA       -21.9200   12.1280   -2.6470 C.3    12  GLU12       0.1602
     17  C        -21.6810   12.6270   -4.0840 C.2    12  GLU12       0.2287
     18  O        -21.8590   13.8150   -4.3810 O.2    12  GLU12      -0.2864
     19  CB       -23.3830   11.7950   -2.3800 C.3    12  GLU12       0.0415
     20  CG       -23.6280   11.2480   -0.9780 C.3    12  GLU12       0.1163
     21  CD       -25.0250   10.6610   -0.7740 C.2    12  GLU12       0.3649
     22  OE1      -25.5760   10.0850   -1.7300 O.co2  12  GLU12      -0.2457
     23  OE2      -25.5900   10.7650    0.3460 O.co2  12  GLU12      -0.2457
     24  N        -13.3060    7.3640   -2.4630 N.3    37  GLY37      -0.1210
     25  CA       -14.1300    6.3380   -1.8620 C.3    37  GLY37       0.1956
     26  C        -14.2540    6.7150   -0.4280 C.2    37  GLY37       0.2612
     27  O        -13.3580    7.3710    0.1370 O.2    37  GLY37      -0.2717
     28  N        -15.3810    6.4360    0.1430 N.am   38  GLY38      -0.1942
     29  CA       -15.6120    6.8620    1.5150 C.3    38  GLY38       0.2014
     30  C        -16.3780    5.8480    2.3170 C.2    38  GLY38       0.2639
     31  O        -17.1930    5.0580    1.7710 O.2    38  GLY38      -0.2714
     32  N        -16.0960    5.8380    3.6140 N.am   39  LYS39      -0.1963
     33  CA       -16.9170    5.1470    4.6250 C.3    39  LYS39       0.1728
     34  C        -17.2760    6.2090    5.7070 C.2    39  LYS39       0.2616
     35  O        -16.4730    7.0940    6.0640 O.2    39  LYS39      -0.2715
     36  CB       -16.0880    3.9790    5.1690 C.3    39  LYS39       0.0311
     37  CG       -16.7630    3.0130    6.1010 C.3    39  LYS39       0.0038
     38  CD       -16.6990    3.4530    7.5460 C.3    39  LYS39       0.0206
     39  CE       -17.0220    2.3060    8.5070 C.3    39  LYS39       0.1093
     40  NZ       -16.9230    2.9000    9.8750 N.3    39  LYS39      -0.1314
     41  N        -18.5110    6.1910    6.2130 N.am   40  GLY40      -0.1955
     42  CA       -18.9130    7.2240    7.1870 C.3    40  GLY40       0.1869
     43  C        -20.3510    7.0280    7.6620 C.2    40  GLY40       0.2309
     44  O        -20.6040    6.0360    8.3260 O.2    40  GLY40      -0.2863
     45  N        -18.0490    3.4450   -0.5410 N.3    44  GLU44      -0.1231
     46  CA       -18.9130    3.9250   -1.6240 C.3    44  GLU44       0.1699
     47  C        -18.1690    5.0250   -2.3840 C.2    44  GLU44       0.2592
     48  O        -17.4420    5.8310   -1.8040 O.2    44  GLU44      -0.2718
     49  CB       -20.2470    4.4570   -1.0730 C.3    44  GLU44       0.0402
     50  CG       -21.1390    3.4030   -0.3790 C.3    44  GLU44       0.1161
     51  CD       -21.6100    2.2660   -1.2950 C.2    44  GLU44       0.3649
     52  OE1      -21.3620    2.3430   -2.5160 O.co2  44  GLU44      -0.2457
     53  OE2      -22.2300    1.2790   -0.8050 O.co2  44  GLU44      -0.2457
     54  N        -18.3770    5.0580   -3.6920 N.am   45  ALA45      -0.1966
     55  CA       -17.6860    5.9760   -4.5730 C.3    45  ALA45       0.1728
     56  C        -18.2330    7.3100   -4.2300 C.2    45  ALA45       0.2616
     57  O        -19.4440    7.4700   -4.0710 O.2    45  ALA45      -0.2715
     58  CB       -17.9780    5.6220   -6.0440 C.3    45  ALA45       0.0334
     59  N        -17.3680    8.2960   -4.0770 N.am   46  ASN46      -0.1972
     60  CA       -17.7820    9.6250   -3.7450 C.3    46  ASN46       0.1688
     61  C        -16.8370   10.6680   -4.3520 C.2    46  ASN46       0.2292
     62  O        -16.0560   10.3130   -5.2660 O.2    46  ASN46      -0.2864
     63  CB       -18.1110    9.7900   -2.2620 C.3    46  ASN46       0.1181
     64  CG       -16.9310    9.6210   -1.3730 C.2    46  ASN46       0.2629
     65  OD1      -15.7720    9.4930   -1.8480 O.2    46  ASN46      -0.2716
     66  ND2      -17.2070    9.5390   -0.0490 N.am   46  ASN46      -0.0877
     67  N        -24.9460   12.5240    2.5230 N.3    75  ALA75      -0.1231
     68  CA       -23.8100   12.3930    3.4440 C.3    75  ALA75       0.1694
     69  C        -22.7390   13.3570    3.0320 C.2    75  ALA75       0.2593
     70  O        -22.5620   13.6280    1.8510 O.2    75  ALA75      -0.2718
     71  CB       -23.2870   10.9560    3.4390 C.3    75  ALA75       0.0304
     72  N        -22.0110   13.8880    3.9990 N.am   76  GLY76      -0.1942
     73  CA       -20.8710   14.7560    3.7050 C.3    76  GLY76       0.2014
     74  C        -20.1000   15.2190    4.9250 C.2    76  GLY76       0.2638
     75  O        -20.6080   15.1860    6.0680 O.2    76  GLY76      -0.2714
     76  N        -18.8680   15.6360    4.6740 N.am   77  ILE77      -0.1977
     77  CA       -18.0400   16.2900    5.6660 C.3    77  ILE77       0.1596
     78  C        -17.3780   17.4880    4.9720 C.2    77  ILE77       0.2287
     79  O        -16.9660   17.4200    3.8190 O.2    77  ILE77      -0.2864
     80  CB       -17.0400   15.2950    6.3120 C.3    77  ILE77       0.0276
     81  CG1      -16.3800   15.9110    7.5240 C.3    77  ILE77       0.0022
     82  CG2      -15.9200   14.9110    5.3390 C.3    77  ILE77       0.0022
     83  CD1      -15.6470   14.9580    8.4230 C.3    77  ILE77       0.0001
     84  N        -14.3240   20.3720    5.9480 N.3    79  TYR79      -0.1241
     85  CA       -13.3350   20.8420    6.8740 C.3    79  TYR79       0.1605
     86  C        -12.4120   21.8360    6.2340 C.2    79  TYR79       0.2264
     87  O        -12.4350   22.0200    5.0140 O.2    79  TYR79      -0.2867
     88  CB       -12.5430   19.6630    7.4440 C.3    79  TYR79       0.0534
     89  CG       -11.7710   18.7660    6.4560 C.ar   79  TYR79      -0.0201
     90  CD1      -12.3720   17.6580    5.8880 C.ar   79  TYR79      -0.0009
     91  CD2      -10.4390   19.0150    6.1520 C.ar   79  TYR79      -0.0009
     92  CE1      -11.6470   16.7920    5.0550 C.ar   79  TYR79       0.0417
     93  CE2       -9.7580   18.1930    5.2810 C.ar   79  TYR79       0.0417
     94  CZ       -10.3760   17.0720    4.7680 C.ar   79  TYR79       0.1957
     95  OH        -9.6930   16.1800    3.9480 O.3    79  TYR79      -0.2866
@<TRIPOS>BOND
     1    58    55    1
     2    62    61    2
     3    55    56    1
     4    55    54    1
     5    18    17    2
     6    61    60    1
     7    56    59   am
     8    56    57    2
     9    17    16    1
    10    59    60    1
    11    60    63    1
    12    54    47   am
    13    16    19    1
    14    16    15    1
    15    52    51   ar
    16    24    25    1
    17    47    48    2
    18    47    46    1
    19    19    20    1
    20    63    64    1
    21    11    10    2
    22    25    26    1
    23    65    64    2
    24    22    21   ar
    25    14    12    1
    26    15    10   am
    27    46    49    1
    28    46    45    1
    29    10     9    1
    30    64    66   am
    31    51    53   ar
    32    51    50    1
    33    49    50    1
    34    20    21    1
    35    21    23   ar
    36    26    27    2
    37    26    28   am
    38    12     9    1
    39    12    13    1
    40     9     8    1
    41     8     3   am
    42    28    29    1
    43     2     3    1
    44     2     1    1
    45     2     5    1
    46     3     4    2
    47     6     5    1
    48    29    30    1
    49     5     7    1
    50    31    30    2
    51    70    69    2
    52    30    32   am
    53    67    68    1
    54    69    68    1
    55    69    72   am
    56    71    68    1
    57    32    33    1
    58    73    72    1
    59    73    74    1
    60    79    78    2
    61    95    94    1
    62    33    36    1
    63    33    34    1
    64    76    74   am
    65    76    77    1
    66    94    92   ar
    67    94    93   ar
    68    74    75    2
    69    78    77    1
    70    87    86    2
    71    92    90   ar
    72    36    37    1
    73    93    91   ar
    74    82    80    1
    75    77    80    1
    76    34    35    2
    77    34    41   am
    78    90    89   ar
    79    84    85    1
    80    37    38    1
    81    91    89   ar
    82    41    42    1
    83    86    85    1
    84    80    81    1
    85    89    88    1
    86    85    88    1
    87    42    43    1
    88    81    83    1
    89    38    39    1
    90    43    44    2
    91    39    40    1
