@<TRIPOS>MOLECULE
tmp/5o3rA00.pdb
 81 76 0 0 0
SMALL
GASTEIGER

@<TRIPOS>ATOM
      1  N        -16.4130   16.7380    0.9530 N.3    10  VAL10      -0.1231
      2  CA       -16.5810   15.3840    0.4740 C.3    10  VAL10       0.1692
      3  C        -18.0750   15.0680    0.4830 C.2    10  VAL10       0.2592
      4  O        -18.7380   15.2600    1.4890 O.2    10  VAL10      -0.2718
      5  CB       -15.8120   14.3750    1.3280 C.3    10  VAL10       0.0266
      6  CG1      -15.9680   12.9800    0.7360 C.3    10  VAL10       0.0020
      7  CG2      -14.3410   14.7780    1.4200 C.3    10  VAL10       0.0020
      8  N        -18.6160   14.6040   -0.6310 N.am   11  THR11      -0.1953
      9  CA       -20.0350   14.4000   -0.6910 C.3    11  THR11       0.1897
     10  C        -20.3870   13.4140   -1.8000 C.2    11  THR11       0.2313
     11  O        -19.5060   12.7660   -2.3370 O.2    11  THR11      -0.2863
     12  CB       -20.7560   15.7410   -0.8960 C.3    11  THR11       0.1794
     13  OG1      -22.1610   15.5830   -0.5780 O.3    11  THR11      -0.2208
     14  CG2      -20.5620   16.2330   -2.3310 C.3    11  THR11       0.0378
     15  N        -13.4040    7.3100   -2.5840 N.3    37  GLY37      -0.1210
     16  CA       -14.2620    6.3540   -1.8880 C.3    37  GLY37       0.1956
     17  C        -14.3750    6.8560   -0.4500 C.2    37  GLY37       0.2612
     18  O        -13.5460    7.6390    0.0220 O.2    37  GLY37      -0.2717
     19  N        -15.4020    6.4260    0.2510 N.am   38  GLY38      -0.1942
     20  CA       -15.5080    6.7650    1.6580 C.3    38  GLY38       0.2014
     21  C        -16.4180    5.8160    2.4120 C.2    38  GLY38       0.2639
     22  O        -17.2830    5.1690    1.8310 O.2    38  GLY38      -0.2714
     23  N        -16.1680    5.7180    3.7060 N.am   39  LYS39      -0.1963
     24  CA       -17.1130    5.1530    4.6700 C.3    39  LYS39       0.1728
     25  C        -17.3790    6.2540    5.7450 C.2    39  LYS39       0.2616
     26  O        -16.5110    7.0640    6.0580 O.2    39  LYS39      -0.2715
     27  CB       -16.5630    3.8280    5.2060 C.3    39  LYS39       0.0311
     28  CG       -16.7400    3.6200    6.6940 C.3    39  LYS39       0.0038
     29  CD       -17.2900    2.2620    7.1060 C.3    39  LYS39       0.0206
     30  CE       -18.0980    2.3910    8.4010 C.3    39  LYS39       0.1093
     31  NZ       -17.7350    3.5930    9.2380 N.3    39  LYS39      -0.1314
     32  N        -18.6040    6.3390    6.2600 N.am   40  GLY40      -0.1955
     33  CA       -18.9790    7.4670    7.1430 C.3    40  GLY40       0.1869
     34  C        -20.3210    7.2680    7.8380 C.2    40  GLY40       0.2309
     35  O        -20.5910    6.1750    8.3050 O.2    40  GLY40      -0.2863
     36  N        -18.1010    3.4450   -0.3920 N.3    43  GLU43      -0.1245
     37  CA       -18.8930    3.8900   -1.5450 C.3    43  GLU43       0.1567
     38  C        -18.2810    5.0700   -2.2680 C.2    43  GLU43       0.2260
     39  O        -17.5430    5.8460   -1.6920 O.2    43  GLU43      -0.2867
     40  CB       -20.3390    4.1940   -1.1930 C.3    43  GLU43       0.0388
     41  CG       -20.5900    4.8640    0.1450 C.3    43  GLU43       0.1160
     42  CD       -21.9520    4.4770    0.6900 C.2    43  GLU43       0.3649
     43  OE1      -22.2980    3.2660    0.6650 O.co2  43  GLU43      -0.2457
     44  OE2      -22.6790    5.3840    1.1320 O.co2  43  GLU43      -0.2457
     45  N        -17.5740    8.4150   -3.9760 N.3    45  ASN45      -0.1240
     46  CA       -17.9400    9.7830   -3.7830 C.3    45  ASN45       0.1653
     47  C        -16.9690   10.7150   -4.4590 C.2    45  ASN45       0.2266
     48  O        -16.1670   10.2710   -5.2900 O.2    45  ASN45      -0.2867
     49  CB       -18.2040   10.0840   -2.3130 C.3    45  ASN45       0.1155
     50  CG       -17.0800    9.7210   -1.4130 C.2    45  ASN45       0.2627
     51  OD1      -15.9640    9.4490   -1.8580 O.2    45  ASN45      -0.2716
     52  ND2      -17.3650    9.7200   -0.1070 N.am   45  ASN45      -0.0877
     53  N        -25.0710   12.4330    2.0000 N.3    74  ALA74      -0.1231
     54  CA       -23.8870   12.2140    2.8320 C.3    74  ALA74       0.1697
     55  C        -22.8410   13.2760    2.5110 C.2    74  ALA74       0.2632
     56  O        -22.7200   13.7150    1.3610 O.2    74  ALA74      -0.2714
     57  CB       -23.3160   10.8220    2.5780 C.3    74  ALA74       0.0304
     58  N        -22.0930   13.7000    3.5290 N.am   75  GLY75      -0.1718
     59  CA       -20.9980   14.6420    3.3150 C.2    75  GLY75       0.1480
     60  C        -20.2410   15.0930    4.5580 C.2    75  GLY75       0.2820
     61  O        -20.7180   14.9640    5.6800 O.2    75  GLY75      -0.2669
     62  N        -19.0630   15.6680    4.3300 N.am   76  ILE76      -0.1943
     63  CA       -18.3090   16.3620    5.3690 C.3    76  ILE76       0.1599
     64  C        -17.6140   17.5600    4.7110 C.2    76  ILE76       0.2287
     65  O        -17.2010   17.4820    3.5530 O.2    76  ILE76      -0.2864
     66  CB       -17.3510   15.3880    6.1290 C.3    76  ILE76       0.0276
     67  CG1      -16.6870   16.0880    7.3170 C.3    76  ILE76       0.0022
     68  CG2      -16.2720   14.8140    5.2210 C.3    76  ILE76       0.0022
     69  CD1      -15.9600   15.1440    8.2910 C.3    76  ILE76       0.0001
     70  N        -14.6190   20.5660    5.6870 N.3    78  TYR78      -0.1241
     71  CA       -13.6190   20.9750    6.6130 C.3    78  TYR78       0.1605
     72  C        -12.6710   21.9130    5.9310 C.2    78  TYR78       0.2264
     73  O        -12.7550   22.0870    4.7400 O.2    78  TYR78      -0.2867
     74  CB       -12.8950   19.7760    7.2220 C.3    78  TYR78       0.0534
     75  CG       -12.1350   18.8600    6.2660 C.ar   78  TYR78      -0.0201
     76  CD1      -12.7510   17.7570    5.6760 C.ar   78  TYR78      -0.0009
     77  CD2      -10.7830   19.0640    6.0160 C.ar   78  TYR78      -0.0009
     78  CE1      -12.0340   16.8920    4.8330 C.ar   78  TYR78       0.0417
     79  CE2      -10.0780   18.2310    5.1630 C.ar   78  TYR78       0.0417
     80  CZ       -10.6940   17.1450    4.6000 C.ar   78  TYR78       0.1957
     81  OH        -9.9450   16.3390    3.7900 O.3    78  TYR78      -0.2866
@<TRIPOS>BOND
     1    48    47    2
     2    47    46    1
     3    45    46    1
     4    46    49    1
     5    15    16    1
     6    11    10    2
     7    14    12    1
     8    49    50    1
     9    38    39    2
    10    38    37    1
    11    16    17    1
    12    51    50    2
    13    10     9    1
    14    37    40    1
    15    37    36    1
    16    50    52   am
    17    40    41    1
    18    12     9    1
    19    12    13    1
    20     9     8    1
    21     8     3   am
    22    17    18    2
    23    17    19   am
    24    41    42    1
    25    19    20    1
    26     2     3    1
    27     2     1    1
    28     2     5    1
    29     3     4    2
    30    43    42   ar
    31    42    44   ar
    32     6     5    1
    33     5     7    1
    34    56    55    2
    35    20    21    1
    36    22    21    2
    37    53    54    1
    38    21    23   am
    39    55    54    1
    40    55    58    1
    41    57    54    1
    42    59    58    2
    43    59    60    1
    44    65    64    2
    45    23    24    1
    46    81    80    1
    47    62    60   am
    48    62    63    1
    49    60    61    2
    50    80    78   ar
    51    80    79   ar
    52    24    27    1
    53    24    25    1
    54    64    63    1
    55    73    72    2
    56    78    76   ar
    57    79    77   ar
    58    27    28    1
    59    68    66    1
    60    63    66    1
    61    76    75   ar
    62    70    71    1
    63    25    26    2
    64    25    32   am
    65    72    71    1
    66    77    75   ar
    67    66    67    1
    68    32    33    1
    69    75    74    1
    70    71    74    1
    71    28    29    1
    72    29    30    1
    73    33    34    1
    74    67    69    1
    75    34    35    2
    76    30    31    1
