@<TRIPOS>MOLECULE
tmp/5o42A02.pdb
 161 157 0 0 0
SMALL
GASTEIGER

@<TRIPOS>ATOM
      1  N        -12.1220  -37.3980  -19.4040 N.3    90  HIS90      -0.1227
      2  CA       -12.7260  -38.6340  -18.8890 C.3    90  HIS90       0.1737
      3  C        -13.7960  -39.1190  -19.8570 C.2    90  HIS90       0.2438
      4  O        -14.8200  -38.4370  -20.0300 O.2    90  HIS90      -0.2733
      5  CB       -13.3340  -38.4350  -17.4960 C.3    90  HIS90       0.0758
      6  CG       -13.5340  -39.7080  -16.7330 C.ar   90  HIS90       0.0818
      7  ND1      -14.2230  -40.7860  -17.2450 N.ar   90  HIS90      -0.2268
      8  CD2      -13.1360  -40.0740  -15.4910 C.ar   90  HIS90       0.1154
      9  CE1      -14.2260  -41.7650  -16.3580 C.ar   90  HIS90       0.1986
     10  NE2      -13.5810  -41.3560  -15.2820 N.ar   90  HIS90      -0.2212
     11  N        -13.6210  -40.2600  -20.5120 N.am   91  PRO91      -0.2729
     12  CA       -14.6940  -40.7990  -21.3630 C.3    91  PRO91       0.1401
     13  C        -15.9160  -41.1530  -20.5370 C.2    91  PRO91       0.2269
     14  O        -15.8400  -41.2550  -19.3060 O.2    91  PRO91      -0.2865
     15  CB       -14.0590  -42.0640  -21.9760 C.3    91  PRO91       0.0296
     16  CG       -12.6070  -41.8630  -21.8740 C.3    91  PRO91       0.0237
     17  CD       -12.4090  -41.0930  -20.5900 C.3    91  PRO91       0.0939
     18  N        -18.7910  -43.5970  -18.8320 N.3    93  PRO93      -0.2116
     19  CA       -18.6940  -44.9440  -18.2570 C.3    93  PRO93       0.1372
     20  C        -18.6380  -46.0050  -19.3490 C.2    93  PRO93       0.2244
     21  O        -19.4520  -46.0110  -20.2730 O.2    93  PRO93      -0.2868
     22  CB       -19.9760  -45.0680  -17.4260 C.3    93  PRO93       0.0268
     23  CG       -20.4400  -43.6520  -17.1750 C.3    93  PRO93       0.0207
     24  CD       -19.9580  -42.8380  -18.3480 C.3    93  PRO93       0.0892
     25  N         -5.2860  -37.8020  -10.7580 N.3   138  SER138     -0.1202
     26  CA        -6.5950  -38.0400  -10.1840 C.3   138  SER138      0.2020
     27  C         -6.4630  -39.0100   -9.0320 C.2   138  SER138      0.2619
     28  O         -5.6740  -39.9630   -9.0780 O.2   138  SER138     -0.2717
     29  CB        -7.5950  -38.6220  -11.1820 C.3   138  SER138      0.2103
     30  OG        -8.7550  -39.0360  -10.4930 O.3   138  SER138     -0.2182
     31  N         -7.3350  -38.8060   -8.0510 N.am  139  LEU139     -0.1965
     32  CA        -7.5260  -39.7700   -6.9780 C.3   139  LEU139      0.1728
     33  C         -7.7930  -41.1780   -7.5170 C.2   139  LEU139      0.2616
     34  O         -7.3370  -42.1620   -6.9350 O.2   139  LEU139     -0.2715
     35  CB        -8.6790  -39.3300   -6.0830 C.3   139  LEU139      0.0311
     36  CG        -9.0660  -40.3380   -4.9930 C.3   139  LEU139      0.0022
     37  CD1       -7.8910  -40.6000   -4.0680 C.3   139  LEU139      0.0001
     38  CD2      -10.2830  -39.8500   -4.2340 C.3   139  LEU139      0.0001
     39  N         -8.5140  -41.3060   -8.6310 N.am  140  VAL140     -0.1977
     40  CA        -8.8690  -42.6600   -9.0410 C.3   140  VAL140      0.1596
     41  C         -7.6860  -43.4210   -9.6090 C.2   140  VAL140      0.2287
     42  O         -7.7820  -44.6420   -9.7700 O.2   140  VAL140     -0.2864
     43  CB       -10.0630  -42.6800  -10.0260 C.3   140  VAL140      0.0276
     44  CG1      -11.2750  -41.9770   -9.4080 C.3   140  VAL140      0.0022
     45  CG2       -9.7320  -42.0770  -11.3490 C.3   140  VAL140      0.0022
     46  N        -11.6810  -46.7220  -10.0510 N.3   145  GLN145     -0.1231
     47  CA       -13.0120  -46.2120  -10.3520 C.3   145  GLN145      0.1698
     48  C        -13.7260  -47.2660  -11.1860 C.2   145  GLN145      0.2592
     49  O        -13.0940  -48.0140  -11.9340 O.2   145  GLN145     -0.2718
     50  CB       -12.9420  -44.8970  -11.1280 C.3   145  GLN145      0.0381
     51  CG       -14.2460  -44.0930  -11.2160 C.3   145  GLN145      0.0905
     52  CD       -14.0510  -42.8680  -12.0870 C.2   145  GLN145      0.2608
     53  OE1      -13.3280  -42.9250  -13.0890 O.2   145  GLN145     -0.2717
     54  NE2      -14.6660  -41.7490  -11.7010 N.am  145  GLN145     -0.0878
     55  N        -15.0390  -47.3380  -11.0330 N.am  146  ALA146     -0.1966
     56  CA       -15.8280  -48.2740  -11.8180 C.3   146  ALA146      0.1728
     57  C        -16.0310  -47.7570  -13.2390 C.2   146  ALA146      0.2616
     58  O        -16.1500  -46.5480  -13.4810 O.2   146  ALA146     -0.2715
     59  CB       -17.1900  -48.5110  -11.1580 C.3   146  ALA146      0.0334
     60  N        -16.0930  -48.7020  -14.1780 N.am  147  GLN147     -0.1963
     61  CA       -16.3890  -48.4350  -15.5880 C.3   147  GLN147      0.1733
     62  C        -15.4640  -47.3680  -16.1770 C.2   147  GLN147      0.2616
     63  O        -15.8800  -46.5180  -16.9600 O.2   147  GLN147     -0.2715
     64  CB       -17.8710  -48.0720  -15.7670 C.3   147  GLN147      0.0408
     65  CG       -18.7180  -49.2950  -15.4330 C.3   147  GLN147      0.0908
     66  CD       -20.1970  -49.1780  -15.7170 C.2   147  GLN147      0.2608
     67  OE1      -20.6630  -48.2430  -16.3470 O.2   147  GLN147     -0.2717
     68  NE2      -20.9470  -50.1670  -15.2510 N.am  147  GLN147     -0.0878
     69  N        -14.1730  -47.4910  -15.8770 N.am  148  ALA148     -0.1977
     70  CA       -13.1980  -46.5100  -16.3440 C.3   148  ALA148      0.1597
     71  C        -11.7810  -47.0780  -16.4170 C.2   148  ALA148      0.2287
     72  O        -10.8130  -46.4060  -16.0390 O.2   148  ALA148     -0.2864
     73  CB       -13.2020  -45.2850  -15.4180 C.3   148  ALA148      0.0319
     74  N         -9.2380  -44.7080  -18.3170 N.3   151  TYR151     -0.1241
     75  CA        -8.9580  -43.4660  -17.6010 C.3   151  TYR151      0.1605
     76  C         -8.1080  -43.7160  -16.3610 C.2   151  TYR151      0.2264
     77  O         -7.1330  -42.9960  -16.1080 O.2   151  TYR151     -0.2867
     78  CB       -10.2670  -42.7830  -17.2220 C.3   151  TYR151      0.0534
     79  CG       -10.0930  -41.4860  -16.4730 C.ar  151  TYR151     -0.0201
     80  CD1       -9.8860  -40.2870  -17.1540 C.ar  151  TYR151     -0.0009
     81  CD2      -10.1850  -41.4370  -15.0840 C.ar  151  TYR151     -0.0009
     82  CE1       -9.7550  -39.0800  -16.4620 C.ar  151  TYR151      0.0417
     83  CE2      -10.0490  -40.2480  -14.4010 C.ar  151  TYR151      0.0417
     84  CZ        -9.8470  -39.0680  -15.0970 C.ar  151  TYR151      0.1957
     85  OH        -9.7480  -37.8830  -14.4010 O.3   151  TYR151     -0.2866
     86  N         -6.9370  -34.5430   -7.8220 N.3   181  PRO181     -0.2102
     87  CA        -8.2510  -34.1070   -7.3780 C.3   181  PRO181      0.1504
     88  C         -9.1940  -35.2930   -7.3380 C.2   181  PRO181      0.2576
     89  O         -8.9830  -36.3180   -7.9880 O.2   181  PRO181     -0.2718
     90  CB        -8.6940  -33.0850   -8.4390 C.3   181  PRO181      0.0282
     91  CG        -7.4680  -32.9000   -9.3600 C.3   181  PRO181      0.0208
     92  CD        -6.6680  -34.1420   -9.2130 C.3   181  PRO181      0.0893
     93  N        -10.2000  -35.1560   -6.4990 N.am  182  GLY182     -0.1943
     94  CA       -11.3990  -35.9800   -6.5530 C.3   182  GLY182      0.2014
     95  C        -12.4700  -35.2920   -7.3630 C.2   182  GLY182      0.2638
     96  O        -12.1900  -34.6470   -8.3790 O.2   182  GLY182     -0.2714
     97  N        -13.7130  -35.4410   -6.9220 N.am  183  ASN183     -0.1972
     98  CA       -14.8400  -34.8050   -7.5920 C.3   183  ASN183      0.1688
     99  C        -14.7630  -33.2770   -7.5710 C.2   183  ASN183      0.2292
    100  O        -15.0070  -32.6500   -6.5310 O.2   183  ASN183     -0.2864
    101  CB       -16.1560  -35.2340   -6.9500 C.3   183  ASN183      0.1181
    102  CG       -16.5380  -36.6860   -7.2940 C.2   183  ASN183      0.2629
    103  OD1      -16.4320  -37.1290   -8.4480 O.2   183  ASN183     -0.2716
    104  ND2      -16.9500  -37.4300   -6.2820 N.am  183  ASN183     -0.0877
    105  N        -17.0050  -29.1580  -12.6100 N.3   186  THR186     -0.1218
    106  CA       -16.4800  -28.5710  -13.8320 C.3   186  THR186      0.1862
    107  C        -17.4200  -28.8610  -14.9900 C.2   186  THR186      0.2287
    108  O        -18.3190  -29.7000  -14.8690 O.2   186  THR186     -0.2866
    109  CB       -15.1190  -29.1710  -14.1860 C.3   186  THR186      0.1770
    110  OG1      -15.3030  -30.5540  -14.5260 O.3   186  THR186     -0.2211
    111  CG2      -14.1190  -29.0690  -13.0370 C.3   186  THR186      0.0375
    112  N        -16.7640  -30.7200  -17.5080 N.3   188  LEU188     -0.1231
    113  CA       -16.6730  -32.1430  -17.7790 C.3   188  LEU188      0.1693
    114  C        -17.5730  -32.9350  -16.8310 C.2   188  LEU188      0.2592
    115  O        -18.2890  -33.8470  -17.2560 O.2   188  LEU188     -0.2718
    116  CB       -15.2280  -32.6030  -17.6630 C.3   188  LEU188      0.0284
    117  CG       -14.9390  -34.1050  -17.7970 C.3   188  LEU188      0.0019
    118  CD1      -15.3590  -34.6550  -19.1630 C.3   188  LEU188      0.0001
    119  CD2      -13.4500  -34.3650  -17.5740 C.3   188  LEU188      0.0001
    120  N        -17.5550  -32.6040  -15.5380 N.am  189  TRP189     -0.1976
    121  CA       -18.4540  -33.2870  -14.6070 C.3   189  TRP189      0.1640
    122  C        -19.8990  -33.1010  -15.0400 C.2   189  TRP189      0.2290
    123  O        -20.6650  -34.0700  -15.1300 O.2   189  TRP189     -0.2864
    124  CB       -18.2330  -32.7740  -13.1830 C.3   189  TRP189      0.0576
    125  CG       -18.2330  -33.8380  -12.1150 C.ar  189  TRP189      0.0006
    126  CD1      -17.1420  -34.2670  -11.3840 C.ar  189  TRP189      0.0946
    127  CD2      -19.3510  -34.6190  -11.6580 C.ar  189  TRP189      0.0152
    128  NE1      -17.5290  -35.2540  -10.5080 N.ar  189  TRP189     -0.2442
    129  CE2      -18.8710  -35.4870  -10.6540 C.ar  189  TRP189      0.0810
    130  CE3      -20.7160  -34.6680  -11.9930 C.ar  189  TRP189      0.0012
    131  CZ2      -19.7010  -36.4050   -9.9960 C.ar  189  TRP189      0.0191
    132  CZ3      -21.5350  -35.5810  -11.3390 C.ar  189  TRP189      0.0001
    133  CH2      -21.0250  -36.4310  -10.3430 C.ar  189  TRP189      0.0015
    134  N        -20.6720  -35.2540  -18.2030 N.3   192  LEU192     -0.1231
    135  CA       -20.8440  -36.6670  -17.8830 C.3   192  LEU192      0.1693
    136  C        -22.1500  -36.9260  -17.1500 C.2   192  LEU192      0.2591
    137  O        -22.8350  -37.9210  -17.4220 O.2   192  LEU192     -0.2718
    138  CB       -19.6770  -37.1670  -17.0440 C.3   192  LEU192      0.0284
    139  CG       -18.4420  -37.4790  -17.8810 C.3   192  LEU192      0.0019
    140  CD1      -17.2610  -37.6690  -16.9900 C.3   192  LEU192      0.0001
    141  CD2      -18.6650  -38.7230  -18.7110 C.3   192  LEU192      0.0001
    142  N        -22.5110  -36.0600  -16.2090 N.am  193  ALA193     -0.1980
    143  CA       -23.7690  -36.2710  -15.4900 C.3   193  ALA193      0.1597
    144  C        -24.9640  -36.1970  -16.4340 C.2   193  ALA193      0.2287
    145  O        -25.9380  -36.9330  -16.2580 O.2   193  ALA193     -0.2864
    146  CB       -23.9260  -35.2570  -14.3620 C.3   193  ALA193      0.0319
    147  N        -26.4220  -39.3650  -17.9450 N.3   196  MET196     -0.1245
    148  CA       -26.9880  -40.3890  -17.0830 C.3   196  MET196      0.1570
    149  C        -28.5030  -40.3850  -17.1490 C.2   196  MET196      0.2261
    150  O        -29.1170  -39.3720  -17.4900 O.2   196  MET196     -0.2867
    151  CB       -26.5620  -40.1730  -15.6350 C.3   196  MET196      0.0387
    152  CG       -25.0770  -40.2120  -15.4340 C.3   196  MET196      0.0595
    153  SD       -24.3370  -41.7590  -15.9710 S.3   196  MET196     -0.1393
    154  CE       -22.6140  -41.3530  -15.6400 C.3   196  MET196      0.0692
    155  N        -27.1140  -38.4290  -10.1410 N.3   202  THR202     -0.1218
    156  CA       -25.6760  -38.6060  -10.3000 C.3   202  THR202      0.1862
    157  C        -24.9210  -37.4930   -9.5990 C.2   202  THR202      0.2287
    158  O        -23.9040  -37.7390   -8.9400 O.2   202  THR202     -0.2866
    159  CB       -25.3180  -38.6540  -11.7840 C.3   202  THR202      0.1770
    160  OG1      -26.0000  -39.7550  -12.4050 O.3   202  THR202     -0.2211
    161  CG2      -23.8260  -38.8200  -11.9770 C.3   202  THR202      0.0375
@<TRIPOS>BOND
     1    15    16    1
     2    15    12    1
     3    16    17    1
     4    12    13    1
     5    12    11    1
     6    17    11    1
     7    13    14    2
     8    11     3   am
     9    21    20    2
    10     4     3    2
    11     3     2    1
    12     1     2    1
    13    20    19    1
    14   118   117    1
    15     2     5    1
    16    18    24    1
    17    18    19    1
    18   141   139    1
    19    24    23    1
    20    74    75    1
    21    19    22    1
    22   134   135    1
    23   147   148    1
    24   135   136    1
    25   135   138    1
    26   139   138    1
    27   139   140    1
    28   117   116    1
    29   117   119    1
    30   113   116    1
    31   113   112    1
    32   113   114    1
    33    75    78    1
    34    75    76    1
    35     5     6    1
    36   150   149    2
    37    22    23    1
    38   137   136    2
    39   115   114    2
    40     7     6   ar
    41     7     9   ar
    42    78    79    1
    43    80    79   ar
    44    80    82   ar
    45   136   142   am
    46   149   148    1
    47   148   151    1
    48    63    62    2
    49   114   120   am
    50     6     8   ar
    51    79    81   ar
    52    82    84   ar
    53   144   145    2
    54   144   143    1
    55    71    70    1
    56    71    72    2
    57    76    77    2
    58     9    10   ar
    59    67    66    2
    60    70    69    1
    61    70    73    1
    62   142   143    1
    63    62    69   am
    64    62    61    1
    65   153   154    1
    66   153   152    1
    67    64    61    1
    68    64    65    1
    69    66    65    1
    70    66    68   am
    71   151   152    1
    72    61    60    1
    73   120   121    1
    74     8    10   ar
    75   143   146    1
    76   123   122    2
    77    84    83   ar
    78    84    85    1
    79    81    83   ar
    80   122   121    1
    81   107   108    2
    82   107   106    1
    83   121   124    1
    84   110   109    1
    85   109   106    1
    86   109   111    1
    87    60    57   am
    88   106   105    1
    89    58    57    2
    90    57    56    1
    91   124   125    1
    92    53    52    2
    93   160   159    1
    94   125   127   ar
    95   125   126   ar
    96    52    54   am
    97    52    51    1
    98   130   127   ar
    99   130   132   ar
   100   161   159    1
   101    49    48    2
   102    56    59    1
   103    56    55    1
   104   159   156    1
   105   127   129   ar
   106   126   128   ar
   107    45    43    1
   108   132   133   ar
   109    51    50    1
   110    48    55   am
   111    48    47    1
   112    29    30    1
   113    29    26    1
   114    50    47    1
   115    25    26    1
   116   129   128   ar
   117   129   131   ar
   118    47    46    1
   119   133   131   ar
   120   156   155    1
   121   156   157    1
   122    26    27    1
   123    43    44    1
   124    43    40    1
   125    42    41    2
   126    41    40    1
   127   157   158    2
   128    91    92    1
   129    91    90    1
   130    92    86    1
   131    28    27    2
   132    40    39    1
   133    27    31   am
   134    39    33   am
   135   103   102    2
   136    90    87    1
   137    96    95    2
   138    31    32    1
   139    89    88    2
   140    86    87    1
   141    98    99    1
   142    98   101    1
   143    98    97    1
   144    99   100    2
   145    33    32    1
   146    33    34    2
   147    87    88    1
   148    95    97   am
   149    95    94    1
   150    88    93   am
   151   102   101    1
   152   102   104   am
   153    32    35    1
   154    94    93    1
   155    35    36    1
   156    36    38    1
   157    36    37    1
