@<TRIPOS>MOLECULE
tmp/5o43A02.pdb
 154 149 0 0 0
SMALL
GASTEIGER

@<TRIPOS>ATOM
      1  N        -12.0640  -37.4830  -19.3500 N.3    90  HIS90      -0.1241
      2  CA       -12.6620  -38.7140  -18.8300 C.3    90  HIS90       0.1621
      3  C        -13.7440  -39.1530  -19.8000 C.2    90  HIS90       0.2264
      4  O        -14.7300  -38.4150  -19.9950 O.2    90  HIS90      -0.2867
      5  CB       -13.2600  -38.4970  -17.4390 C.3    90  HIS90       0.0745
      6  CG       -13.5290  -39.7680  -16.6920 C.ar   90  HIS90       0.0817
      7  ND1      -14.2900  -40.7890  -17.2190 N.ar   90  HIS90      -0.2268
      8  CD2      -13.1710  -40.1660  -15.4470 C.ar   90  HIS90       0.1154
      9  CE1      -14.3580  -41.7760  -16.3410 C.ar   90  HIS90       0.1986
     10  NE2      -13.6790  -41.4280  -15.2620 N.ar   90  HIS90      -0.2212
     11  N        -18.7020  -43.5330  -18.8040 N.3    93  PRO93      -0.2116
     12  CA       -18.6050  -44.8800  -18.2340 C.3    93  PRO93       0.1372
     13  C        -18.6230  -45.9430  -19.3210 C.2    93  PRO93       0.2244
     14  O        -19.4750  -45.9300  -20.2170 O.2    93  PRO93      -0.2868
     15  CB       -19.8510  -44.9680  -17.3450 C.3    93  PRO93       0.0268
     16  CG       -20.1700  -43.5340  -16.9890 C.3    93  PRO93       0.0207
     17  CD       -19.7770  -42.7310  -18.1860 C.3    93  PRO93       0.0892
     18  N         -5.3130  -37.8730  -10.7710 N.3   138  SER138     -0.1202
     19  CA        -6.6320  -38.1130  -10.2340 C.3   138  SER138      0.2020
     20  C         -6.5190  -39.0610   -9.0580 C.2   138  SER138      0.2619
     21  O         -5.7110  -39.9970   -9.0650 O.2   138  SER138     -0.2717
     22  CB        -7.5460  -38.7530  -11.2600 C.3   138  SER138      0.2103
     23  OG        -8.7640  -39.0440  -10.6200 O.3   138  SER138     -0.2182
     24  N         -7.3970  -38.8430   -8.0830 N.am  139  LEU139     -0.1965
     25  CA        -7.5510  -39.8030   -7.0020 C.3   139  LEU139      0.1728
     26  C         -7.7910  -41.2060   -7.5280 C.2   139  LEU139      0.2616
     27  O         -7.3380  -42.1790   -6.9180 O.2   139  LEU139     -0.2715
     28  CB        -8.6990  -39.3930   -6.0970 C.3   139  LEU139      0.0311
     29  CG        -9.0880  -40.3840   -4.9900 C.3   139  LEU139      0.0022
     30  CD1       -7.9180  -40.6490   -4.0690 C.3   139  LEU139      0.0001
     31  CD2      -10.2740  -39.8680   -4.2170 C.3   139  LEU139      0.0001
     32  N         -8.5140  -41.3490   -8.6440 N.am  140  VAL140     -0.1977
     33  CA        -8.8670  -42.7020   -9.0680 C.3   140  VAL140      0.1596
     34  C         -7.6800  -43.4640   -9.6160 C.2   140  VAL140      0.2287
     35  O         -7.7550  -44.6920   -9.7240 O.2   140  VAL140     -0.2864
     36  CB       -10.0720  -42.7460  -10.0110 C.3   140  VAL140      0.0276
     37  CG1      -11.2920  -42.0470   -9.3580 C.3   140  VAL140      0.0022
     38  CG2       -9.7340  -42.1620  -11.3780 C.3   140  VAL140      0.0022
     39  N        -11.6790  -46.7720  -10.0170 N.3   145  GLN145     -0.1231
     40  CA       -13.0120  -46.2590  -10.2990 C.3   145  GLN145      0.1698
     41  C        -13.7090  -47.2990  -11.1580 C.2   145  GLN145      0.2592
     42  O        -13.0670  -48.0000  -11.9400 O.2   145  GLN145     -0.2718
     43  CB       -12.9380  -44.9340  -11.0810 C.3   145  GLN145      0.0381
     44  CG       -14.2520  -44.1340  -11.2150 C.3   145  GLN145      0.0905
     45  CD       -14.0590  -42.8620  -12.0110 C.2   145  GLN145      0.2608
     46  OE1      -13.3830  -42.8530  -13.0420 O.2   145  GLN145     -0.2717
     47  NE2      -14.6230  -41.7580  -11.5130 N.am  145  GLN145     -0.0878
     48  N        -15.0260  -47.3820  -11.0250 N.am  146  ALA146     -0.1966
     49  CA       -15.7810  -48.3330  -11.8270 C.3   146  ALA146      0.1728
     50  C        -15.9970  -47.7890  -13.2370 C.2   146  ALA146      0.2616
     51  O        -16.0920  -46.5770  -13.4470 O.2   146  ALA146     -0.2715
     52  CB       -17.1250  -48.6210  -11.1660 C.3   146  ALA146      0.0334
     53  N        -16.0770  -48.7090  -14.2040 N.am  147  GLN147     -0.1963
     54  CA       -16.4030  -48.3950  -15.6050 C.3   147  GLN147      0.1733
     55  C        -15.4770  -47.3290  -16.1890 C.2   147  GLN147      0.2616
     56  O        -15.8980  -46.4350  -16.9190 O.2   147  GLN147     -0.2715
     57  CB       -17.8870  -48.0480  -15.7820 C.3   147  GLN147      0.0408
     58  CG       -18.7700  -49.2220  -15.3620 C.3   147  GLN147      0.0908
     59  CD       -20.2250  -49.0800  -15.7110 C.2   147  GLN147      0.2608
     60  OE1      -20.6710  -48.0420  -16.1650 O.2   147  GLN147     -0.2717
     61  NE2      -20.9790  -50.1470  -15.4940 N.am  147  GLN147     -0.0878
     62  N        -14.1740  -47.4980  -15.9300 N.am  148  ALA148     -0.1977
     63  CA       -13.1720  -46.5230  -16.3520 C.3   148  ALA148      0.1597
     64  C        -11.7690  -47.1120  -16.4500 C.2   148  ALA148      0.2287
     65  O        -10.7940  -46.4560  -16.0810 O.2   148  ALA148     -0.2864
     66  CB       -13.1570  -45.3270  -15.3910 C.3   148  ALA148      0.0319
     67  N         -9.2040  -44.7730  -18.3670 N.3   151  TYR151     -0.1241
     68  CA        -8.9390  -43.5330  -17.6490 C.3   151  TYR151      0.1605
     69  C         -8.0850  -43.7890  -16.4230 C.2   151  TYR151      0.2264
     70  O         -7.0850  -43.0910  -16.1920 O.2   151  TYR151     -0.2867
     71  CB       -10.2430  -42.8750  -17.2200 C.3   151  TYR151      0.0534
     72  CG       -10.0650  -41.5730  -16.4750 C.ar  151  TYR151     -0.0201
     73  CD1       -9.8360  -40.3860  -17.1710 C.ar  151  TYR151     -0.0009
     74  CD2      -10.1410  -41.5170  -15.0840 C.ar  151  TYR151     -0.0009
     75  CE1       -9.6970  -39.1800  -16.5060 C.ar  151  TYR151      0.0417
     76  CE2       -9.9980  -40.2970  -14.4160 C.ar  151  TYR151      0.0417
     77  CZ        -9.7780  -39.1510  -15.1340 C.ar  151  TYR151      0.1957
     78  OH        -9.6910  -37.9570  -14.4500 O.3   151  TYR151     -0.2866
     79  N         -6.9590  -34.5980   -7.8380 N.3   181  PRO181     -0.2102
     80  CA        -8.2810  -34.1540   -7.4120 C.3   181  PRO181      0.1504
     81  C         -9.2190  -35.3430   -7.3550 C.2   181  PRO181      0.2576
     82  O         -8.9980  -36.3820   -7.9820 O.2   181  PRO181     -0.2718
     83  CB        -8.7070  -33.1730   -8.5220 C.3   181  PRO181      0.0282
     84  CG        -7.4590  -32.9080   -9.3470 C.3   181  PRO181      0.0208
     85  CD        -6.6730  -34.1900   -9.2140 C.3   181  PRO181      0.0893
     86  N        -10.2350  -35.1840   -6.5230 N.am  182  GLY182     -0.1943
     87  CA       -11.4330  -36.0050   -6.5610 C.3   182  GLY182      0.2014
     88  C        -12.5020  -35.2970   -7.3560 C.2   182  GLY182      0.2638
     89  O        -12.2150  -34.6280   -8.3560 O.2   182  GLY182     -0.2714
     90  N        -13.7320  -35.4160   -6.9010 N.am  183  ASN183     -0.1972
     91  CA       -14.8590  -34.8000   -7.5930 C.3   183  ASN183      0.1688
     92  C        -14.7430  -33.2830   -7.5240 C.2   183  ASN183      0.2292
     93  O        -14.9330  -32.6890   -6.4590 O.2   183  ASN183     -0.2864
     94  CB       -16.1520  -35.2630   -6.9380 C.3   183  ASN183      0.1181
     95  CG       -16.4890  -36.6880   -7.2970 C.2   183  ASN183      0.2629
     96  OD1      -16.4290  -37.0850   -8.4600 O.2   183  ASN183     -0.2716
     97  ND2      -16.7940  -37.4870   -6.2800 N.am  183  ASN183     -0.0877
     98  N        -16.9580  -29.1540  -12.6030 N.3   186  THR186     -0.1218
     99  CA       -16.3990  -28.5670  -13.8190 C.3   186  THR186      0.1862
    100  C        -17.3390  -28.8730  -14.9730 C.2   186  THR186      0.2287
    101  O        -18.2450  -29.7080  -14.8420 O.2   186  THR186     -0.2866
    102  CB       -15.0490  -29.1970  -14.1750 C.3   186  THR186      0.1770
    103  OG1      -15.2660  -30.5790  -14.4540 O.3   186  THR186     -0.2211
    104  CG2      -14.0380  -29.0420  -13.0540 C.3   186  THR186      0.0375
    105  N        -16.6940  -30.7540  -17.5250 N.3   188  LEU188     -0.1231
    106  CA       -16.6320  -32.1960  -17.7650 C.3   188  LEU188      0.1693
    107  C        -17.5520  -32.9550  -16.8150 C.2   188  LEU188      0.2592
    108  O        -18.2590  -33.8840  -17.2310 O.2   188  LEU188     -0.2718
    109  CB       -15.1980  -32.6670  -17.5810 C.3   188  LEU188      0.0284
    110  CG       -14.9540  -34.1760  -17.6700 C.3   188  LEU188      0.0019
    111  CD1      -15.3580  -34.6840  -19.0460 C.3   188  LEU188      0.0001
    112  CD2      -13.4930  -34.4770  -17.3800 C.3   188  LEU188      0.0001
    113  N        -17.5160  -32.6210  -15.5200 N.am  189  TRP189     -0.1976
    114  CA       -18.4260  -33.2770  -14.5810 C.3   189  TRP189      0.1640
    115  C        -19.8720  -33.0860  -15.0240 C.2   189  TRP189      0.2290
    116  O        -20.6680  -34.0350  -15.0200 O.2   189  TRP189     -0.2864
    117  CB       -18.2200  -32.7640  -13.1450 C.3   189  TRP189      0.0576
    118  CG       -18.2220  -33.8470  -12.1000 C.ar  189  TRP189      0.0006
    119  CD1      -17.1430  -34.2850  -11.3830 C.ar  189  TRP189      0.0946
    120  CD2      -19.3400  -34.6480  -11.6590 C.ar  189  TRP189      0.0152
    121  NE1      -17.5110  -35.2990  -10.5310 N.ar  189  TRP189     -0.2442
    122  CE2      -18.8520  -35.5380  -10.6760 C.ar  189  TRP189      0.0810
    123  CE3      -20.6990  -34.6980  -11.9930 C.ar  189  TRP189      0.0012
    124  CZ2      -19.6670  -36.4710  -10.0370 C.ar  189  TRP189      0.0191
    125  CZ3      -21.5210  -35.6340  -11.3460 C.ar  189  TRP189      0.0001
    126  CH2      -20.9990  -36.5020  -10.3750 C.ar  189  TRP189      0.0015
    127  N        -20.6290  -35.3050  -18.1760 N.3   192  LEU192     -0.1231
    128  CA       -20.7970  -36.7230  -17.8780 C.3   192  LEU192      0.1693
    129  C        -22.1120  -36.9780  -17.1580 C.2   192  LEU192      0.2591
    130  O        -22.8110  -37.9590  -17.4500 O.2   192  LEU192     -0.2718
    131  CB       -19.6280  -37.2160  -17.0290 C.3   192  LEU192      0.0284
    132  CG       -18.3310  -37.4210  -17.8050 C.3   192  LEU192      0.0019
    133  CD1      -17.1890  -37.6210  -16.8210 C.3   192  LEU192      0.0001
    134  CD2      -18.4210  -38.5950  -18.7560 C.3   192  LEU192      0.0001
    135  N        -22.4670  -36.1170  -16.2060 N.am  193  ALA193     -0.1980
    136  CA       -23.7320  -36.3160  -15.5020 C.3   193  ALA193      0.1597
    137  C        -24.9220  -36.2200  -16.4480 C.2   193  ALA193      0.2287
    138  O        -25.9190  -36.9360  -16.2720 O.2   193  ALA193     -0.2864
    139  CB       -23.8650  -35.3130  -14.3560 C.3   193  ALA193      0.0319
    140  N        -26.3380  -39.4070  -17.9680 N.3   196  MET196     -0.1245
    141  CA       -26.8760  -40.4300  -17.0930 C.3   196  MET196      0.1570
    142  C        -28.3940  -40.3990  -17.1070 C.2   196  MET196      0.2261
    143  O        -29.0060  -39.3800  -17.4420 O.2   196  MET196     -0.2867
    144  CB       -26.3790  -40.1980  -15.6710 C.3   196  MET196      0.0387
    145  CG       -24.8760  -40.2930  -15.5480 C.3   196  MET196      0.0595
    146  SD       -24.2570  -41.9110  -16.0350 S.3   196  MET196     -0.1393
    147  CE       -24.9760  -42.9340  -14.7580 C.3   196  MET196      0.0692
    148  N        -27.1480  -38.3890  -10.0880 N.3   202  THR202     -0.1218
    149  CA       -25.7120  -38.5810  -10.2660 C.3   202  THR202      0.1862
    150  C        -24.9270  -37.4790   -9.5700 C.2   202  THR202      0.2287
    151  O        -23.9240  -37.7500   -8.9020 O.2   202  THR202     -0.2866
    152  CB       -25.3870  -38.6330  -11.7600 C.3   202  THR202      0.1770
    153  OG1      -26.0860  -39.7390  -12.3550 O.3   202  THR202     -0.2211
    154  CG2      -23.9010  -38.7980  -11.9860 C.3   202  THR202      0.0375
@<TRIPOS>BOND
     1    14    13    2
     2     4     3    2
     3     3     2    1
     4     1     2    1
     5    13    12    1
     6   111   110    1
     7     2     5    1
     8    11    12    1
     9    11    17    1
    10   134   132    1
    11    67    68    1
    12    12    15    1
    13    17    16    1
    14   127   128    1
    15   140   141    1
    16   128   129    1
    17   128   131    1
    18   132   131    1
    19   132   133    1
    20   106   109    1
    21   106   105    1
    22   106   107    1
    23   110   109    1
    24   110   112    1
    25    68    71    1
    26    68    69    1
    27   130   129    2
    28   143   142    2
    29     5     6    1
    30    15    16    1
    31   108   107    2
    32    71    72    1
    33     7     6   ar
    34     7     9   ar
    35    73    75   ar
    36    73    72   ar
    37   129   135   am
    38   142   141    1
    39   141   144    1
    40    56    55    2
    41   107   113   am
    42     6     8   ar
    43    75    77   ar
    44    72    74   ar
    45    64    63    1
    46    64    65    2
    47   137   138    2
    48   137   136    1
    49    69    70    2
    50    63    62    1
    51    63    66    1
    52     9    10   ar
    53   135   136    1
    54    55    62   am
    55    55    54    1
    56    60    59    2
    57   146   145    1
    58   146   147    1
    59    57    54    1
    60    57    58    1
    61    59    61   am
    62    59    58    1
    63   144   145    1
    64    54    53    1
    65   113   114    1
    66   136   139    1
    67     8    10   ar
    68    77    78    1
    69    77    76   ar
    70    74    76   ar
    71   115   116    2
    72   115   114    1
    73   100   101    2
    74   100    99    1
    75   114   117    1
    76   103   102    1
    77    53    50   am
    78   102    99    1
    79   102   104    1
    80    99    98    1
    81    51    50    2
    82    50    49    1
    83   117   118    1
    84    46    45    2
    85   153   152    1
    86   118   120   ar
    87   118   119   ar
    88    45    47   am
    89    45    44    1
    90   123   120   ar
    91   123   125   ar
    92   154   152    1
    93    42    41    2
    94    49    52    1
    95    49    48    1
    96   152   149    1
    97   120   122   ar
    98   119   121   ar
    99    38    36    1
   100   125   126   ar
   101    22    23    1
   102    22    19    1
   103    44    43    1
   104    41    48   am
   105    41    40    1
   106    43    40    1
   107    18    19    1
   108   122   121   ar
   109   122   124   ar
   110   126   124   ar
   111    40    39    1
   112   149   148    1
   113   149   150    1
   114    19    20    1
   115    36    37    1
   116    36    33    1
   117    35    34    2
   118    34    33    1
   119   150   151    2
   120    84    85    1
   121    84    83    1
   122    85    79    1
   123    33    32    1
   124    21    20    2
   125    20    24   am
   126    32    26   am
   127    83    80    1
   128    96    95    2
   129    89    88    2
   130    24    25    1
   131    82    81    2
   132    79    80    1
   133    91    92    1
   134    91    94    1
   135    91    90    1
   136    26    25    1
   137    26    27    2
   138    92    93    2
   139    80    81    1
   140    88    90   am
   141    88    87    1
   142    81    86   am
   143    95    94    1
   144    95    97   am
   145    25    28    1
   146    87    86    1
   147    28    29    1
   148    29    31    1
   149    29    30    1
