@<TRIPOS>MOLECULE
tmp/5o47A03.pdb
 168 163 0 0 0
SMALL
GASTEIGER

@<TRIPOS>ATOM
      1  N          7.2510  -19.6200   58.9550 N.3    38  ASN38      -0.1225
      2  CA         6.6060  -20.5680   59.8670 C.3    38  ASN38       0.1785
      3  C          5.3580  -21.2310   59.2480 C.2    38  ASN38       0.2597
      4  O          5.4890  -21.8910   58.2140 O.2    38  ASN38      -0.2718
      5  CB         6.4470  -20.0200   61.3170 C.3    38  ASN38       0.1169
      6  CG         5.6990  -18.6930   61.4120 C.2    38  ASN38       0.2627
      7  OD1        6.1400  -17.6710   60.8890 O.2    38  ASN38      -0.2716
      8  ND2        4.5920  -18.6940   62.1540 N.am   38  ASN38      -0.0877
      9  N          4.1820  -21.0690   59.8550 N.am   39  ALA39      -0.1979
     10  CA         2.9970  -21.8720   59.5500 C.3    39  ALA39       0.1597
     11  C          2.5640  -21.8240   58.0900 C.2    39  ALA39       0.2287
     12  O          2.5540  -20.7490   57.4920 O.2    39  ALA39      -0.2864
     13  CB         1.8330  -21.4120   60.4130 C.3    39  ALA39       0.0319
     14  N          3.4790  -18.2180   56.4780 N.3    56  GLN56      -0.1245
     15  CA         3.9120  -17.0960   57.3010 C.3    56  GLN56       0.1566
     16  C          5.3750  -16.8190   56.9690 C.2    56  GLN56       0.2260
     17  O          6.1990  -17.7300   57.0190 O.2    56  GLN56      -0.2867
     18  CB         3.7350  -17.4250   58.7830 C.3    56  GLN56       0.0367
     19  CG         2.2780  -17.5640   59.2050 C.3    56  GLN56       0.0905
     20  CD         1.6040  -16.2250   59.4240 C.2    56  GLN56       0.2608
     21  OE1        1.7620  -15.6140   60.4730 O.2    56  GLN56      -0.2717
     22  NE2        0.8510  -15.7630   58.4320 N.am   56  GLN56      -0.0878
     23  N         10.9780  -14.0000   63.4340 N.3    64  TRP64      -0.1241
     24  CA         9.5960  -13.6520   63.1050 C.3    64  TRP64       0.1605
     25  C          9.3610  -12.1420   63.1770 C.2    64  TRP64       0.2264
     26  O          9.9850  -11.4450   63.9790 O.2    64  TRP64      -0.2867
     27  CB         8.6960  -14.3810   64.1060 C.3    64  TRP64       0.0550
     28  CG         7.2220  -14.2240   63.9810 C.ar   64  TRP64       0.0003
     29  CD1        6.3590  -15.0640   63.3370 C.ar   64  TRP64       0.0946
     30  CD2        6.4160  -13.2160   64.5970 C.ar   64  TRP64       0.0152
     31  NE1        5.0670  -14.6240   63.4870 N.ar   64  TRP64      -0.2442
     32  CE2        5.0740  -13.4890   64.2550 C.ar   64  TRP64       0.0810
     33  CE3        6.6990  -12.0950   65.3910 C.ar   64  TRP64       0.0012
     34  CZ2        4.0160  -12.6820   64.6770 C.ar   64  TRP64       0.0191
     35  CZ3        5.6420  -11.2910   65.8140 C.ar   64  TRP64       0.0001
     36  CH2        4.3180  -11.5890   65.4530 C.ar   64  TRP64       0.0015
     37  N          0.2680   -5.1450   62.6360 N.3   101  ARG101     -0.1245
     38  CA         1.1380   -5.9150   63.5180 C.3   101  ARG101      0.1563
     39  C          1.4450   -7.3180   62.9760 C.2   101  ARG101      0.2260
     40  O          2.3500   -7.9890   63.4720 O.2   101  ARG101     -0.2867
     41  CB         0.5130   -5.9880   64.9130 C.3   101  ARG101      0.0307
     42  CG         1.4480   -6.4690   66.0090 C.3   101  ARG101      0.0489
     43  CD         1.1060   -7.8610   66.5150 C.3   101  ARG101      0.2205
     44  NE         1.7990   -8.1120   67.7760 N.pl3 101  ARG101     -0.0865
     45  CZ         1.4310   -7.6340   68.9690 C.cat 101  ARG101      0.5346
     46  NH1        0.3460   -6.8680   69.1130 N.pl3 101  ARG101      0.1354
     47  NH2        2.1640   -7.9260   70.0400 N.pl3 101  ARG101      0.1354
     48  N         -1.5590  -12.8440   60.1850 N.3   104  PHE104     -0.1227
     49  CA        -1.4190  -14.1740   60.7800 C.3   104  PHE104      0.1736
     50  C         -2.0930  -15.2280   59.8840 C.2   104  PHE104      0.2595
     51  O         -2.5570  -14.9180   58.7790 O.2   104  PHE104     -0.2718
     52  CB        -2.0150  -14.1780   62.2060 C.3   104  PHE104      0.0547
     53  CG        -1.1090  -13.6160   63.2790 C.ar  104  PHE104     -0.0202
     54  CD1       -0.1960  -12.5890   63.0210 C.ar  104  PHE104     -0.0042
     55  CD2       -1.2130  -14.0930   64.5860 C.ar  104  PHE104     -0.0042
     56  CE1        0.6040  -12.0800   64.0340 C.ar  104  PHE104     -0.0003
     57  CE2       -0.4140  -13.5850   65.6010 C.ar  104  PHE104     -0.0003
     58  CZ         0.4970  -12.5790   65.3240 C.ar  104  PHE104     -0.0000
     59  N         -2.1250  -16.4720   60.3630 N.am  105  ASP105     -0.1974
     60  CA        -2.7320  -17.6070   59.6560 C.3   105  ASP105      0.1709
     61  C         -4.1680  -17.3270   59.1900 C.2   105  ASP105      0.2293
     62  O         -4.9190  -16.5760   59.8220 O.2   105  ASP105     -0.2864
     63  CB        -2.6970  -18.8400   60.5790 C.3   105  ASP105      0.1436
     64  CG        -3.0880  -20.1430   59.8880 C.2   105  ASP105      0.3671
     65  OD1       -3.0540  -20.2450   58.6420 O.co2 105  ASP105     -0.2456
     66  OD2       -3.4110  -21.0950   60.6330 O.co2 105  ASP105     -0.2456
     67  N          0.0090   -9.4200   73.0760 N.3   129  LEU129     -0.1231
     68  CA        -0.5520  -10.5240   72.3120 C.3   129  LEU129      0.1693
     69  C          0.1190  -11.8010   72.7770 C.2   129  LEU129      0.2593
     70  O          1.3230  -11.9850   72.5810 O.2   129  LEU129     -0.2718
     71  CB        -0.3260  -10.3060   70.8110 C.3   129  LEU129      0.0284
     72  CG        -1.1900  -11.1230   69.8390 C.3   129  LEU129      0.0019
     73  CD1       -1.0610  -10.5650   68.4320 C.3   129  LEU129      0.0001
     74  CD2       -0.8410  -12.6040   69.8380 C.3   129  LEU129      0.0001
     75  N         -0.6620  -12.6800   73.3970 N.am  130  GLY130     -0.1942
     76  CA        -0.1480  -13.9650   73.8430 C.3   130  GLY130      0.2014
     77  C         -0.9590  -14.5750   74.9610 C.2   130  GLY130      0.2638
     78  O         -1.5880  -13.8670   75.7540 O.2   130  GLY130     -0.2714
     79  N         -0.9110  -15.9030   75.0260 N.am  131  ALA131     -0.1977
     80  CA        -1.6410  -16.6830   76.0220 C.3   131  ALA131      0.1597
     81  C         -1.1750  -16.4640   77.4620 C.2   131  ALA131      0.2287
     82  O         -1.9520  -16.6920   78.3900 O.2   131  ALA131     -0.2864
     83  CB        -1.5760  -18.1620   75.6720 C.3   131  ALA131      0.0319
     84  N         -7.4380  -16.5340   67.2110 N.3   179  ARG179     -0.1231
     85  CA        -6.7910  -16.5240   65.9010 C.3   179  ARG179      0.1694
     86  C         -6.9220  -17.8170   65.1130 C.2   179  ARG179      0.2592
     87  O         -7.4660  -18.8150   65.6000 O.2   179  ARG179     -0.2718
     88  CB        -5.3070  -16.1570   66.0530 C.3   179  ARG179      0.0321
     89  CG        -4.4950  -17.0610   66.9690 C.3   179  ARG179      0.0489
     90  CD        -3.0110  -16.7490   66.8500 C.3   179  ARG179      0.2205
     91  NE        -2.2280  -17.3780   67.9150 N.pl3 179  ARG179     -0.0865
     92  CZ        -2.1430  -16.9420   69.1750 C.cat 179  ARG179      0.5346
     93  NH1       -2.7990  -15.8570   69.5740 N.pl3 179  ARG179      0.1354
     94  NH2       -1.3970  -17.6070   70.0530 N.pl3 179  ARG179      0.1354
     95  N         -6.4290  -17.7520   63.8760 N.am  180  ASP180     -0.1974
     96  CA        -6.2710  -18.8980   62.9790 C.3   180  ASP180      0.1709
     97  C         -7.6260  -19.4360   62.5270 C.2   180  ASP180      0.2293
     98  O         -7.9470  -20.6080   62.7640 O.2   180  ASP180     -0.2864
     99  CB        -5.3950  -19.9900   63.6140 C.3   180  ASP180      0.1436
    100  CG        -4.0830  -19.4460   64.1590 C.2   180  ASP180      0.3671
    101  OD1       -3.6770  -18.3350   63.7590 O.co2 180  ASP180     -0.2456
    102  OD2       -3.4690  -20.1330   65.0020 O.co2 180  ASP180     -0.2456
    103  N         -3.8460  -23.2970   68.8820 N.3   262  GLU262     -0.1231
    104  CA        -3.4410  -22.5730   67.6800 C.3   262  GLU262      0.1699
    105  C         -3.6450  -23.4660   66.4580 C.2   262  GLU262      0.2592
    106  O         -3.6040  -24.6960   66.5610 O.2   262  GLU262     -0.2718
    107  CB        -1.9750  -22.1530   67.7690 C.3   262  GLU262      0.0402
    108  CG        -1.6640  -21.2260   68.9360 C.3   262  GLU262      0.1161
    109  CD        -0.1830  -20.9380   69.0960 C.2   262  GLU262      0.3649
    110  OE1        0.6220  -21.8890   69.1110 O.co2 262  GLU262     -0.2457
    111  OE2        0.1790  -19.7510   69.2350 O.co2 262  GLU262     -0.2457
    112  N         -3.8790  -22.8200   65.3160 N.am  263  THR263     -0.1953
    113  CA        -3.9970  -23.4560   63.9920 C.3   263  THR263      0.1897
    114  C         -4.9050  -24.6890   63.9580 C.2   263  THR263      0.2313
    115  O         -4.5730  -25.6910   63.3180 O.2   263  THR263     -0.2863
    116  CB        -2.6080  -23.8170   63.3940 C.3   263  THR263      0.1794
    117  OG1       -2.0350  -24.9230   64.1020 O.3   263  THR263     -0.2208
    118  CG2       -1.6540  -22.6320   63.4480 C.3   263  THR263      0.0378
    119  N         -0.3050  -24.9740   73.2640 N.3   293  GLU293     -0.1245
    120  CA         0.8710  -24.3350   73.8290 C.3   293  GLU293      0.1567
    121  C          0.9050  -24.3560   75.3510 C.2   293  GLU293      0.2260
    122  O         -0.1300  -24.3990   76.0220 O.2   293  GLU293     -0.2867
    123  CB         1.0410  -22.9080   73.3050 C.3   293  GLU293      0.0388
    124  CG        -0.0930  -21.9480   73.6060 C.3   293  GLU293      0.1160
    125  CD         0.2580  -20.5080   73.2680 C.2   293  GLU293      0.3649
    126  OE1        1.3820  -20.0630   73.5970 O.co2 293  GLU293     -0.2457
    127  OE2       -0.5970  -19.8100   72.6850 O.co2 293  GLU293     -0.2457
    128  N          5.2350  -26.7260   72.4990 N.3   302  HIS302     -0.1241
    129  CA         4.1760  -26.9360   71.5040 C.3   302  HIS302      0.1621
    130  C          3.9370  -28.4040   71.1530 C.2   302  HIS302      0.2264
    131  O          4.8820  -29.1330   70.8560 O.2   302  HIS302     -0.2867
    132  CB         4.5130  -26.1920   70.2120 C.3   302  HIS302      0.0745
    133  CG         4.2590  -24.7210   70.2720 C.ar  302  HIS302      0.0817
    134  ND1        4.9580  -23.8200   69.5000 N.ar  302  HIS302     -0.2268
    135  CD2        3.3910  -23.9920   71.0100 C.ar  302  HIS302      0.1154
    136  CE1        4.5290  -22.5980   69.7580 C.ar  302  HIS302      0.1986
    137  NE2        3.5780  -22.6740   70.6730 N.ar  302  HIS302     -0.2212
    138  N          4.9970  -28.2630   63.8660 N.3   335  TYR335     -0.1227
    139  CA         3.8440  -27.5860   64.4400 C.3   335  TYR335      0.1736
    140  C          3.0490  -26.9300   63.3200 C.2   335  TYR335      0.2595
    141  O          3.5070  -26.8880   62.1720 O.2   335  TYR335     -0.2718
    142  CB         4.3220  -26.5150   65.4300 C.3   335  TYR335      0.0548
    143  CG         3.2620  -25.9810   66.3680 C.ar  335  TYR335     -0.0200
    144  CD1        2.5960  -26.8260   67.2580 C.ar  335  TYR335     -0.0009
    145  CD2        2.9320  -24.6240   66.3770 C.ar  335  TYR335     -0.0009
    146  CE1        1.6340  -26.3330   68.1290 C.ar  335  TYR335      0.0417
    147  CE2        1.9710  -24.1250   67.2420 C.ar  335  TYR335      0.0417
    148  CZ         1.3240  -24.9820   68.1180 C.ar  335  TYR335      0.1957
    149  OH         0.3670  -24.5050   68.9840 O.3   335  TYR335     -0.2866
    150  N          1.8570  -26.4430   63.6580 N.am  336  ALA336     -0.1980
    151  CA         1.0520  -25.5980   62.7750 C.3   336  ALA336      0.1597
    152  C          0.5830  -26.3530   61.5370 C.2   336  ALA336      0.2287
    153  O          0.7080  -25.8720   60.4110 O.2   336  ALA336     -0.2864
    154  CB         1.7980  -24.3150   62.4080 C.3   336  ALA336      0.0319
    155  N          4.8270  -27.2560   59.6000 N.3   352  TRP352     -0.1241
    156  CA         6.0700  -26.4970   59.5860 C.3   352  TRP352      0.1605
    157  C          7.0840  -27.1940   60.4740 C.2   352  TRP352      0.2264
    158  O          6.7820  -27.4920   61.6260 O.2   352  TRP352     -0.2867
    159  CB         5.7850  -25.0840   60.0870 C.3   352  TRP352      0.0550
    160  CG         6.9350  -24.2980   60.6390 C.ar  352  TRP352      0.0003
    161  CD1        8.0930  -23.9540   60.0050 C.ar  352  TRP352      0.0946
    162  CD2        6.9920  -23.7000   61.9290 C.ar  352  TRP352      0.0152
    163  NE1        8.8790  -23.1900   60.8360 N.ar  352  TRP352     -0.2442
    164  CE2        8.2240  -23.0180   62.0250 C.ar  352  TRP352      0.0810
    165  CE3        6.1210  -23.6810   63.0210 C.ar  352  TRP352      0.0012
    166  CZ2        8.6030  -22.3200   63.1720 C.ar  352  TRP352      0.0191
    167  CZ3        6.4890  -22.9900   64.1460 C.ar  352  TRP352      0.0001
    168  CH2        7.7250  -22.3220   64.2220 C.ar  352  TRP352      0.0015
@<TRIPOS>BOND
     1    14    15    1
     2    16    17    2
     3    16    15    1
     4    15    18    1
     5    12    11    2
     6    11    10    1
     7     4     3    2
     8    22    20   am
     9    65    64   ar
    10    51    50    2
    11    18    19    1
    12     1     2    1
    13    61    60    1
    14    61    62    2
    15    19    20    1
    16     3     9   am
    17     3     2    1
    18    20    21    2
    19    10     9    1
    20    10    13    1
    21   156   155    1
    22   156   159    1
    23   156   157    1
    24    60    59    1
    25    60    63    1
    26     2     5    1
    27    50    59   am
    28    50    49    1
    29    64    63    1
    30    64    66   ar
    31   161   160   ar
    32   161   163   ar
    33   159   160    1
    34    48    49    1
    35   153   152    2
    36   157   158    2
    37   160   162   ar
    38    49    52    1
    39   163   164   ar
    40     7     6    2
    41     5     6    1
    42     6     8   am
    43   152   151    1
    44   162   164   ar
    45   162   165   ar
    46   164   166   ar
    47   141   140    2
    48    52    53    1
    49   154   151    1
    50    97    98    2
    51    97    96    1
    52    37    38    1
    53   151   150    1
    54    39    40    2
    55    39    38    1
    56    96    99    1
    57    96    95    1
    58    54    53   ar
    59    54    56   ar
    60   165   167   ar
    61    24    25    1
    62    24    23    1
    63    24    27    1
    64   166   168   ar
    65    25    26    2
    66    53    55   ar
    67   115   114    2
    68   140   150   am
    69   140   139    1
    70    29    31   ar
    71    29    28   ar
    72   116   118    1
    73   116   113    1
    74   116   117    1
    75    31    32   ar
    76    38    41    1
    77    99   100    1
    78   101   100   ar
    79   138   139    1
    80    95    86   am
    81   114   113    1
    82    28    27    1
    83    28    30   ar
    84   113   112    1
    85    56    58   ar
    86   167   168   ar
    87   100   102   ar
    88    32    30   ar
    89    32    34   ar
    90   139   142    1
    91    55    57   ar
    92    30    33   ar
    93    34    36   ar
    94    41    42    1
    95    86    87    2
    96    86    85    1
    97   112   105   am
    98    58    57   ar
    99    33    35   ar
   100   142   143    1
   101    36    35   ar
   102    85    88    1
   103    85    84    1
   104    42    43    1
   105    88    89    1
   106   143   145   ar
   107   143   144   ar
   108   145   147   ar
   109   105   106    2
   110   105   104    1
   111    43    44    1
   112    90    89    1
   113    90    91    1
   114   147   148   ar
   115   144   146   ar
   116   104   107    1
   117   104   103    1
   118   107   108    1
   119    44    45    2
   120    91    92    2
   121   148   146   ar
   122   148   149    1
   123    73    72    1
   124   108   109    1
   125    45    46    1
   126    45    47    1
   127   109   110   ar
   128   109   111   ar
   129    92    93    1
   130    92    94    1
   131   134   136   ar
   132   134   133   ar
   133   136   137   ar
   134    74    72    1
   135    72    71    1
   136   132   133    1
   137   132   129    1
   138   133   135   ar
   139   137   135   ar
   140    71    68    1
   141   131   130    2
   142   130   129    1
   143   129   128    1
   144    68    69    1
   145    68    67    1
   146    70    69    2
   147   127   125   ar
   148    69    75   am
   149   119   120    1
   150   125   126   ar
   151   125   124    1
   152   123   124    1
   153   123   120    1
   154    75    76    1
   155   120   121    1
   156    76    77    1
   157    77    79   am
   158    77    78    2
   159    79    80    1
   160   121   122    2
   161    83    80    1
   162    80    81    1
   163    81    82    2
