@<TRIPOS>MOLECULE
tmp/5o47A04.pdb
 135 134 0 0 0
SMALL
GASTEIGER

@<TRIPOS>ATOM
      1  N         12.9430  -15.9940   57.1770 N.3    36  TRP36      -0.1241
      2  CA        12.1090  -16.6780   58.1470 C.3    36  TRP36       0.1605
      3  C         10.8130  -17.1660   57.5100 C.2    36  TRP36       0.2264
      4  O         10.1500  -16.4110   56.7940 O.2    36  TRP36      -0.2867
      5  CB        11.7740  -15.7330   59.3030 C.3    36  TRP36       0.0550
      6  CG        10.7670  -16.3100   60.2260 C.ar   36  TRP36       0.0003
      7  CD1        9.4100  -16.2120   60.1220 C.ar   36  TRP36       0.0946
      8  CD2       11.0270  -17.1160   61.3720 C.ar   36  TRP36       0.0152
      9  NE1        8.8090  -16.9030   61.1380 N.ar   36  TRP36      -0.2442
     10  CE2        9.7770  -17.4670   61.9250 C.ar   36  TRP36       0.0810
     11  CE3       12.1950  -17.5700   61.9950 C.ar   36  TRP36       0.0012
     12  CZ2        9.6610  -18.2500   63.0740 C.ar   36  TRP36       0.0191
     13  CZ3       12.0810  -18.3510   63.1350 C.ar   36  TRP36       0.0001
     14  CH2       10.8210  -18.6830   63.6620 C.ar   36  TRP36       0.0015
     15  N         14.3720  -13.9470   62.2320 N.3    63  GLN63      -0.1231
     16  CA        13.3710  -14.0780   63.2800 C.3    63  GLN63       0.1698
     17  C         12.0370  -13.5950   62.7460 C.2    63  GLN63       0.2592
     18  O         11.9790  -12.8950   61.7430 O.2    63  GLN63      -0.2718
     19  CB        13.7600  -13.2750   64.5240 C.3    63  GLN63       0.0381
     20  CG        15.0390  -13.7470   65.1990 C.3    63  GLN63       0.0905
     21  CD        14.8400  -15.0590   65.9320 C.2    63  GLN63       0.2608
     22  OE1       14.5160  -15.0750   67.1210 O.2    63  GLN63      -0.2717
     23  NE2       15.0040  -16.1670   65.2180 N.am   63  GLN63      -0.0878
     24  N         10.9780  -14.0000   63.4340 N.am   64  TRP64      -0.1976
     25  CA         9.5960  -13.6520   63.1050 C.3    64  TRP64       0.1640
     26  C          9.3610  -12.1420   63.1770 C.2    64  TRP64       0.2290
     27  O          9.9850  -11.4450   63.9790 O.2    64  TRP64      -0.2864
     28  CB         8.6960  -14.3810   64.1060 C.3    64  TRP64       0.0576
     29  CG         7.2220  -14.2240   63.9810 C.ar   64  TRP64       0.0006
     30  CD1        6.3590  -15.0640   63.3370 C.ar   64  TRP64       0.0946
     31  CD2        6.4160  -13.2160   64.5970 C.ar   64  TRP64       0.0152
     32  NE1        5.0670  -14.6240   63.4870 N.ar   64  TRP64      -0.2442
     33  CE2        5.0740  -13.4890   64.2550 C.ar   64  TRP64       0.0810
     34  CE3        6.6990  -12.0950   65.3910 C.ar   64  TRP64       0.0012
     35  CZ2        4.0160  -12.6820   64.6770 C.ar   64  TRP64       0.0191
     36  CZ3        5.6420  -11.2910   65.8140 C.ar   64  TRP64       0.0001
     37  CH2        4.3180  -11.5890   65.4530 C.ar   64  TRP64       0.0015
     38  N          9.6150  -26.2490   72.1600 N.3   300  GLN300     -0.1245
     39  CA         9.0880  -24.8920   72.2460 C.3   300  GLN300      0.1566
     40  C          7.7040  -24.8150   72.8530 C.2   300  GLN300      0.2260
     41  O          6.8750  -23.9840   72.4680 O.2   300  GLN300     -0.2867
     42  CB         9.1190  -24.2960   70.8630 C.3   300  GLN300      0.0367
     43  CG        10.5420  -24.1990   70.3710 C.3   300  GLN300      0.0905
     44  CD        11.2350  -22.9140   70.7870 C.2   300  GLN300      0.2608
     45  OE1       10.5970  -21.9510   71.2130 O.2   300  GLN300     -0.2717
     46  NE2       12.5550  -22.9020   70.6870 N.am  300  GLN300     -0.0878
     47  N          5.2350  -26.7260   72.4990 N.3   302  HIS302     -0.1241
     48  CA         4.1760  -26.9360   71.5040 C.3   302  HIS302      0.1621
     49  C          3.9370  -28.4040   71.1530 C.2   302  HIS302      0.2264
     50  O          4.8820  -29.1330   70.8560 O.2   302  HIS302     -0.2867
     51  CB         4.5130  -26.1920   70.2120 C.3   302  HIS302      0.0745
     52  CG         4.2590  -24.7210   70.2720 C.ar  302  HIS302      0.0817
     53  ND1        4.9580  -23.8200   69.5000 N.ar  302  HIS302     -0.2268
     54  CD2        3.3910  -23.9920   71.0100 C.ar  302  HIS302      0.1154
     55  CE1        4.5290  -22.5980   69.7580 C.ar  302  HIS302      0.1986
     56  NE2        3.5780  -22.6740   70.6730 N.ar  302  HIS302     -0.2212
     57  N          4.9970  -28.2630   63.8660 N.3   335  TYR335     -0.1241
     58  CA         3.8440  -27.5860   64.4400 C.3   335  TYR335      0.1605
     59  C          3.0490  -26.9300   63.3200 C.2   335  TYR335      0.2264
     60  O          3.5070  -26.8880   62.1720 O.2   335  TYR335     -0.2867
     61  CB         4.3220  -26.5150   65.4300 C.3   335  TYR335      0.0534
     62  CG         3.2620  -25.9810   66.3680 C.ar  335  TYR335     -0.0201
     63  CD1        2.5960  -26.8260   67.2580 C.ar  335  TYR335     -0.0009
     64  CD2        2.9320  -24.6240   66.3770 C.ar  335  TYR335     -0.0009
     65  CE1        1.6340  -26.3330   68.1290 C.ar  335  TYR335      0.0417
     66  CE2        1.9710  -24.1250   67.2420 C.ar  335  TYR335      0.0417
     67  CZ         1.3240  -24.9820   68.1180 C.ar  335  TYR335      0.1957
     68  OH         0.3670  -24.5050   68.9840 O.3   335  TYR335     -0.2866
     69  N          4.8270  -27.2560   59.6000 N.3   352  TRP352     -0.1241
     70  CA         6.0700  -26.4970   59.5860 C.3   352  TRP352      0.1605
     71  C          7.0840  -27.1940   60.4740 C.2   352  TRP352      0.2264
     72  O          6.7820  -27.4920   61.6260 O.2   352  TRP352     -0.2867
     73  CB         5.7850  -25.0840   60.0870 C.3   352  TRP352      0.0550
     74  CG         6.9350  -24.2980   60.6390 C.ar  352  TRP352      0.0003
     75  CD1        8.0930  -23.9540   60.0050 C.ar  352  TRP352      0.0946
     76  CD2        6.9920  -23.7000   61.9290 C.ar  352  TRP352      0.0152
     77  NE1        8.8790  -23.1900   60.8360 N.ar  352  TRP352     -0.2442
     78  CE2        8.2240  -23.0180   62.0250 C.ar  352  TRP352      0.0810
     79  CE3        6.1210  -23.6810   63.0210 C.ar  352  TRP352      0.0012
     80  CZ2        8.6030  -22.3200   63.1720 C.ar  352  TRP352      0.0191
     81  CZ3        6.4890  -22.9900   64.1460 C.ar  352  TRP352      0.0001
     82  CH2        7.7250  -22.3220   64.2220 C.ar  352  TRP352      0.0015
     83  N         10.4850  -26.5700   62.2840 N.3   354  TYR354     -0.1227
     84  CA        11.3970  -25.5260   62.7400 C.3   354  TYR354      0.1736
     85  C         12.8170  -26.0780   62.8330 C.2   354  TYR354      0.2595
     86  O         13.0310  -27.2940   62.7910 O.2   354  TYR354     -0.2718
     87  CB        10.9330  -24.8700   64.0550 C.3   354  TYR354      0.0548
     88  CG        10.3800  -25.7710   65.1460 C.ar  354  TYR354     -0.0200
     89  CD1        9.0220  -26.0980   65.1940 C.ar  354  TYR354     -0.0009
     90  CD2       11.2030  -26.2560   66.1590 C.ar  354  TYR354     -0.0009
     91  CE1        8.5110  -26.9090   66.2020 C.ar  354  TYR354      0.0417
     92  CE2       10.6990  -27.0530   67.1780 C.ar  354  TYR354      0.0417
     93  CZ         9.3570  -27.3750   67.2000 C.ar  354  TYR354      0.1957
     94  OH         8.8780  -28.1730   68.2140 O.3   354  TYR354     -0.2866
     95  N         13.7850  -25.1720   62.9310 N.am  355  GLU355     -0.1979
     96  CA        15.1950  -25.5490   63.0450 C.3   355  GLU355      0.1602
     97  C         15.4480  -26.0560   64.4690 C.2   355  GLU355      0.2287
     98  O         14.5380  -26.0590   65.3030 O.2   355  GLU355     -0.2864
     99  CB        16.1050  -24.3530   62.7370 C.3   355  GLU355      0.0415
    100  CG        15.8870  -23.6770   61.3820 C.3   355  GLU355      0.1163
    101  CD        16.2520  -24.5280   60.1780 C.2   355  GLU355      0.3649
    102  OE1       17.0410  -25.4870   60.3000 O.co2 355  GLU355     -0.2457
    103  OE2       15.7440  -24.2110   59.0820 O.co2 355  GLU355     -0.2457
    104  N         17.9900  -24.6580   66.5690 N.3   357  ASP357     -0.1225
    105  CA        18.9740  -23.6420   66.9240 C.3   357  ASP357      0.1805
    106  C         18.2380  -22.5930   67.7560 C.2   357  ASP357      0.2597
    107  O         18.1230  -21.4250   67.3750 O.2   357  ASP357     -0.2718
    108  CB        19.5940  -23.0560   65.6460 C.3   357  ASP357      0.1424
    109  CG        20.7320  -22.0770   65.9180 C.2   357  ASP357      0.3668
    110  OD1       21.2630  -22.0220   67.0510 O.co2 357  ASP357     -0.2456
    111  OD2       21.1020  -21.3440   64.9750 O.co2 357  ASP357     -0.2456
    112  N         17.7240  -23.0450   68.8970 N.am  358  ASP358     -0.1974
    113  CA        16.8400  -22.2360   69.7510 C.3   358  ASP358      0.1709
    114  C         17.4890  -20.9660   70.3020 C.2   358  ASP358      0.2293
    115  O         16.7870  -19.9900   70.5730 O.2   358  ASP358     -0.2864
    116  CB        16.2970  -23.0670   70.9260 C.3   358  ASP358      0.1436
    117  CG        15.3290  -24.1600   70.4930 C.2   358  ASP358      0.3671
    118  OD1       14.8410  -24.1390   69.3440 O.co2 358  ASP358     -0.2456
    119  OD2       15.0290  -25.0390   71.3290 O.co2 358  ASP358     -0.2456
    120  N         19.6100  -19.1540   68.5550 N.3   360  VAL360     -0.1245
    121  CA        19.8160  -18.2480   67.4130 C.3   360  VAL360      0.1561
    122  C         21.3140  -18.0020   67.1760 C.2   360  VAL360      0.2260
    123  O         21.7550  -16.8750   66.9240 O.2   360  VAL360     -0.2867
    124  CB        19.0430  -16.9070   67.5770 C.3   360  VAL360      0.0252
    125  CG1       18.8350  -16.2400   66.2210 C.3   360  VAL360      0.0019
    126  CG2       17.6860  -17.1140   68.2480 C.3   360  VAL360      0.0019
    127  N         15.3330  -19.6120   58.0710 N.3   369  GLN369     -0.1245
    128  CA        14.8640  -20.5220   59.1180 C.3   369  GLN369      0.1566
    129  C         13.5470  -21.1490   58.6780 C.2   369  GLN369      0.2260
    130  O         12.6350  -20.4350   58.2570 O.2   369  GLN369     -0.2867
    131  CB        14.6170  -19.7830   60.4370 C.3   369  GLN369      0.0367
    132  CG        15.8410  -19.1620   61.0980 C.3   369  GLN369      0.0905
    133  CD        16.7230  -20.1830   61.7930 C.2   369  GLN369      0.2608
    134  OE1       16.4040  -20.6500   62.8880 O.2   369  GLN369     -0.2717
    135  NE2       17.8400  -20.5310   61.1620 N.am  369  GLN369     -0.0878
@<TRIPOS>BOND
     1     4     3    2
     2     1     2    1
     3     3     2    1
     4   127   128    1
     5     2     5    1
     6   130   129    2
     7   129   128    1
     8   103   101   ar
     9   128   131    1
    10     5     6    1
    11    70    69    1
    12    70    73    1
    13    70    71    1
    14    75    74   ar
    15    75    77   ar
    16    73    74    1
    17     7     6   ar
    18     7     9   ar
    19   101   102   ar
    20   101   100    1
    21     6     8   ar
    22   131   132    1
    23    71    72    2
    24    74    76   ar
    25    77    78   ar
    26   132   133    1
    27     9    10   ar
    28   135   133   am
    29     8    10   ar
    30     8    11   ar
    31   100    99    1
    32    18    17    2
    33   133   134    2
    34    10    12   ar
    35    76    78   ar
    36    76    79   ar
    37    11    13   ar
    38    78    80   ar
    39    60    59    2
    40    15    16    1
    41    83    84    1
    42    99    96    1
    43    84    85    1
    44    84    87    1
    45    17    16    1
    46    17    24   am
    47    86    85    2
    48    85    95   am
    49    95    96    1
    50    79    81   ar
    51    96    97    1
    52    12    14   ar
    53    25    26    1
    54    25    24    1
    55    25    28    1
    56    13    14   ar
    57    80    82   ar
    58    26    27    2
    59    16    19    1
    60    59    58    1
    61    30    32   ar
    62    30    29   ar
    63    32    33   ar
    64    57    58    1
    65    29    28    1
    66    29    31   ar
    67    87    88    1
    68    81    82   ar
    69    33    31   ar
    70    33    35   ar
    71    58    61    1
    72    97    98    2
    73    19    20    1
    74    31    34   ar
    75    35    37   ar
    76   111   109   ar
    77    88    89   ar
    78    88    90   ar
    79    89    91   ar
    80    20    21    1
    81    23    21   am
    82    34    36   ar
    83    61    62    1
    84    37    36   ar
    85   108   109    1
    86   108   105    1
    87   109   110   ar
    88    21    22    2
    89    90    92   ar
    90    91    93   ar
    91   125   124    1
    92    62    64   ar
    93    62    63   ar
    94    64    66   ar
    95   104   105    1
    96   105   106    1
    97   123   122    2
    98   122   121    1
    99    92    93   ar
   100    93    94    1
   101    66    67   ar
   102    63    65   ar
   103   107   106    2
   104   121   124    1
   105   121   120    1
   106   124   126    1
   107   106   112   am
   108    67    65   ar
   109    67    68    1
   110   112   113    1
   111   118   117   ar
   112    53    55   ar
   113    53    52   ar
   114   113   114    1
   115   113   116    1
   116    55    56   ar
   117    51    52    1
   118    51    48    1
   119    52    54   ar
   120   114   115    2
   121    43    44    1
   122    43    42    1
   123   117   116    1
   124   117   119   ar
   125    56    54   ar
   126    46    44   am
   127    44    45    2
   128    50    49    2
   129    42    39    1
   130    49    48    1
   131    48    47    1
   132    38    39    1
   133    39    40    1
   134    41    40    2
