@<TRIPOS>MOLECULE
tmp/5o49A00.pdb
 180 168 0 0 0
SMALL
GASTEIGER

@<TRIPOS>ATOM
      1  N         89.0530    7.6250    5.4510 N.3    21  LEU21      -0.1231
      2  CA        87.8590    6.8320    5.6820 C.3    21  LEU21       0.1693
      3  C         86.7960    7.7120    6.3650 C.2    21  LEU21       0.2593
      4  O         85.6540    7.3110    6.4930 O.2    21  LEU21      -0.2718
      5  CB        88.1760    5.5770    6.5120 C.3    21  LEU21       0.0284
      6  CG        89.1130    4.5580    5.8290 C.3    21  LEU21       0.0019
      7  CD1       89.5690    3.4430    6.7640 C.3    21  LEU21       0.0001
      8  CD2       88.4770    3.9140    4.6050 C.3    21  LEU21       0.0001
      9  N         87.1770    8.9090    6.7810 N.am   22  GLY22      -0.1942
     10  CA        86.2560    9.8500    7.3770 C.3    22  GLY22       0.2014
     11  C         86.9570   10.5950    8.4800 C.2    22  GLY22       0.2639
     12  O         88.1680   10.4390    8.6560 O.2    22  GLY22      -0.2714
     13  N         86.2110   11.4130    9.2240 N.am   23  GLU23      -0.1963
     14  CA        86.7820   12.1910   10.3240 C.3    23  GLU23       0.1733
     15  C         85.8840   12.0680   11.5480 C.2    23  GLU23       0.2617
     16  O         84.6690   11.9880   11.4200 O.2    23  GLU23      -0.2715
     17  CB        86.9550   13.6760    9.9320 C.3    23  GLU23       0.0429
     18  CG        85.7220   14.2340    9.3090 C.3    23  GLU23       0.1163
     19  CD        85.9820   15.5720    8.6980 C.2    23  GLU23       0.3649
     20  OE1       87.1090   16.0970    8.9250 O.co2  23  GLU23      -0.2457
     21  OE2       85.0580   16.1130    8.0300 O.co2  23  GLU23      -0.2457
     22  N         86.5040   11.9950   12.7250 N.am   24  GLY24      -0.1940
     23  CA        85.8420   12.3020   13.9800 C.3    24  GLY24       0.2014
     24  C         85.9460   13.8090   14.0650 C.2    24  GLY24       0.2639
     25  O         86.0780   14.4830   13.0350 O.2    24  GLY24      -0.2714
     26  N         85.8850   14.3520   15.2720 N.am   25  ALA25      -0.1963
     27  CA        86.2070   15.7600   15.4730 C.3    25  ALA25       0.1728
     28  C         87.5860   15.8560   16.1200 C.2    25  ALA25       0.2616
     29  O         88.3320   16.7950   15.8290 O.2    25  ALA25      -0.2715
     30  CB        85.1410   16.4530   16.3090 C.3    25  ALA25       0.0334
     31  N         87.9290   14.8830   16.9780 N.am   26  PHE26      -0.1960
     32  CA        89.2920   14.7660   17.5170 C.3    26  PHE26       0.1771
     33  C         90.2730   14.4010   16.3990 C.2    26  PHE26       0.2620
     34  O         91.3720   14.9720   16.3040 O.2    26  PHE26      -0.2715
     35  CB        89.3660   13.7280   18.6480 C.3    26  PHE26       0.0574
     36  CG        88.3700   13.8340   19.7600 C.ar   26  PHE26      -0.0200
     37  CD1       87.8020   15.0670   20.1440 C.ar   26  PHE26      -0.0042
     38  CD2       87.9250   12.6900   20.3960 C.ar   26  PHE26      -0.0042
     39  CE1       86.8280   15.1310   21.0940 C.ar   26  PHE26      -0.0003
     40  CE2       86.9620   12.7610   21.3620 C.ar   26  PHE26      -0.0003
     41  CZ        86.3720   13.9750   21.7270 C.ar   26  PHE26      -0.0000
     42  N         89.8710   13.4670   15.5370 N.am   27  GLY27      -0.1954
     43  CA        90.7450   13.0350   14.4620 C.3    27  GLY27       0.1869
     44  C         90.1040   12.6060   13.1590 C.2    27  GLY27       0.2309
     45  O         88.9350   12.8790   12.8800 O.2    27  GLY27      -0.2863
     46  N         90.5420    9.2430   10.1880 N.3    29  VAL29      -0.1245
     47  CA        91.0350    7.9020    9.9700 C.3    29  VAL29       0.1561
     48  C         91.3190    7.6780    8.4840 C.2    29  VAL29       0.2260
     49  O         90.4280    7.8350    7.6770 O.2    29  VAL29      -0.2867
     50  CB        90.0210    6.8660   10.4480 C.3    29  VAL29       0.0252
     51  CG1       90.5310    5.4650   10.2180 C.3    29  VAL29       0.0019
     52  CG2       89.7030    7.0570   11.9200 C.3    29  VAL29       0.0019
     53  N         94.2120    0.6750    9.0110 N.3    49  ALA49      -0.1245
     54  CA        93.6310    2.0090    9.2300 C.3    49  ALA49       0.1562
     55  C         94.4760    2.7950   10.1210 C.2    49  ALA49       0.2260
     56  O         95.0530    2.2610   11.0540 O.2    49  ALA49      -0.2867
     57  CB        92.2180    1.8180    9.8280 C.3    49  ALA49       0.0290
     58  N         94.8230    6.2220   12.5020 N.3    51  LYS51      -0.1245
     59  CA        94.2130    7.3490   13.1870 C.3    51  LYS51       0.1561
     60  C         95.2930    8.4030   13.4040 C.2    51  LYS51       0.2260
     61  O         96.4700    8.0780   13.5650 O.2    51  LYS51      -0.2867
     62  CB        93.6210    6.9110   14.5260 C.3    51  LYS51       0.0271
     63  CG        93.1730    8.0610   15.4130 C.3    51  LYS51       0.0035
     64  CD        91.7230    8.4310   15.1470 C.3    51  LYS51       0.0206
     65  CE        91.0270    8.8880   16.4190 C.3    51  LYS51       0.1093
     66  NZ        90.1010   10.0270   16.1670 N.3    51  LYS51      -0.1314
     67  N         93.8810   10.7270   22.5950 N.3    65  LEU65      -0.1245
     68  CA        94.3050    9.7260   21.5980 C.3    65  LEU65       0.1561
     69  C         95.3550    8.7940   22.1650 C.2    65  LEU65       0.2260
     70  O         95.3720    7.5950   21.9030 O.2    65  LEU65      -0.2867
     71  CB        94.8630   10.3930   20.3420 C.3    65  LEU65       0.0270
     72  CG        95.2710    9.4740   19.1970 C.3    65  LEU65       0.0019
     73  CD1       94.1530    8.5190   18.8110 C.3    65  LEU65       0.0001
     74  CD2       95.6670   10.3240   18.0010 C.3    65  LEU65       0.0001
     75  N         93.6900    6.2610   24.5010 N.3    68  GLU68      -0.1245
     76  CA        93.1020    5.1720   23.7000 C.3    68  GLU68       0.1567
     77  C         94.1420    4.1940   23.2690 C.2    68  GLU68       0.2260
     78  O         93.9800    2.9810   23.4320 O.2    68  GLU68      -0.2867
     79  CB        92.3310    5.6780   22.4530 C.3    68  GLU68       0.0388
     80  CG        91.6620    4.5370   21.6750 C.3    68  GLU68       0.1160
     81  CD        90.8770    4.9500   20.4130 C.2    68  GLU68       0.3649
     82  OE1       91.0420    6.0910   19.9590 O.co2  68  GLU68      -0.2457
     83  OE2       90.1300    4.1040   19.8420 O.co2  68  GLU68      -0.2457
     84  N         88.8750   -4.7260   17.2690 N.3    82  ILE82      -0.1245
     85  CA        89.8080   -4.0110   16.3670 C.3    82  ILE82       0.1561
     86  C         91.1330   -3.9670   17.1080 C.2    82  ILE82       0.2260
     87  O         91.2260   -3.3730   18.2130 O.2    82  ILE82      -0.2867
     88  CB        89.3040   -2.6260   15.9550 C.3    82  ILE82       0.0252
     89  CG1       88.1610   -2.7590   14.9520 C.3    82  ILE82       0.0019
     90  CG2       90.3970   -1.6700   15.4430 C.3    82  ILE82       0.0019
     91  CD1       88.5110   -3.3010   13.5790 C.3    82  ILE82       0.0001
     92  N         95.7610    0.5460   13.3090 N.3    98  VAL98      -0.1231
     93  CA        94.9000   -0.5660   13.6800 C.3    98  VAL98       0.1692
     94  C         94.4300   -1.3990   12.5190 C.2    98  VAL98       0.2592
     95  O         94.5910   -0.9900   11.3690 O.2    98  VAL98      -0.2718
     96  CB        93.6690   -0.0060   14.4820 C.3    98  VAL98       0.0266
     97  CG1       94.1560    0.8040   15.6990 C.3    98  VAL98       0.0020
     98  CG2       92.7700    0.9210   13.6090 C.3    98  VAL98       0.0020
     99  N         93.8600   -2.5730   12.8080 N.am   99  GLU99      -0.1966
    100  CA        93.3260   -3.4610   11.8070 C.3    99  GLU99       0.1733
    101  C         92.2570   -2.7340   10.9930 C.2    99  GLU99       0.2616
    102  O         91.4740   -1.9220   11.5140 O.2    99  GLU99      -0.2715
    103  CB        92.7350   -4.7290   12.3780 C.3    99  GLU99       0.0429
    104  CG        93.7280   -5.7200   12.9190 C.3    99  GLU99       0.1163
    105  CD        93.0640   -6.8400   13.7160 C.2    99  GLU99       0.3649
    106  OE1       92.0290   -6.5340   14.3690 O.co2  99  GLU99      -0.2457
    107  OE2       93.5480   -8.0230   13.6820 O.co2  99  GLU99      -0.2457
    108  N         92.2910   -2.9640    9.6830 N.am  100  TYR100     -0.1960
    109  CA        91.3640   -2.3480    8.7440 C.3   100  TYR100      0.1771
    110  C         90.2250   -3.3130    8.4570 C.2   100  TYR100      0.2619
    111  O         90.4090   -4.4930    8.2340 O.2   100  TYR100     -0.2715
    112  CB        92.0610   -1.9700    7.4140 C.3   100  TYR100      0.0574
    113  CG        91.1110   -1.5740    6.2830 C.ar  100  TYR100     -0.0198
    114  CD1       90.3520   -0.4180    6.3690 C.ar  100  TYR100     -0.0009
    115  CD2       91.0740   -2.2990    5.0830 C.ar  100  TYR100     -0.0009
    116  CE1       89.5420   -0.0050    5.3200 C.ar  100  TYR100      0.0417
    117  CE2       90.2840   -1.8890    4.0360 C.ar  100  TYR100      0.0417
    118  CZ        89.5340   -0.7240    4.1720 C.ar  100  TYR100      0.1957
    119  OH        88.7100   -0.2870    3.1870 O.3   100  TYR100     -0.2866
    120  N         89.0100   -2.7740    8.5220 N.am  101  ALA101     -0.1977
    121  CA        87.7980   -3.5700    8.3510 C.3   101  ALA101      0.1597
    122  C         87.1670   -3.0630    7.0520 C.2   101  ALA101      0.2287
    123  O         86.7210   -1.9140    6.9980 O.2   101  ALA101     -0.2864
    124  CB        86.8280   -3.2900    9.5140 C.3   101  ALA101      0.0319
    125  N         83.0290   -1.9480    6.3200 N.3   104  GLY104     -0.1210
    126  CA        82.3500   -0.8590    7.0630 C.3   104  GLY104      0.1956
    127  C         81.7290   -1.2860    8.4000 C.2   104  GLY104      0.2611
    128  O         81.9670   -2.4020    8.8390 O.2   104  GLY104     -0.2717
    129  N         80.9300   -0.4130    9.0340 N.am  105  ASN105     -0.1974
    130  CA        80.1690   -0.8280   10.2360 C.3   105  ASN105      0.1688
    131  C         79.0320   -1.7960   10.0140 C.2   105  ASN105      0.2292
    132  O         78.5900   -1.9490    8.9140 O.2   105  ASN105     -0.2864
    133  CB        79.7580    0.3390   11.0490 C.3   105  ASN105      0.1181
    134  CG        78.5840    1.0610   10.4880 C.2   105  ASN105      0.2629
    135  OD1       77.5270    0.4930   10.2230 O.2   105  ASN105     -0.2716
    136  ND2       78.7700    2.3160   10.2950 N.am  105  ASN105     -0.0877
    137  N         75.6370   -0.4870    8.3950 N.3   108  GLU108     -0.1245
    138  CA        75.8210   -0.4060    6.9010 C.3   108  GLU108      0.1567
    139  C         75.8720   -1.7760    6.2480 C.2   108  GLU108      0.2260
    140  O         75.2270   -2.0320    5.2430 O.2   108  GLU108     -0.2867
    141  CB        77.1170    0.3420    6.6060 C.3   108  GLU108      0.0388
    142  CG        77.0680    1.8510    6.8550 C.3   108  GLU108      0.1160
    143  CD        78.4370    2.5410    7.1080 C.2   108  GLU108      0.3649
    144  OE1       79.5190    1.8730    7.1070 O.co2 108  GLU108     -0.2457
    145  OE2       78.4310    3.7910    7.3430 O.co2 108  GLU108     -0.2457
    146  N         76.8560    0.3980   14.9410 N.3   152  ARG152     -0.1197
    147  CA        77.7100    1.3560   14.3610 C.3   152  ARG152      0.1779
    148  C         79.1280    1.2800   14.8740 C.2   152  ARG152      0.2305
    149  O         80.0300    1.7700   14.2020 O.2   152  ARG152     -0.2863
    150  CB        77.1970    2.7770   14.6530 C.2   152  ARG152     -0.0007
    151  CG        77.3070    3.2790   16.1300 C.2   152  ARG152      0.0176
    152  CD        76.7040    4.6880   16.4690 C.3   152  ARG152      0.2464
    153  NE        76.3740    4.7390   17.9170 N.pl3 152  ARG152     -0.0815
    154  CZ        75.1810    4.4490   18.4250 C.cat 152  ARG152      0.5349
    155  NH1       74.1620    4.1790   17.6240 N.pl3 152  ARG152      0.1354
    156  NH2       75.0020    4.3770   19.7450 N.pl3 152  ARG152      0.1354
    157  N         82.7360   -3.3200   13.4910 N.3   155  LEU155     -0.1245
    158  CA        83.2190   -3.3030   12.0780 C.3   155  LEU155      0.1561
    159  C         83.3500   -4.6410   11.5350 C.2   155  LEU155      0.2260
    160  O         83.3990   -5.6330   12.2830 O.2   155  LEU155     -0.2867
    161  CB        84.5420   -2.5570   11.9430 C.3   155  LEU155      0.0270
    162  CG        84.4910   -1.1590   12.4940 C.3   155  LEU155      0.0019
    163  CD1       85.8620   -0.5330   12.5730 C.3   155  LEU155      0.0001
    164  CD2       83.5380   -0.2870   11.7190 C.3   155  LEU155      0.0001
    165  N         86.1230    1.0990   19.1280 N.3   166  ASP166     -0.1239
    166  CA        85.8910    2.3090   19.9590 C.3   166  ASP166      0.1674
    167  C         85.7230    1.9330   21.4150 C.2   166  ASP166      0.2266
    168  O         85.1980    2.6780   22.1780 O.2   166  ASP166     -0.2867
    169  CB        84.6870    3.1540   19.4980 C.3   166  ASP166      0.1410
    170  CG        84.9600    3.9420   18.1910 C.2   166  ASP166      0.3668
    171  OD1       86.1130    3.9010   17.7180 O.co2 166  ASP166     -0.2456
    172  OD2       84.0150    4.5700   17.6210 O.co2 166  ASP166     -0.2456
    173  N         88.0290    4.3920   23.6940 N.3   169  LEU169     -0.1245
    174  CA        87.7890    5.8290   23.6180 C.3   169  LEU169      0.1561
    175  C         87.6530    6.5100   24.9770 C.2   169  LEU169      0.2260
    176  O         87.1520    5.9230   25.9300 O.2   169  LEU169     -0.2867
    177  CB        86.5260    6.0940   22.7980 C.3   169  LEU169      0.0270
    178  CG        86.6670    6.7240   21.4130 C.3   169  LEU169      0.0019
    179  CD1       87.6220    5.9220   20.5460 C.3   169  LEU169      0.0001
    180  CD2       85.3050    6.8400   20.7460 C.3   169  LEU169      0.0001
@<TRIPOS>BOND
     1   119   118    1
     2   117   118   ar
     3   117   115   ar
     4   118   116   ar
     5     8     6    1
     6   115   113   ar
     7   140   139    2
     8   116   114   ar
     9     1     2    1
    10     2     3    1
    11     2     5    1
    12     6     5    1
    13     6     7    1
    14   139   138    1
    15   113   114   ar
    16   113   112    1
    17   125   126    1
    18     3     4    2
    19     3     9   am
    20   141   142    1
    21   141   138    1
    22     9    10    1
    23   142   143    1
    24   138   137    1
    25   123   122    2
    26   122   121    1
    27   126   127    1
    28   144   143   ar
    29   143   145   ar
    30    10    11    1
    31   112   109    1
    32    49    48    2
    33    21    19   ar
    34   111   110    2
    35   121   120    1
    36   121   124    1
    37   127   128    2
    38   127   129   am
    39   110   120   am
    40   110   109    1
    41    11    12    2
    42    11    13   am
    43    48    47    1
    44    19    20   ar
    45    19    18    1
    46   109   108    1
    47   132   131    2
    48    53    54    1
    49   129   130    1
    50    13    14    1
    51    54    57    1
    52    54    55    1
    53    18    17    1
    54   108   101   am
    55    17    14    1
    56    47    46    1
    57    47    50    1
    58   131   130    1
    59    55    56    2
    60    51    50    1
    61   135   134    2
    62   130   133    1
    63   136   134   am
    64    14    15    1
    65    50    52    1
    66   134   133    1
    67   101   102    2
    68   101   100    1
    69    95    94    2
    70    16    15    2
    71   159   158    1
    72   159   160    2
    73    15    22   am
    74   164   162    1
    75   100   103    1
    76   100    99    1
    77   161   158    1
    78   161   162    1
    79   158   157    1
    80   103   104    1
    81   162   163    1
    82    58    59    1
    83    94    99   am
    84    94    93    1
    85    22    23    1
    86    45    44    2
    87   104   105    1
    88    25    24    2
    89    44    43    1
    90    59    60    1
    91    59    62    1
    92    92    93    1
    93    60    61    2
    94    91    89    1
    95    98    96    1
    96    93    96    1
    97   107   105   ar
    98   105   106   ar
    99    23    24    1
   100    24    26   am
   101   149   148    2
   102   147   150    1
   103   147   148    1
   104   147   146    1
   105    43    42    1
   106    96    97    1
   107    62    63    1
   108   150   151    2
   109    89    88    1
   110    64    63    1
   111    64    65    1
   112    26    27    1
   113    90    88    1
   114    27    28    1
   115    27    30    1
   116    42    33   am
   117    29    28    2
   118    88    85    1
   119    28    31   am
   120   151   152    1
   121    66    65    1
   122    34    33    2
   123    85    86    1
   124    85    84    1
   125    33    32    1
   126   152   153    1
   127    31    32    1
   128    86    87    2
   129    32    35    1
   130   172   170   ar
   131   155   154    1
   132   171   170   ar
   133   153   154    2
   134    74    72    1
   135   170   169    1
   136   154   156    1
   137    35    36    1
   138    73    72    1
   139   165   166    1
   140    72    71    1
   141   169   166    1
   142    36    37   ar
   143    36    38   ar
   144    83    81   ar
   145   166   167    1
   146    82    81   ar
   147    37    39   ar
   148    71    68    1
   149    38    40   ar
   150    81    80    1
   151   179   178    1
   152   180   178    1
   153    39    41   ar
   154    40    41   ar
   155   178   177    1
   156   167   168    2
   157    68    69    1
   158    68    67    1
   159    80    79    1
   160    70    69    2
   161    79    76    1
   162   177   174    1
   163    77    78    2
   164    77    76    1
   165   174   173    1
   166   174   175    1
   167    76    75    1
   168   175   176    2
