@<TRIPOS>MOLECULE
tmp/5o4eA04.pdb
 94 94 0 0 0
SMALL
GASTEIGER

@<TRIPOS>ATOM
      1  N        130.9790   -0.3030  146.2880 N.3    11  LYS11      -0.1231
      2  CA       131.9200   -0.0770  145.2030 C.3    11  LYS11       0.1678
      3  C        132.9970    0.9080  145.6540 C.2    11  LYS11       0.2434
      4  O        132.6840    1.9080  146.3080 O.2    11  LYS11      -0.2733
      5  CB       131.2030    0.4690  143.9670 C.3    11  LYS11       0.0284
      6  CG       130.1470   -0.4600  143.3980 C.3    11  LYS11       0.0035
      7  CD       130.7720   -1.6790  142.7500 C.3    11  LYS11       0.0206
      8  CE       129.7330   -2.7370  142.4470 C.3    11  LYS11       0.1093
      9  NZ       128.6740   -2.2540  141.5200 N.3    11  LYS11      -0.1314
     10  N        134.2700    0.6580  145.3280 N.am   12  PRO12      -0.2718
     11  CA       135.3240    1.5800  145.7830 C.3    12  PRO12       0.1535
     12  C        135.0540    3.0330  145.4400 C.2    12  PRO12       0.2598
     13  O        135.2510    3.9120  146.2870 O.2    12  PRO12      -0.2715
     14  CB       136.5720    1.0440  145.0700 C.3    12  PRO12       0.0310
     15  CG       136.3070   -0.4070  144.9350 C.3    12  PRO12       0.0237
     16  CD       134.8380   -0.4980  144.6130 C.3    12  PRO12       0.0939
     17  N        134.5980    3.3130  144.2180 N.am   13  LYS13      -0.1978
     18  CA       134.3530    4.6960  143.8280 C.3    13  LYS13       0.1596
     19  C        133.2600    5.3310  144.6790 C.2    13  LYS13       0.2287
     20  O        133.2900    6.5430  144.9220 O.2    13  LYS13      -0.2864
     21  CB       133.9840    4.7600  142.3450 C.3    13  LYS13       0.0298
     22  CG       134.0400    6.1550  141.7480 C.3    13  LYS13       0.0038
     23  CD       133.7590    6.1280  140.2530 C.3    13  LYS13       0.0206
     24  CE       133.7880    7.5250  139.6540 C.3    13  LYS13       0.1093
     25  NZ       133.3940    7.5290  138.2170 N.3    13  LYS13      -0.1314
     26  N        142.9600   -3.4060  148.9140 N.3   140  SER140     -0.1217
     27  CA       142.8190   -3.6440  147.4830 C.3   140  SER140      0.1889
     28  C        141.6910   -2.8400  146.8470 C.2   140  SER140      0.2288
     29  O        141.5660   -2.8570  145.6180 O.2   140  SER140     -0.2866
     30  CB       142.5900   -5.1350  147.2340 C.3   140  SER140      0.2089
     31  OG       141.4990   -5.6130  148.0010 O.3   140  SER140     -0.2183
     32  N        139.9500   -0.1150  145.0120 N.3   142  ILE142     -0.1231
     33  CA       140.5340    0.8750  144.1150 C.3   142  ILE142      0.1692
     34  C        139.6650    0.9720  142.8700 C.2   142  ILE142      0.2592
     35  O        138.9460    0.0350  142.5200 O.2   142  ILE142     -0.2718
     36  CB       141.9950    0.4900  143.7680 C.3   142  ILE142      0.0266
     37  CG1      142.7040    1.6310  143.0410 C.3   142  ILE142      0.0019
     38  CG2      142.0270   -0.7900  142.9350 C.3   142  ILE142      0.0020
     39  CD1      144.2080    1.4510  142.9710 C.3   142  ILE142      0.0001
     40  N        139.7370    2.1170  142.1900 N.am  143  ALA143     -0.1966
     41  CA       139.0060    2.3370  140.9500 C.3   143  ALA143      0.1728
     42  C        139.9280    2.9940  139.9340 C.2   143  ALA143      0.2616
     43  O        140.7880    3.8050  140.2900 O.2   143  ALA143     -0.2715
     44  CB       137.7620    3.2080  141.1730 C.3   143  ALA143      0.0334
     45  N        139.7360    2.6430  138.6620 N.am  144  VAL144     -0.1977
     46  CA       140.6000    3.1050  137.5790 C.3   144  VAL144      0.1596
     47  C        139.7420    3.4820  136.3780 C.2   144  VAL144      0.2287
     48  O        138.8140    2.7540  136.0100 O.2   144  VAL144     -0.2864
     49  CB       141.6360    2.0300  137.1860 C.3   144  VAL144      0.0276
     50  CG1      142.5210    2.5290  136.0550 C.3   144  VAL144      0.0022
     51  CG2      142.4810    1.6370  138.3900 C.3   144  VAL144      0.0022
     52  N        140.6470   -3.5160  132.7120 N.3   158  THR158     -0.1203
     53  CA       141.3480   -3.4120  133.9860 C.3   158  THR158      0.1994
     54  C        141.3200   -4.7710  134.6690 C.2   158  THR158      0.2618
     55  O        140.2440   -5.3420  134.8790 O.2   158  THR158     -0.2717
     56  CB       140.7140   -2.3480  134.8850 C.3   158  THR158      0.1784
     57  OG1      140.6310   -1.1060  134.1760 O.3   158  THR158     -0.2211
     58  CG2      141.5480   -2.1500  136.1470 C.3   158  THR158      0.0376
     59  N        142.5000   -5.2860  135.0070 N.am  159  TRP159     -0.1962
     60  CA       142.5980   -6.5340  135.7420 C.3   159  TRP159      0.1756
     61  C        142.3560   -6.2890  137.2320 C.2   159  TRP159      0.2461
     62  O        142.5780   -5.1830  137.7300 O.2   159  TRP159     -0.2730
     63  CB       143.9750   -7.1650  135.5470 C.3   159  TRP159      0.0590
     64  CG       144.2120   -7.7430  134.1790 C.ar  159  TRP159      0.0006
     65  CD1      144.0310   -9.0400  133.7980 C.ar  159  TRP159      0.0946
     66  CD2      144.6870   -7.0470  133.0190 C.ar  159  TRP159      0.0152
     67  NE1      144.3600   -9.1950  132.4730 N.ar  159  TRP159     -0.2442
     68  CE2      144.7640   -7.9860  131.9710 C.ar  159  TRP159      0.0810
     69  CE3      145.0520   -5.7210  132.7630 C.ar  159  TRP159      0.0012
     70  CZ2      145.1900   -7.6420  130.6890 C.ar  159  TRP159      0.0191
     71  CZ3      145.4740   -5.3820  131.4890 C.ar  159  TRP159      0.0001
     72  CH2      145.5400   -6.3390  130.4680 C.ar  159  TRP159      0.0015
     73  N        141.9010   -7.3020  137.9640 N.am  160  PRO160     -0.2716
     74  CA       141.7200   -7.1490  139.4120 C.3   160  PRO160      0.1521
     75  C        143.0580   -7.0940  140.1270 C.2   160  PRO160      0.2440
     76  O        144.0890   -7.4970  139.5660 O.2   160  PRO160     -0.2731
     77  CB       140.9250   -8.4030  139.8030 C.3   160  PRO160      0.0310
     78  CG       141.2530   -9.4010  138.7480 C.3   160  PRO160      0.0237
     79  CD       141.4370   -8.6150  137.4850 C.3   160  PRO160      0.0939
     80  N        143.0890   -6.6070  141.3690 N.am  161  PRO161     -0.2727
     81  CA       144.3680   -6.4860  142.0760 C.3   161  PRO161      0.1402
     82  C        145.0380   -7.8360  142.2740 C.2   161  PRO161      0.2269
     83  O        144.3810   -8.8690  142.4260 O.2   161  PRO161     -0.2865
     84  CB       143.9750   -5.8560  143.4180 C.3   161  PRO161      0.0296
     85  CG       142.6610   -5.2040  143.1660 C.3   161  PRO161      0.0237
     86  CD       141.9730   -6.0860  142.1760 C.3   161  PRO161      0.0939
     87  N        147.8870   -3.6160  140.1110 N.3   171  LEU171     -0.1245
     88  CA       147.0770   -4.0020  138.9680 C.3   171  LEU171      0.1561
     89  C        147.5850   -3.2750  137.7340 C.2   171  LEU171      0.2260
     90  O        148.4210   -2.3700  137.8140 O.2   171  LEU171     -0.2867
     91  CB       145.5870   -3.7060  139.1990 C.3   171  LEU171      0.0270
     92  CG       145.1310   -2.2550  139.3950 C.3   171  LEU171      0.0019
     93  CD1      145.0410   -1.4730  138.0830 C.3   171  LEU171      0.0001
     94  CD2      143.7790   -2.2380  140.0970 C.3   171  LEU171      0.0001
@<TRIPOS>BOND
     1    72    70   ar
     2    72    71   ar
     3    70    68   ar
     4    71    69   ar
     5    68    67   ar
     6    68    66   ar
     7    67    65   ar
     8    52    53    1
     9    69    66   ar
    10    66    64   ar
    11    65    64   ar
    12    53    54    1
    13    53    56    1
    14    57    56    1
    15    64    63    1
    16    54    55    2
    17    54    59   am
    18    56    58    1
    19    59    60    1
    20    63    60    1
    21    60    61    1
    22    48    47    2
    23    50    49    1
    24    47    46    1
    25    49    46    1
    26    49    51    1
    27    61    62    2
    28    61    73   am
    29    79    73    1
    30    79    78    1
    31    46    45    1
    32    89    90    2
    33    89    88    1
    34    73    74    1
    35    93    92    1
    36    25    24    1
    37    45    42   am
    38    78    77    1
    39    88    91    1
    40    88    87    1
    41    91    92    1
    42    92    94    1
    43    74    77    1
    44    74    75    1
    45    76    75    2
    46    24    23    1
    47    42    43    2
    48    42    41    1
    49    75    80   am
    50    23    22    1
    51    41    44    1
    52    41    40    1
    53    80    81    1
    54    80    86    1
    55     9     8    1
    56    22    21    1
    57    81    82    1
    58    81    84    1
    59    86    85    1
    60    40    34   am
    61    82    83    2
    62    21    18    1
    63     8     7    1
    64    35    34    2
    65     7     6    1
    66    34    33    1
    67    38    36    1
    68    39    37    1
    69    37    36    1
    70    85    84    1
    71     6     5    1
    72    36    33    1
    73    18    17    1
    74    18    19    1
    75     5     2    1
    76    33    32    1
    77    17    12   am
    78    16    15    1
    79    16    10    1
    80    19    20    2
    81    15    14    1
    82    14    11    1
    83     2     3    1
    84     2     1    1
    85    10     3   am
    86    10    11    1
    87    12    11    1
    88    12    13    2
    89    29    28    2
    90     3     4    2
    91    28    27    1
    92    30    27    1
    93    30    31    1
    94    27    26    1
