@<TRIPOS>MOLECULE
tmp/5o4hB01.pdb
 99 92 0 0 0
SMALL
GASTEIGER

@<TRIPOS>ATOM
      1  N         41.0120   17.0700   12.1780 N.3    13  LYS13      -0.1245
      2  CA        41.6330   17.6770   13.3660 C.3    13  LYS13       0.1561
      3  C         40.6270   18.3440   14.3230 C.2    13  LYS13       0.2260
      4  O         40.8710   18.3910   15.5340 O.2    13  LYS13      -0.2867
      5  CB        42.7160   18.6920   12.9830 C.3    13  LYS13       0.0271
      6  CG        42.2250   19.8680   12.1440 C.3    13  LYS13       0.0035
      7  CD        43.3090   20.9370   12.0490 C.3    13  LYS13       0.0206
      8  CE        42.8170   22.1770   11.3460 C.3    13  LYS13       0.1093
      9  NZ        43.8980   23.1580   11.1020 N.3    13  LYS13      -0.1314
     10  N         39.1100   15.4930   16.2950 N.3    16  VAL16      -0.1231
     11  CA        40.1300   15.0570   17.2560 C.3    16  VAL16       0.1692
     12  C         40.1250   16.0680   18.4170 C.2    16  VAL16       0.2592
     13  O         40.0780   15.6850   19.5750 O.2    16  VAL16      -0.2718
     14  CB        41.5330   14.9830   16.6170 C.3    16  VAL16       0.0266
     15  CG1       42.6130   14.7830   17.6770 C.3    16  VAL16       0.0020
     16  CG2       41.6240   13.8750   15.5700 C.3    16  VAL16       0.0020
     17  N         40.1680   17.3640   18.0920 N.am   17  SER17      -0.1952
     18  CA        40.1710   18.4330   19.0940 C.3    17  SER17       0.1924
     19  C         38.9800   18.3450   20.0440 C.2    17  SER17       0.2314
     20  O         39.1320   18.4630   21.2530 O.2    17  SER17      -0.2863
     21  CB        40.1910   19.8030   18.4040 C.3    17  SER17       0.2116
     22  OG        40.2050   20.8450   19.3630 O.3    17  SER17      -0.2180
     23  N         39.4720   15.1520   22.3900 N.3    20  VAL20      -0.1231
     24  CA        40.5280   15.3530   23.3780 C.3    20  VAL20       0.1692
     25  C         40.0920   16.3930   24.4410 C.2    20  VAL20       0.2591
     26  O         40.4030   16.2190   25.6210 O.2    20  VAL20      -0.2718
     27  CB        41.9140   15.6640   22.7620 C.3    20  VAL20       0.0266
     28  CG1       42.3340   14.5970   21.7560 C.3    20  VAL20       0.0020
     29  CG2       41.9590   17.0340   22.1440 C.3    20  VAL20       0.0020
     30  N         39.3760   17.4470   24.0280 N.am   21  GLU21      -0.1979
     31  CA        38.8930   18.4840   24.9420 C.3    21  GLU21       0.1602
     32  C         37.8980   17.9030   25.9330 C.2    21  GLU21       0.2287
     33  O         37.9250   18.2800   27.1040 O.2    21  GLU21      -0.2864
     34  CB        38.3050   19.6630   24.1780 C.3    21  GLU21       0.0415
     35  CG        37.9150   20.8350   25.0500 C.3    21  GLU21       0.1163
     36  CD        37.3500   22.0100   24.2780 C.2    21  GLU21       0.3649
     37  OE1       37.5760   23.1600   24.7120 O.co2  21  GLU21      -0.2457
     38  OE2       36.6840   21.7830   23.2440 O.co2  21  GLU21      -0.2457
     39  N         46.8900    9.8440   21.7850 N.3    46  LEU46      -0.1245
     40  CA        46.6370   11.0150   20.9570 C.3    46  LEU46       0.1561
     41  C         46.1780   12.1480   21.8760 C.2    46  LEU46       0.2260
     42  O         46.5770   13.2840   21.6680 O.2    46  LEU46      -0.2867
     43  CB        45.5700   10.6910   19.9040 C.3    46  LEU46       0.0270
     44  CG        45.2090   11.8010   18.9130 C.3    46  LEU46       0.0019
     45  CD1       46.4300   12.4960   18.3550 C.3    46  LEU46       0.0001
     46  CD2       44.3560   11.2650   17.8010 C.3    46  LEU46       0.0001
     47  N         48.8410   14.6720   24.7530 N.3    49  SER49      -0.1202
     48  CA        49.4270   15.9800   24.5120 C.3    49  SER49       0.2020
     49  C         48.5520   17.1240   25.0560 C.2    49  SER49       0.2618
     50  O         49.0270   17.9670   25.8020 O.2    49  SER49      -0.2717
     51  CB        49.6890   16.1730   23.0230 C.3    49  SER49       0.2103
     52  OG        50.3000   17.4270   22.7890 O.3    49  SER49      -0.2182
     53  N         47.2800   17.1470   24.6810 N.am   50  TYR50      -0.1975
     54  CA        46.3630   18.1920   25.1510 C.3    50  TYR50       0.1639
     55  C         46.0600   18.0290   26.6450 C.2    50  TYR50       0.2290
     56  O         45.9700   19.0260   27.3660 O.2    50  TYR50      -0.2864
     57  CB        45.0660   18.2330   24.3480 C.3    50  TYR50       0.0560
     58  CG        44.2330   19.4290   24.7540 C.ar   50  TYR50      -0.0198
     59  CD1       44.5490   20.7050   24.3010 C.ar   50  TYR50      -0.0009
     60  CD2       43.1730   19.3020   25.6380 C.ar   50  TYR50      -0.0009
     61  CE1       43.8110   21.8140   24.6990 C.ar   50  TYR50       0.0417
     62  CE2       42.4230   20.4060   26.0420 C.ar   50  TYR50       0.0417
     63  CZ        42.7450   21.6640   25.5640 C.ar   50  TYR50       0.1957
     64  OH        42.0330   22.7770   25.9420 O.3    50  TYR50      -0.2866
     65  N         54.8700   15.3500   19.3060 N.3    74  ILE74      -0.1245
     66  CA        53.4330   15.6170   19.3840 C.3    74  ILE74       0.1561
     67  C         53.0860   16.6480   20.4800 C.2    74  ILE74       0.2260
     68  O         51.9270   17.0420   20.5930 O.2    74  ILE74      -0.2867
     69  CB        52.6270   14.2980   19.5050 C.3    74  ILE74       0.0252
     70  CG1       51.2520   14.4410   18.8570 C.3    74  ILE74       0.0019
     71  CG2       52.5050   13.8210   20.9420 C.3    74  ILE74       0.0019
     72  CD1       50.5680   13.0860   18.5870 C.3    74  ILE74       0.0001
     73  N         52.9780   20.3260   21.9220 N.3    76  PHE76      -0.1241
     74  CA        52.9260   21.6830   21.3540 C.3    76  PHE76       0.1605
     75  C         53.2140   22.7890   22.3730 C.2    76  PHE76       0.2264
     76  O         53.0530   23.9650   22.0520 O.2    76  PHE76      -0.2867
     77  CB        51.5570   21.9300   20.6850 C.3    76  PHE76       0.0534
     78  CG        50.3560   21.7490   21.5860 C.ar   76  PHE76      -0.0203
     79  CD1       49.9350   22.7720   22.4240 C.ar   76  PHE76      -0.0042
     80  CD2       49.6470   20.5540   21.5960 C.ar   76  PHE76      -0.0042
     81  CE1       48.8330   22.6060   23.2590 C.ar   76  PHE76      -0.0003
     82  CE2       48.5460   20.3910   22.4320 C.ar   76  PHE76      -0.0003
     83  CZ        48.1470   21.4210   23.2560 C.ar   76  PHE76      -0.0000
     84  N         49.9830   15.0630   11.4780 N.3   216  LEU216     -0.1245
     85  CA        49.2400   16.3050   11.7350 C.3   216  LEU216      0.1561
     86  C         48.7310   16.9040   10.4370 C.2   216  LEU216      0.2260
     87  O         47.6360   17.4340   10.4220 O.2   216  LEU216     -0.2867
     88  CB        50.0750   17.3060   12.5220 C.3   216  LEU216      0.0270
     89  CG        50.4170   16.8780   13.9330 C.3   216  LEU216      0.0019
     90  CD1       51.3900   17.8530   14.5420 C.3   216  LEU216      0.0001
     91  CD2       49.1730   16.7220   14.8090 C.3   216  LEU216      0.0001
     92  N         45.5940   15.1330    9.3350 N.3   219  LEU219     -0.1245
     93  CA        44.3740   15.5070   10.0700 C.3   219  LEU219      0.1561
     94  C         43.8220   16.8190    9.5600 C.2   219  LEU219      0.2260
     95  O         42.6540   17.1410    9.7890 O.2   219  LEU219     -0.2867
     96  CB        44.6430   15.6830   11.5580 C.3   219  LEU219      0.0270
     97  CG        45.1910   14.4980   12.3200 C.3   219  LEU219      0.0019
     98  CD1       45.3560   14.8800   13.7620 C.3   219  LEU219      0.0001
     99  CD2       44.3070   13.2770   12.1990 C.3   219  LEU219      0.0001
@<TRIPOS>BOND
     1    92    93    1
     2    94    95    2
     3    94    93    1
     4    93    96    1
     5    87    86    2
     6    86    85    1
     7     9     8    1
     8     8     7    1
     9    84    85    1
    10    96    97    1
    11    85    88    1
    12     7     6    1
    13     6     5    1
    14     1     2    1
    15    99    97    1
    16    97    98    1
    17    88    89    1
    18     5     2    1
    19     2     3    1
    20    89    90    1
    21    89    91    1
    22     3     4    2
    23    16    14    1
    24    10    11    1
    25    14    11    1
    26    14    15    1
    27    11    12    1
    28    46    44    1
    29    17    12   am
    30    17    18    1
    31    45    44    1
    32    21    18    1
    33    21    22    1
    34    12    13    2
    35    72    70    1
    36    70    69    1
    37    44    43    1
    38    18    19    1
    39    65    66    1
    40    66    69    1
    41    66    67    1
    42    69    71    1
    43    43    40    1
    44    19    20    2
    45    67    68    2
    46    77    74    1
    47    77    78    1
    48    40    39    1
    49    40    41    1
    50    74    73    1
    51    74    75    1
    52    78    80   ar
    53    78    79   ar
    54    80    82   ar
    55    42    41    2
    56    28    27    1
    57    76    75    2
    58    29    27    1
    59    23    24    1
    60    79    81   ar
    61    82    83   ar
    62    27    24    1
    63    52    51    1
    64    51    48    1
    65    38    36   ar
    66    83    81   ar
    67    24    25    1
    68    30    25   am
    69    30    31    1
    70    34    31    1
    71    34    35    1
    72    36    37   ar
    73    36    35    1
    74    59    61   ar
    75    59    58   ar
    76    57    58    1
    77    57    54    1
    78    25    26    2
    79    48    47    1
    80    48    49    1
    81    53    49   am
    82    53    54    1
    83    61    63   ar
    84    58    60   ar
    85    31    32    1
    86    49    50    2
    87    54    55    1
    88    63    64    1
    89    63    62   ar
    90    60    62   ar
    91    32    33    2
    92    55    56    2
