@<TRIPOS>MOLECULE
tmp/5o4hA01.pdb
 99 92 0 0 0
SMALL
GASTEIGER

@<TRIPOS>ATOM
      1  N         42.0260   -1.0370   -6.3860 N.3    16  LYS16      -0.1245
      2  CA        42.0550   -1.3140   -7.8250 C.3    16  LYS16       0.1561
      3  C         41.4100   -2.6530   -8.2150 C.2    16  LYS16       0.2260
      4  O         40.8870   -2.7800   -9.3270 O.2    16  LYS16      -0.2867
      5  CB        43.4670   -1.2670   -8.3860 C.3    16  LYS16       0.0271
      6  CG        44.4260   -2.2600   -7.7800 C.3    16  LYS16       0.0035
      7  CD        45.7130   -2.3150   -8.6190 C.3    16  LYS16       0.0206
      8  CE        46.6480   -3.3900   -8.1340 C.3    16  LYS16       0.1093
      9  NZ        47.9640   -3.3560   -8.8130 N.3    16  LYS16      -0.1314
     10  N         37.7170   -1.9740   -8.2660 N.3    19  VAL19      -0.1231
     11  CA        37.4390   -1.1940   -9.4850 C.3    19  VAL19       0.1692
     12  C         37.4480   -2.1550  -10.6770 C.2    19  VAL19       0.2592
     13  O         36.5390   -2.1330  -11.4990 O.2    19  VAL19      -0.2718
     14  CB        38.4810   -0.0720   -9.7140 C.3    19  VAL19       0.0266
     15  CG1       38.3170    0.5630  -11.0980 C.3    19  VAL19       0.0020
     16  CG2       38.3910    0.9980   -8.6400 C.3    19  VAL19       0.0020
     17  N         38.4760   -3.0030  -10.7660 N.am   20  SER20      -0.1952
     18  CA        38.6110   -3.9680  -11.8460 C.3    20  SER20       0.1924
     19  C         37.3950   -4.8750  -11.9660 C.2    20  SER20       0.2314
     20  O         36.8840   -5.0920  -13.0660 O.2    20  SER20      -0.2863
     21  CB        39.8770   -4.8100  -11.6620 C.3    20  SER20       0.2116
     22  OG        39.9910   -5.7700  -12.7040 O.3    20  SER20      -0.2180
     23  N         34.3270   -2.6940  -13.3410 N.3    23  VAL23      -0.1231
     24  CA        34.4690   -2.3280  -14.7710 C.3    23  VAL23       0.1692
     25  C         34.3220   -3.5610  -15.6580 C.2    23  VAL23       0.2591
     26  O         33.7050   -3.4670  -16.7210 O.2    23  VAL23      -0.2718
     27  CB        35.7450   -1.5120  -15.0950 C.3    23  VAL23       0.0266
     28  CG1       35.8290   -0.2740  -14.2100 C.3    23  VAL23       0.0020
     29  CG2       37.0100   -2.3400  -14.9690 C.3    23  VAL23       0.0020
     30  N         34.8810   -4.7060  -15.2320 N.am   24  GLU24      -0.1979
     31  CA        34.7890   -5.9390  -16.0130 C.3    24  GLU24       0.1602
     32  C         33.3410   -6.3990  -16.1100 C.2    24  GLU24       0.2287
     33  O         32.9380   -6.8770  -17.1620 O.2    24  GLU24      -0.2864
     34  CB        35.6760   -7.0190  -15.3980 C.3    24  GLU24       0.0415
     35  CG        35.7550   -8.2750  -16.2360 C.3    24  GLU24       0.1163
     36  CD        36.6450   -9.3420  -15.6360 C.2    24  GLU24       0.3649
     37  OE1       37.2780  -10.0770  -16.4270 O.co2  24  GLU24      -0.2457
     38  OE2       36.7030   -9.4520  -14.3870 O.co2  24  GLU24      -0.2457
     39  N         34.9990    6.1940  -15.3780 N.3    49  LEU49      -0.1245
     40  CA        36.0960    5.3500  -14.9140 C.3    49  LEU49       0.1561
     41  C         36.0770    4.0500  -15.7290 C.2    49  LEU49       0.2260
     42  O         37.1350    3.5550  -16.1060 O.2    49  LEU49      -0.2867
     43  CB        35.9430    5.0460  -13.4190 C.3    49  LEU49       0.0270
     44  CG        37.0390    4.2040  -12.7540 C.3    49  LEU49       0.0019
     45  CD1       38.4190    4.6370  -13.1450 C.3    49  LEU49       0.0001
     46  CD2       36.8850    4.2290  -11.2480 C.3    49  LEU49       0.0001
     47  N         37.4180    3.5330  -20.1600 N.3    52  SER52      -0.1202
     48  CA        38.7070    3.0670  -20.6660 C.3    52  SER52       0.2020
     49  C         38.7130    1.5550  -20.9540 C.2    52  SER52       0.2618
     50  O         39.0720    1.1580  -22.0570 O.2    52  SER52      -0.2717
     51  CB        39.8180    3.4030  -19.6790 C.3    52  SER52       0.2103
     52  OG        41.0710    2.9770  -20.1990 O.3    52  SER52      -0.2182
     53  N         38.3120    0.7420  -19.9830 N.am   53  TYR53      -0.1975
     54  CA        38.2720   -0.7090  -20.1600 C.3    53  TYR53       0.1639
     55  C         37.1630   -1.1000  -21.1520 C.2    53  TYR53       0.2290
     56  O         37.3690   -1.9930  -21.9820 O.2    53  TYR53      -0.2864
     57  CB        38.0950   -1.4590  -18.8310 C.3    53  TYR53       0.0560
     58  CG        38.2360   -2.9460  -19.0510 C.ar   53  TYR53      -0.0198
     59  CD1       39.4790   -3.5290  -19.2600 C.ar   53  TYR53      -0.0009
     60  CD2       37.1150   -3.7630  -19.1220 C.ar   53  TYR53      -0.0009
     61  CE1       39.6100   -4.8970  -19.4960 C.ar   53  TYR53       0.0417
     62  CE2       37.2320   -5.1290  -19.3550 C.ar   53  TYR53       0.0417
     63  CZ        38.4830   -5.6960  -19.5420 C.ar   53  TYR53       0.1957
     64  OH        38.6330   -7.0390  -19.7720 O.3    53  TYR53      -0.2866
     65  N         44.0060    8.2270  -19.2640 N.3    77  ILE77      -0.1245
     66  CA        43.4070    7.0490  -18.6240 C.3    77  ILE77       0.1561
     67  C         43.2690    5.8780  -19.6100 C.2    77  ILE77       0.2260
     68  O         42.8560    4.7940  -19.2020 O.2    77  ILE77      -0.2867
     69  CB        42.0770    7.4100  -17.9090 C.3    77  ILE77       0.0252
     70  CG1       41.8360    6.4960  -16.6960 C.3    77  ILE77       0.0019
     71  CG2       40.8840    7.3840  -18.8630 C.3    77  ILE77       0.0019
     72  CD1       40.7760    7.0210  -15.7140 C.3    77  ILE77       0.0001
     73  N         44.8180    2.9470  -21.7470 N.3    79  PHE79      -0.1241
     74  CA        46.0150    2.0910  -21.6390 C.3    79  PHE79       0.1605
     75  C         46.3210    1.3050  -22.9120 C.2    79  PHE79       0.2264
     76  O         47.2030    0.4530  -22.8880 O.2    79  PHE79      -0.2867
     77  CB        45.8630    1.1230  -20.4420 C.3    79  PHE79       0.0534
     78  CG        44.6330    0.2460  -20.4740 C.ar   79  PHE79      -0.0203
     79  CD1       44.6160   -0.9290  -21.2140 C.ar   79  PHE79      -0.0042
     80  CD2       43.4880    0.5940  -19.7610 C.ar   79  PHE79      -0.0042
     81  CE1       43.4760   -1.7360  -21.2440 C.ar   79  PHE79      -0.0003
     82  CE2       42.3510   -0.2130  -19.7930 C.ar   79  PHE79      -0.0003
     83  CZ        42.3560   -1.3730  -20.5370 C.ar   79  PHE79      -0.0000
     84  N         45.7680    6.4450  -10.2770 N.3   219  LEU219     -0.1245
     85  CA        46.0070    5.0000  -10.4130 C.3   219  LEU219      0.1561
     86  C         46.8740    4.4960   -9.2630 C.2   219  LEU219      0.2260
     87  O         46.6270    3.4140   -8.7790 O.2   219  LEU219     -0.2867
     88  CB        46.5910    4.6480  -11.7800 C.3   219  LEU219      0.0270
     89  CG        45.6700    4.9270  -12.9650 C.3   219  LEU219      0.0019
     90  CD1       46.4020    4.7450  -14.2750 C.3   219  LEU219      0.0001
     91  CD2       44.4340    4.0890  -12.9490 C.3   219  LEU219      0.0001
     92  N         44.7910    3.9620   -6.1590 N.3   222  LEU222     -0.1245
     93  CA        43.9710    2.7450   -6.1640 C.3   222  LEU222      0.1561
     94  C         44.8100    1.5390   -5.7870 C.2   222  LEU222      0.2260
     95  O         44.2710    0.4970   -5.4060 O.2   222  LEU222     -0.2867
     96  CB        43.3680    2.4770   -7.5450 C.3   222  LEU222      0.0270
     97  CG        42.4600    3.5430   -8.1460 C.3   222  LEU222      0.0019
     98  CD1       41.9690    3.0990   -9.4740 C.3   222  LEU222      0.0001
     99  CD2       41.3040    3.8840   -7.2420 C.3   222  LEU222      0.0001
@<TRIPOS>BOND
     1    75    76    2
     2    75    74    1
     3    50    49    2
     4    56    55    2
     5    73    74    1
     6    74    77    1
     7    81    79   ar
     8    81    83   ar
     9    79    78   ar
    10    55    54    1
    11    49    48    1
    12    49    53   am
    13    48    47    1
    14    48    51    1
    15    83    82   ar
    16    78    77    1
    17    78    80   ar
    18    52    51    1
    19    54    53    1
    20    54    57    1
    21    82    80   ar
    22    64    63    1
    23    67    68    2
    24    67    66    1
    25    63    61   ar
    26    63    62   ar
    27    61    59   ar
    28    62    60   ar
    29    65    66    1
    30    59    58   ar
    31    60    58   ar
    32    58    57    1
    33    71    69    1
    34    66    69    1
    35    69    70    1
    36    33    32    2
    37    26    25    2
    38    70    72    1
    39    37    36   ar
    40    35    36    1
    41    35    34    1
    42    32    31    1
    43    42    41    2
    44    31    34    1
    45    31    30    1
    46    41    40    1
    47    25    30   am
    48    25    24    1
    49    36    38   ar
    50    39    40    1
    51    27    29    1
    52    27    24    1
    53    27    28    1
    54    40    43    1
    55    24    23    1
    56    90    89    1
    57    43    44    1
    58    45    44    1
    59    20    19    2
    60    89    91    1
    61    89    88    1
    62    44    46    1
    63    22    21    1
    64    19    18    1
    65    18    21    1
    66    18    17    1
    67    88    85    1
    68    13    12    2
    69    15    14    1
    70    17    12   am
    71    12    11    1
    72    85    84    1
    73    85    86    1
    74    14    11    1
    75    14    16    1
    76    11    10    1
    77    98    97    1
    78     4     3    2
    79    86    87    2
    80     9     8    1
    81     7     8    1
    82     7     6    1
    83     5     2    1
    84     5     6    1
    85     3     2    1
    86    97    96    1
    87    97    99    1
    88     2     1    1
    89    96    93    1
    90    93    92    1
    91    93    94    1
    92    94    95    2
