@<TRIPOS>MOLECULE
tmp/5o4jA02.pdb
 88 84 0 0 0
SMALL
GASTEIGER

@<TRIPOS>ATOM
      1  N        -60.9230  -43.3100  164.4080 N.3    51  TYR51      -0.1241
      2  CA       -60.7510  -43.5930  165.8220 C.3    51  TYR51       0.1605
      3  C        -62.0440  -44.1880  166.3760 C.2    51  TYR51       0.2264
      4  O        -63.1210  -43.7400  165.9690 O.2    51  TYR51      -0.2867
      5  CB       -60.3770  -42.3030  166.5500 C.3    51  TYR51       0.0534
      6  CG       -60.4730  -42.3550  168.0580 C.ar   51  TYR51      -0.0201
      7  CD1      -61.6820  -42.1540  168.6960 C.ar   51  TYR51      -0.0009
      8  CD2      -59.3460  -42.5620  168.8390 C.ar   51  TYR51      -0.0009
      9  CE1      -61.7830  -42.1850  170.0620 C.ar   51  TYR51       0.0417
     10  CE2      -59.4320  -42.5810  170.2140 C.ar   51  TYR51       0.0417
     11  CZ       -60.6530  -42.3970  170.8240 C.ar   51  TYR51       0.1957
     12  OH       -60.7340  -42.4210  172.2060 O.3    51  TYR51      -0.2866
     13  N        -68.9050  -45.4330  161.4470 N.3   112  LEU112     -0.1231
     14  CA       -68.4700  -45.7050  162.8070 C.3   112  LEU112      0.1693
     15  C        -68.3840  -44.4410  163.6520 C.2   112  LEU112      0.2593
     16  O        -67.8080  -44.4800  164.7500 O.2   112  LEU112     -0.2718
     17  CB       -67.1020  -46.3960  162.7810 C.3   112  LEU112      0.0284
     18  CG       -67.0310  -47.6830  161.9580 C.3   112  LEU112      0.0019
     19  CD1      -65.6040  -48.1990  161.8750 C.3   112  LEU112      0.0001
     20  CD2      -67.9330  -48.7390  162.5600 C.3   112  LEU112      0.0001
     21  N        -68.9440  -43.3210  163.1810 N.am  113  THR113     -0.1939
     22  CA       -68.6760  -42.0460  163.8400 C.3   113  THR113      0.2028
     23  C        -69.5030  -41.8610  165.1050 C.2   113  THR113      0.2643
     24  O        -69.0870  -41.1240  166.0020 O.2   113  THR113     -0.2714
     25  CB       -68.9090  -40.8700  162.8860 C.3   113  THR113      0.1808
     26  OG1      -70.2720  -40.8360  162.4420 O.3   113  THR113     -0.2208
     27  CG2      -67.9830  -40.9660  161.6900 C.3   113  THR113      0.0379
     28  N        -70.6660  -42.4940  165.1920 N.am  114  GLY114     -0.1939
     29  CA       -71.4480  -42.4190  166.4140 C.3   114  GLY114      0.2014
     30  C        -71.8990  -41.0050  166.7240 C.2   114  GLY114      0.2638
     31  O        -72.2800  -40.2380  165.8370 O.2   114  GLY114     -0.2714
     32  N        -71.8660  -40.6540  168.0120 N.am  115  ILE115     -0.1977
     33  CA       -72.5010  -39.4210  168.4770 C.3   115  ILE115      0.1596
     34  C        -71.8840  -38.2030  167.8010 C.2   115  ILE115      0.2287
     35  O        -70.6560  -38.0390  167.7700 O.2   115  ILE115     -0.2864
     36  CB       -72.3890  -39.3230  170.0050 C.3   115  ILE115      0.0276
     37  CG1      -73.1780  -40.4470  170.6690 C.3   115  ILE115      0.0022
     38  CG2      -72.8740  -37.9830  170.4990 C.3   115  ILE115      0.0022
     39  CD1      -72.7750  -40.6940  172.0980 C.3   115  ILE115      0.0001
     40  N        -74.0260  -45.9830  168.6970 N.3   136  PRO136     -0.2116
     41  CA       -73.1970  -45.6240  169.8590 C.3   136  PRO136      0.1372
     42  C        -73.8940  -45.8350  171.1910 C.2   136  PRO136      0.2244
     43  O        -73.2250  -45.8320  172.2320 O.2   136  PRO136     -0.2868
     44  CB       -72.9060  -44.1360  169.6320 C.3   136  PRO136      0.0268
     45  CG       -74.1200  -43.6450  168.9440 C.3   136  PRO136      0.0207
     46  CD       -74.5600  -44.7800  168.0300 C.3   136  PRO136      0.0892
     47  N        -72.1360  -46.3170  176.5620 N.3   174  THR174     -0.1218
     48  CA       -72.0280  -46.3380  175.1150 C.3   174  THR174      0.1862
     49  C        -71.3600  -47.6410  174.7070 C.2   174  THR174      0.2287
     50  O        -70.8410  -48.3950  175.5370 O.2   174  THR174     -0.2866
     51  CB       -71.2350  -45.1540  174.5150 C.3   174  THR174      0.1770
     52  OG1      -69.8320  -45.4420  174.5170 O.3   174  THR174     -0.2211
     53  CG2      -71.4970  -43.8400  175.2500 C.3   174  THR174      0.0375
     54  N        -68.8860  -47.3400  172.5310 N.3   176  GLY176     -0.1210
     55  CA       -67.5970  -46.8850  172.0390 C.3   176  GLY176      0.1956
     56  C        -66.4700  -47.7210  172.6170 C.2   176  GLY176      0.2613
     57  O        -66.5100  -48.1440  173.7750 O.2   176  GLY176     -0.2717
     58  N        -65.4480  -47.9600  171.7950 N.am  177  THR177     -0.1938
     59  CA       -64.3030  -48.7460  172.2510 C.3   177  THR177      0.2028
     60  C        -63.7060  -48.1640  173.5280 C.2   177  THR177      0.2642
     61  O        -63.4550  -48.8940  174.4880 O.2   177  THR177     -0.2714
     62  CB       -63.2670  -48.8300  171.1350 C.3   177  THR177      0.1808
     63  OG1      -63.8970  -49.3790  169.9650 O.3   177  THR177     -0.2208
     64  CG2      -62.0930  -49.7160  171.5170 C.3   177  THR177      0.0379
     65  N        -63.4840  -46.8430  173.5590 N.am  178  MET178     -0.1962
     66  CA       -62.9200  -46.2010  174.7440 C.3   178  MET178      0.1736
     67  C        -63.8000  -46.4190  175.9730 C.2   178  MET178      0.2617
     68  O        -63.2990  -46.7720  177.0450 O.2   178  MET178     -0.2715
     69  CB       -62.7350  -44.7050  174.4880 C.3   178  MET178      0.0427
     70  CG       -62.1370  -43.9240  175.6690 C.3   178  MET178      0.0599
     71  SD       -60.5560  -44.5180  176.2670 S.3   178  MET178     -0.1393
     72  CE       -59.5760  -44.4760  174.7670 C.3   178  MET178      0.0692
     73  N        -65.1080  -46.1580  175.8500 N.am  179  THR179     -0.1951
     74  CA       -66.0270  -46.3580  176.9750 C.3   179  THR179      0.1897
     75  C        -65.9240  -47.7780  177.5200 C.2   179  THR179      0.2313
     76  O        -65.8500  -47.9940  178.7390 O.2   179  THR179     -0.2863
     77  CB       -67.4760  -46.0820  176.5470 C.3   179  THR179      0.1794
     78  OG1      -67.6380  -44.7190  176.1540 O.3   179  THR179     -0.2208
     79  CG2      -68.4670  -46.3920  177.6720 C.3   179  THR179      0.0378
     80  N        -58.5050  -39.8050  175.0300 N.3   209  GLU209     -0.1245
     81  CA       -59.1760  -39.1370  173.9270 C.3   209  GLU209      0.1567
     82  C        -58.5920  -37.7460  173.6830 C.2   209  GLU209      0.2260
     83  O        -58.4520  -37.3130  172.5310 O.2   209  GLU209     -0.2867
     84  CB       -60.6650  -39.0850  174.2540 C.3   209  GLU209      0.0388
     85  CG       -61.5420  -38.2740  173.3490 C.3   209  GLU209      0.1160
     86  CD       -62.9480  -38.1800  173.9070 C.2   209  GLU209      0.3649
     87  OE1      -63.5750  -39.2470  174.0880 O.co2 209  GLU209     -0.2457
     88  OE2      -63.4060  -37.0520  174.2040 O.co2 209  GLU209     -0.2457
@<TRIPOS>BOND
     1    13    14    1
     2    27    25    1
     3    19    18    1
     4    18    20    1
     5    18    17    1
     6    26    25    1
     7    17    14    1
     8    14    15    1
     9    25    22    1
    10    21    15   am
    11    21    22    1
    12    15    16    2
    13    22    23    1
    14     1     2    1
    15    23    28   am
    16    23    24    2
    17    28    29    1
    18     2     3    1
    19     2     5    1
    20    31    30    2
    21     4     3    2
    22    29    30    1
    23     5     6    1
    24    30    32   am
    25    35    34    2
    26    34    33    1
    27    32    33    1
    28    46    40    1
    29    46    45    1
    30     6     7   ar
    31     6     8   ar
    32    33    36    1
    33     7     9   ar
    34    40    41    1
    35     8    10   ar
    36    45    44    1
    37    44    41    1
    38    41    42    1
    39    63    62    1
    40    36    38    1
    41    36    37    1
    42     9    11   ar
    43    10    11   ar
    44    37    39    1
    45    11    12    1
    46    62    64    1
    47    62    59    1
    48    42    43    2
    49    58    59    1
    50    58    56   am
    51    55    54    1
    52    55    56    1
    53    59    60    1
    54    83    82    2
    55    56    57    2
    56    85    86    1
    57    85    84    1
    58    60    65   am
    59    60    61    2
    60    65    66    1
    61    82    81    1
    62    86    87   ar
    63    86    88   ar
    64    81    84    1
    65    81    80    1
    66    69    66    1
    67    69    70    1
    68    51    52    1
    69    51    48    1
    70    51    53    1
    71    49    48    1
    72    49    50    2
    73    66    67    1
    74    72    71    1
    75    48    47    1
    76    70    71    1
    77    73    67   am
    78    73    74    1
    79    67    68    2
    80    78    77    1
    81    77    74    1
    82    77    79    1
    83    74    75    1
    84    75    76    2
