@<TRIPOS>MOLECULE
tmp/5o4jC02.pdb
 118 112 0 0 0
SMALL
GASTEIGER

@<TRIPOS>ATOM
      1  N        -96.7870  -52.4030  195.9370 N.3    18  LYS18      -0.1245
      2  CA       -97.7950  -52.1000  194.9290 C.3    18  LYS18       0.1561
      3  C        -97.6240  -50.6970  194.3560 C.2    18  LYS18       0.2260
      4  O        -97.9740  -50.4590  193.1960 O.2    18  LYS18      -0.2867
      5  CB       -99.1960  -52.2900  195.5150 C.3    18  LYS18       0.0271
      6  CG       -99.5020  -51.4470  196.7320 C.3    18  LYS18       0.0035
      7  CD      -100.9720  -51.5750  197.1040 C.3    18  LYS18       0.0206
      8  CE      -101.3210  -50.7380  198.3210 C.3    18  LYS18       0.1093
      9  NZ      -102.7680  -50.8290  198.6600 N.3    18  LYS18      -0.1314
     10  N        -95.0210  -51.1270  191.6820 N.3    21  VAL21      -0.1231
     11  CA       -95.6640  -51.8010  190.5570 C.3    21  VAL21       0.1692
     12  C        -96.5050  -50.8030  189.7740 C.2    21  VAL21       0.2593
     13  O        -96.4080  -50.7040  188.5440 O.2    21  VAL21      -0.2718
     14  CB       -96.5130  -52.9860  191.0540 C.3    21  VAL21       0.0266
     15  CG1      -97.2880  -53.6060  189.9040 C.3    21  VAL21       0.0020
     16  CG2      -95.6420  -54.0520  191.7170 C.3    21  VAL21       0.0020
     17  N        -97.3320  -50.0340  190.4900 N.am   22  SER22      -0.1938
     18  CA       -98.2400  -49.0860  189.8480 C.3    22  SER22       0.2055
     19  C        -97.4790  -48.0730  189.0060 C.2    22  SER22       0.2643
     20  O        -97.8570  -47.7880  187.8630 O.2    22  SER22      -0.2714
     21  CB       -99.0820  -48.3670  190.9050 C.3    22  SER22       0.2130
     22  OG       -99.9530  -49.2680  191.5620 O.3    22  SER22      -0.2179
     23  N        -96.4010  -47.5120  189.5580 N.am   23  ASP23      -0.1971
     24  CA       -95.6220  -46.5300  188.8130 C.3    23  ASP23       0.1709
     25  C        -95.0630  -47.1320  187.5310 C.2    23  ASP23       0.2293
     26  O        -95.0850  -46.4860  186.4790 O.2    23  ASP23      -0.2864
     27  CB       -94.4930  -45.9820  189.6870 C.3    23  ASP23       0.1436
     28  CG       -95.0080  -45.1540  190.8550 C.2    23  ASP23       0.3671
     29  OD1      -96.1820  -44.7240  190.8120 O.co2  23  ASP23      -0.2456
     30  OD2      -94.2450  -44.9340  191.8200 O.co2  23  ASP23      -0.2456
     31  N        -96.1550  -49.8910  185.7760 N.3    25  VAL25      -0.1231
     32  CA       -97.2000  -50.2270  184.8100 C.3    25  VAL25       0.1692
     33  C        -97.7820  -48.9630  184.1980 C.2    25  VAL25       0.2591
     34  O        -98.1360  -48.9360  183.0130 O.2    25  VAL25      -0.2718
     35  CB       -98.2960  -51.0910  185.4630 C.3    25  VAL25       0.0266
     36  CG1      -97.7010  -52.3560  186.0740 C.3    25  VAL25       0.0020
     37  CG2      -99.0380  -50.2960  186.5110 C.3    25  VAL25       0.0020
     38  N        -97.9070  -47.9000  184.9960 N.am   26  GLU26      -0.1979
     39  CA       -98.4170  -46.6410  184.4620 C.3    26  GLU26       0.1602
     40  C        -97.4880  -46.0910  183.3870 C.2    26  GLU26       0.2287
     41  O        -97.9450  -45.5720  182.3630 O.2    26  GLU26      -0.2864
     42  CB       -98.6020  -45.6240  185.5890 C.3    26  GLU26       0.0415
     43  CG       -99.1110  -44.2700  185.1080 C.3    26  GLU26       0.1163
     44  CD       -99.2860  -43.2700  186.2340 C.2    26  GLU26       0.3649
     45  OE1     -100.3080  -42.5530  186.2310 O.co2  26  GLU26      -0.2457
     46  OE2      -98.4110  -43.2040  187.1210 O.co2  26  GLU26      -0.2457
     47  N        -97.8220  -58.7420  184.3310 N.3    51  LEU51      -0.1245
     48  CA       -98.2840  -57.9990  185.5050 C.3    51  LEU51       0.1561
     49  C        -98.8530  -56.6350  185.1010 C.2    51  LEU51       0.2260
     50  O        -99.7440  -56.1030  185.7580 O.2    51  LEU51      -0.2867
     51  CB       -97.1260  -57.8190  186.4930 C.3    51  LEU51       0.0270
     52  CG       -97.3480  -57.0300  187.7860 C.3    51  LEU51       0.0019
     53  CD1      -98.5990  -57.4730  188.5200 C.3    51  LEU51       0.0001
     54  CD2      -96.1260  -57.2150  188.6850 C.3    51  LEU51       0.0001
     55  N       -102.9860  -55.8970  182.9830 N.3    54  SER54      -0.1202
     56  CA      -104.2410  -55.4630  183.5820 C.3    54  SER54       0.2020
     57  C       -104.4530  -53.9590  183.4330 C.2    54  SER54       0.2618
     58  O       -105.4990  -53.5120  182.9470 O.2    54  SER54      -0.2717
     59  CB      -104.2590  -55.8640  185.0570 C.3    54  SER54       0.2103
     60  OG      -105.4160  -55.3730  185.7030 O.3    54  SER54      -0.2182
     61  N       -103.4720  -53.1570  183.8520 N.am   55  TYR55      -0.1975
     62  CA      -103.6500  -51.7100  183.7870 C.3    55  TYR55       0.1639
     63  C       -103.5900  -51.2050  182.3530 C.2    55  TYR55       0.2290
     64  O       -104.2960  -50.2560  181.9970 O.2    55  TYR55      -0.2864
     65  CB      -102.6040  -50.9770  184.6290 C.3    55  TYR55       0.0560
     66  CG      -102.8780  -49.4920  184.6050 C.ar   55  TYR55      -0.0198
     67  CD1     -103.9410  -48.9590  185.3220 C.ar   55  TYR55      -0.0009
     68  CD2     -102.1280  -48.6330  183.8170 C.ar   55  TYR55      -0.0009
     69  CE1     -104.2240  -47.6120  185.2880 C.ar   55  TYR55       0.0417
     70  CE2     -102.4040  -47.2770  183.7780 C.ar   55  TYR55       0.0417
     71  CZ      -103.4560  -46.7740  184.5160 C.ar   55  TYR55       0.1957
     72  OH      -103.7460  -45.4290  184.4880 O.3    55  TYR55      -0.2866
     73  N       -106.9310  -61.0210  187.9880 N.3    79  ILE79      -0.1245
     74  CA      -106.0230  -59.8830  188.0870 C.3    79  ILE79       0.1561
     75  C       -106.5450  -58.6510  187.3590 C.2    79  ILE79       0.2260
     76  O       -105.9150  -57.5860  187.4310 O.2    79  ILE79      -0.2867
     77  CB      -104.6110  -60.2610  187.5770 C.3    79  ILE79       0.0252
     78  CG1     -103.5550  -59.4200  188.2920 C.3    79  ILE79       0.0019
     79  CG2     -104.4630  -60.0630  186.0650 C.3    79  ILE79       0.0019
     80  CD1     -102.1570  -60.0180  188.2320 C.3    79  ILE79       0.0001
     81  N       -109.0800  -55.5440  187.1580 N.3    81  PHE81      -0.1241
     82  CA      -109.8320  -54.7760  188.1420 C.3    81  PHE81       0.1605
     83  C       -110.9960  -53.9890  187.5560 C.2    81  PHE81       0.2264
     84  O       -111.8060  -53.4650  188.3260 O.2    81  PHE81      -0.2867
     85  CB      -108.9100  -53.8110  188.9090 C.3    81  PHE81       0.0534
     86  CG      -108.1180  -52.8820  188.0330 C.ar   81  PHE81      -0.0203
     87  CD1     -108.6740  -51.7020  187.5630 C.ar   81  PHE81      -0.0042
     88  CD2     -106.8040  -53.1740  187.7060 C.ar   81  PHE81      -0.0042
     89  CE1     -107.9380  -50.8420  186.7670 C.ar   81  PHE81      -0.0003
     90  CE2     -106.0660  -52.3200  186.9130 C.ar   81  PHE81      -0.0003
     91  CZ      -106.6320  -51.1520  186.4440 C.ar   81  PHE81      -0.0000
     92  N       -101.5740  -62.6360  196.2260 N.3   220  PHE220     -0.1227
     93  CA      -100.5280  -61.8430  195.5860 C.3   220  PHE220      0.1736
     94  C       -100.7570  -60.3510  195.8110 C.2   220  PHE220      0.2595
     95  O        -99.8480  -59.6290  196.2340 O.2   220  PHE220     -0.2718
     96  CB      -100.4790  -62.1830  194.0940 C.3   220  PHE220      0.0547
     97  CG       -99.6830  -61.2200  193.2620 C.ar  220  PHE220     -0.0202
     98  CD1      -98.2980  -61.2150  193.3090 C.ar  220  PHE220     -0.0042
     99  CD2     -100.3190  -60.3420  192.4030 C.ar  220  PHE220     -0.0042
    100  CE1      -97.5680  -60.3340  192.5320 C.ar  220  PHE220     -0.0003
    101  CE2      -99.5950  -59.4620  191.6220 C.ar  220  PHE220     -0.0003
    102  CZ       -98.2130  -59.4610  191.6810 C.ar  220  PHE220     -0.0000
    103  N       -101.9760  -59.8700  195.5540 N.am  221  LEU221     -0.1980
    104  CA      -102.2510  -58.4500  195.7490 C.3   221  LEU221      0.1596
    105  C       -102.0670  -58.0500  197.2080 C.2   221  LEU221      0.2287
    106  O       -101.5550  -56.9630  197.5040 O.2   221  LEU221     -0.2864
    107  CB      -103.6640  -58.1170  195.2670 C.3   221  LEU221      0.0297
    108  CG      -103.9120  -58.3700  193.7810 C.3   221  LEU221      0.0022
    109  CD1     -105.3930  -58.1670  193.4450 C.3   221  LEU221      0.0001
    110  CD2     -103.0290  -57.4700  192.9230 C.3   221  LEU221      0.0001
    111  N        -98.4630  -57.4770  197.9000 N.3   224  LEU224     -0.1245
    112  CA       -97.9440  -56.2190  197.3790 C.3   224  LEU224      0.1561
    113  C        -98.2360  -55.0350  198.2950 C.2   224  LEU224      0.2260
    114  O        -97.6360  -53.9720  198.1160 O.2   224  LEU224     -0.2867
    115  CB       -98.5280  -55.9330  195.9950 C.3   224  LEU224      0.0270
    116  CG       -98.2760  -56.9490  194.8790 C.3   224  LEU224      0.0019
    117  CD1      -98.8200  -56.3870  193.5770 C.3   224  LEU224      0.0001
    118  CD2      -96.8040  -57.3140  194.7450 C.3   224  LEU224      0.0001
@<TRIPOS>BOND
     1    64    63    2
     2    63    62    1
     3    41    40    2
     4    58    57    2
     5    55    56    1
     6    34    33    2
     7    40    39    1
     8    57    56    1
     9    57    61   am
    10    56    59    1
    11    70    68   ar
    12    70    71   ar
    13    62    61    1
    14    62    65    1
    15    68    66   ar
    16    33    32    1
    17    33    38   am
    18    47    48    1
    19    39    38    1
    20    39    42    1
    21    72    71    1
    22    71    69   ar
    23    66    65    1
    24    66    67   ar
    25    32    35    1
    26    32    31    1
    27    59    60    1
    28    49    48    1
    29    49    50    2
    30    43    42    1
    31    43    44    1
    32    69    67   ar
    33    35    36    1
    34    35    37    1
    35    48    51    1
    36    79    77    1
    37    45    44   ar
    38    44    46   ar
    39    91    89   ar
    40    91    90   ar
    41    26    25    2
    42    51    52    1
    43    89    87   ar
    44    90    88   ar
    45    81    82    1
    46    75    76    2
    47    75    74    1
    48    25    24    1
    49    83    82    1
    50    83    84    2
    51    87    86   ar
    52    77    74    1
    53    77    78    1
    54    88    86   ar
    55    52    53    1
    56    52    54    1
    57    20    19    2
    58    73    74    1
    59    86    85    1
    60    82    85    1
    61    80    78    1
    62    13    12    2
    63    24    23    1
    64    24    27    1
    65    19    23   am
    66    19    18    1
    67    27    28    1
    68    12    17   am
    69    12    11    1
    70    18    17    1
    71    18    21    1
    72    15    14    1
    73    11    14    1
    74    11    10    1
    75    29    28   ar
    76    28    30   ar
    77    21    22    1
    78    14    16    1
    79   101   102   ar
    80   101    99   ar
    81   102   100   ar
    82    99    97   ar
    83   100    98   ar
    84   110   108    1
    85     4     3    2
    86    97    98   ar
    87    97    96    1
    88   109   108    1
    89   117   116    1
    90   108   107    1
    91    96    93    1
    92     3     2    1
    93   118   116    1
    94   116   115    1
    95     2     5    1
    96     2     1    1
    97   107   104    1
    98     5     6    1
    99   103   104    1
   100   103    94   am
   101    93    94    1
   102    93    92    1
   103   104   105    1
   104    94    95    2
   105   115   112    1
   106     6     7    1
   107     7     8    1
   108   105   106    2
   109   112   111    1
   110   112   113    1
   111   114   113    2
   112     8     9    1
