@<TRIPOS>MOLECULE
tmp/5o4lA01.pdb
 179 170 0 0 0
SMALL
GASTEIGER

@<TRIPOS>ATOM
      1  N          1.3100   17.7110   -3.5630 N.3    60  MET60      -0.1245
      2  CA         0.0950   17.2940   -2.8350 C.3    60  MET60       0.1570
      3  C         -0.8760   16.6080   -3.7920 C.2    60  MET60       0.2261
      4  O         -1.4160   15.5170   -3.4900 O.2    60  MET60      -0.2867
      5  CB        -0.6420   18.4810   -2.1250 C.3    60  MET60       0.0387
      6  CG        -2.1210   18.1620   -1.7030 C.3    60  MET60       0.0595
      7  SD        -2.9760   19.5880   -0.9510 S.3    60  MET60      -0.1393
      8  CE        -1.8970   19.8500    0.4440 C.3    60  MET60       0.0692
      9  N        -11.1310    9.9790    1.3560 N.3    75  THR75      -0.1203
     10  CA       -12.4890   10.1740    1.8510 C.3    75  THR75       0.1994
     11  C        -13.2900   11.2070    1.0350 C.2    75  THR75       0.2617
     12  O        -14.3980   11.5310    1.3710 O.2    75  THR75      -0.2717
     13  CB       -12.4860   10.6100    3.3410 C.3    75  THR75       0.1784
     14  OG1      -11.9870   11.9400    3.4780 O.3    75  THR75      -0.2211
     15  CG2      -11.6220    9.6690    4.1890 C.3    75  THR75       0.0376
     16  N        -12.7140   11.6340   -0.0780 N.am   76  VAL76      -0.1979
     17  CA       -13.3280   12.5620   -1.0130 C.3    76  VAL76       0.1595
     18  C        -12.9870   12.1150   -2.4330 C.2    76  VAL76       0.2287
     19  O        -12.0620   11.3330   -2.6560 O.2    76  VAL76      -0.2864
     20  CB       -12.7770   13.9770   -0.8110 C.3    76  VAL76       0.0276
     21  CG1      -13.1910   14.5200    0.5420 C.3    76  VAL76       0.0022
     22  CG2      -11.2600   14.0610   -0.9570 C.3    76  VAL76       0.0022
     23  N        -10.8060   16.4760   -5.4900 N.3    80  VAL80      -0.1231
     24  CA       -10.9250   17.3290   -4.3290 C.3    80  VAL80       0.1692
     25  C         -9.6220   17.4050   -3.5300 C.2    80  VAL80       0.2591
     26  O         -9.4310   18.2990   -2.7500 O.2    80  VAL80      -0.2718
     27  CB       -12.1420   16.9220   -3.4280 C.3    80  VAL80       0.0266
     28  CG1      -12.2600   17.8130   -2.1950 C.3    80  VAL80       0.0020
     29  CG2      -13.4220   16.9560   -4.2360 C.3    80  VAL80       0.0020
     30  N         -8.6910   16.4880   -3.7720 N.am   81  VAL81      -0.1980
     31  CA        -7.3820   16.5960   -3.1510 C.3    81  VAL81       0.1595
     32  C         -6.6760   17.9020   -3.6180 C.2    81  VAL81       0.2287
     33  O         -5.9920   18.5330   -2.8260 O.2    81  VAL81      -0.2864
     34  CB        -6.5500   15.3410   -3.4400 C.3    81  VAL81       0.0276
     35  CG1       -5.1230   15.4860   -2.9090 C.3    81  VAL81       0.0022
     36  CG2       -7.2280   14.1350   -2.7610 C.3    81  VAL81       0.0022
     37  N         -8.0310   20.7520   -4.1300 N.3    83  ASN83      -0.1225
     38  CA        -9.1330   21.7010   -3.9420 C.3    83  ASN83       0.1785
     39  C         -8.6940   23.1460   -4.1190 C.2    83  ASN83       0.2597
     40  O         -9.2750   23.9030   -4.9010 O.2    83  ASN83      -0.2718
     41  CB        -9.6770   21.4630   -2.5310 C.3    83  ASN83       0.1169
     42  CG       -10.9550   22.2120   -2.2420 C.2    83  ASN83       0.2627
     43  OD1      -11.8200   22.4110   -3.1100 O.2    83  ASN83      -0.2716
     44  ND2      -11.1060   22.5790   -0.9640 N.am   83  ASN83      -0.0877
     45  N         -7.6520   23.5600   -3.4090 N.am   84  MET84      -0.1979
     46  CA        -7.1690   24.9390   -3.5170 C.3    84  MET84       0.1605
     47  C         -6.6530   25.2610   -4.9080 C.2    84  MET84       0.2287
     48  O         -6.8540   26.3440   -5.4140 O.2    84  MET84      -0.2864
     49  CB        -6.0650   25.2360   -2.5060 C.3    84  MET84       0.0413
     50  CG        -6.5750   25.6150   -1.1420 C.3    84  MET84       0.0598
     51  SD        -7.8090   26.8970   -1.0380 S.3    84  MET84      -0.1393
     52  CE        -7.3320   28.0140   -2.3700 C.3    84  MET84       0.0692
     53  N        -18.2620   14.8530   10.4480 N.3   162  LEU162     -0.1245
     54  CA       -16.8250   15.0270   10.4990 C.3   162  LEU162      0.1561
     55  C        -16.0740   13.9080   11.2060 C.2   162  LEU162      0.2260
     56  O        -14.9010   13.6590   10.8540 O.2   162  LEU162     -0.2867
     57  CB       -16.4740   16.3910   11.1140 C.3   162  LEU162      0.0270
     58  CG       -17.0550   17.5980   10.3340 C.3   162  LEU162      0.0019
     59  CD1      -16.5090   18.8670   11.0040 C.3   162  LEU162      0.0001
     60  CD2      -16.8330   17.5730    8.8420 C.3   162  LEU162      0.0001
     61  N        -15.6630   11.8460    8.0680 N.3   165  ALA165     -0.1231
     62  CA       -14.9560   12.4990    6.9890 C.3   165  ALA165      0.1694
     63  C        -13.4700   12.6810    7.1630 C.2   165  ALA165      0.2592
     64  O        -12.6980   12.6350    6.2020 O.2   165  ALA165     -0.2718
     65  CB       -15.5970   13.8390    6.6950 C.3   165  ALA165      0.0304
     66  N        -13.0350   12.8770    8.4190 N.am  166  PHE166     -0.1976
     67  CA       -11.6300   13.0510    8.7200 C.3   166  PHE166      0.1639
     68  C        -10.9820   11.8290    9.3510 C.2   166  PHE166      0.2290
     69  O         -9.9000   11.9180    9.9540 O.2   166  PHE166     -0.2864
     70  CB       -11.4450   14.3410    9.5560 C.3   166  PHE166      0.0560
     71  CG       -11.5490   15.5730    8.7010 C.ar  166  PHE166     -0.0200
     72  CD1      -10.4550   16.0020    8.0100 C.ar  166  PHE166     -0.0042
     73  CD2      -12.7550   16.1940    8.5140 C.ar  166  PHE166     -0.0042
     74  CE1      -10.5470   17.1160    7.1720 C.ar  166  PHE166     -0.0003
     75  CE2      -12.8570   17.3030    7.6450 C.ar  166  PHE166     -0.0003
     76  CZ       -11.7570   17.7160    6.9740 C.ar  166  PHE166     -0.0000
     77  N        -20.7980   12.7050    2.1330 N.3   180  TRP180     -0.1241
     78  CA       -20.2610   13.6670    1.1480 C.3   180  TRP180      0.1605
     79  C        -21.3430   14.0750    0.1600 C.2   180  TRP180      0.2264
     80  O        -21.6110   15.3050   -0.0860 O.2   180  TRP180     -0.2867
     81  CB       -19.0570   13.0810    0.4440 C.3   180  TRP180      0.0550
     82  CG       -18.5550   13.9610   -0.6310 C.ar  180  TRP180      0.0003
     83  CD1      -18.8330   13.8640   -1.9760 C.ar  180  TRP180      0.0946
     84  CD2      -17.7040   15.0680   -0.4750 C.ar  180  TRP180      0.0152
     85  NE1      -18.1520   14.8390   -2.6650 N.ar  180  TRP180     -0.2442
     86  CE2      -17.4720   15.6040   -1.7670 C.ar  180  TRP180      0.0810
     87  CE3      -17.0600   15.6380    0.5990 C.ar  180  TRP180      0.0012
     88  CZ2      -16.6530   16.7010   -1.9640 C.ar  180  TRP180      0.0191
     89  CZ3      -16.2520   16.7670    0.3850 C.ar  180  TRP180      0.0001
     90  CH2      -16.0800   17.2770   -0.8720 C.ar  180  TRP180      0.0015
     91  N        -18.4930   22.6920    1.2010 N.3   226  VAL226     -0.1231
     92  CA       -18.3380   21.4820    2.0230 C.3   226  VAL226      0.1692
     93  C        -16.9280   21.3960    2.6290 C.2   226  VAL226      0.2593
     94  O        -16.7730   21.1250    3.8520 O.2   226  VAL226     -0.2718
     95  CB       -18.6600   20.1880    1.2630 C.3   226  VAL226      0.0266
     96  CG1      -18.4540   18.9580    2.1650 C.3   226  VAL226      0.0020
     97  CG2      -20.1020   20.2050    0.7910 C.3   226  VAL226      0.0020
     98  N        -15.9330   21.6290    1.7890 N.am  227  THR227     -0.1939
     99  CA       -14.5390   21.4970    2.1970 C.3   227  THR227      0.2028
    100  C        -14.1360   22.5780    3.1900 C.2   227  THR227      0.2642
    101  O        -13.4500   22.2700    4.1900 O.2   227  THR227     -0.2714
    102  CB       -13.5730   21.4700    1.0060 C.3   227  THR227      0.1808
    103  OG1      -13.7740   22.5990    0.2280 O.3   227  THR227     -0.2208
    104  CG2      -13.8290   20.2890    0.1180 C.3   227  THR227      0.0379
    105  N        -14.5310   23.8240    2.9710 N.am  228  PHE228     -0.1973
    106  CA       -14.1340   24.8870    3.9090 C.3   228  PHE228      0.1639
    107  C        -14.8370   24.7570    5.2560 C.2   228  PHE228      0.2290
    108  O        -14.1910   24.9620    6.3000 O.2   228  PHE228     -0.2864
    109  CB       -14.2810   26.2830    3.2940 C.3   228  PHE228      0.0560
    110  CG       -13.0720   26.6550    2.4750 C.ar  228  PHE228     -0.0200
    111  CD1      -12.7300   25.9130    1.3440 C.ar  228  PHE228     -0.0042
    112  CD2      -12.1820   27.6280    2.9210 C.ar  228  PHE228     -0.0042
    113  CE1      -11.5860   26.1960    0.6070 C.ar  228  PHE228     -0.0003
    114  CE2      -11.0280   27.9010    2.1860 C.ar  228  PHE228     -0.0003
    115  CZ       -10.7480   27.2050    1.0340 C.ar  228  PHE228     -0.0000
    116  N        -15.8210   21.8180    6.5890 N.3   230  GLY230     -0.1210
    117  CA       -15.2690   20.6470    7.2550 C.3   230  GLY230      0.1956
    118  C        -13.8700   20.8760    7.7460 C.2   230  GLY230      0.2612
    119  O        -13.5210   20.6300    8.9130 O.2   230  GLY230     -0.2717
    120  N        -13.0210   21.3820    6.8780 N.am  231  ALA231     -0.1965
    121  CA       -11.6370   21.5930    7.2070 C.3   231  ALA231      0.1728
    122  C        -11.4820   22.6230    8.3240 C.2   231  ALA231      0.2616
    123  O        -10.7110   22.4110    9.2830 O.2   231  ALA231     -0.2715
    124  CB       -10.8950   22.0750    5.9530 C.3   231  ALA231      0.0334
    125  N        -12.2390   23.7240    8.2520 N.am  232  GLY232     -0.1955
    126  CA       -12.1650   24.7650    9.2400 C.3   232  GLY232      0.1869
    127  C        -12.6840   24.3150   10.5840 C.2   232  GLY232      0.2309
    128  O        -12.0280   24.5440   11.6200 O.2   232  GLY232     -0.2863
    129  N        -10.4100   21.5750   12.1970 N.3   235  SER235     -0.1217
    130  CA        -9.1080   22.0890   12.5510 C.3   235  SER235      0.1889
    131  C         -9.1770   23.0380   13.7550 C.2   235  SER235      0.2288
    132  O         -8.3470   22.9220   14.6800 O.2   235  SER235     -0.2866
    133  CB        -8.3880   22.7250   11.3510 C.3   235  SER235      0.2089
    134  OG        -8.2890   21.7720   10.2790 O.3   235  SER235     -0.2183
    135  N         -2.4170   17.4930   14.4820 N.3   278  PHE278     -0.1241
    136  CA        -2.3260   16.6500   13.2680 C.3   278  PHE278      0.1605
    137  C         -1.7890   15.3030   13.5980 C.2   278  PHE278      0.2264
    138  O         -0.6690   15.1710   14.1120 O.2   278  PHE278     -0.2867
    139  CB        -1.4810   17.2700   12.1610 C.3   278  PHE278      0.0534
    140  CG        -2.2240   18.2720   11.3310 C.ar  278  PHE278     -0.0203
    141  CD1       -2.7960   19.4190   11.9240 C.ar  278  PHE278     -0.0042
    142  CD2       -2.3900   18.0660    9.9630 C.ar  278  PHE278     -0.0042
    143  CE1       -3.4780   20.3460   11.1490 C.ar  278  PHE278     -0.0003
    144  CE2       -3.0830   19.0000    9.1820 C.ar  278  PHE278     -0.0003
    145  CZ        -3.6240   20.1230    9.7880 C.ar  278  PHE278     -0.0000
    146  N          2.1520   15.3600    7.0110 N.3   282  LEU282     -0.1245
    147  CA         1.5810   15.9090    5.7610 C.3   282  LEU282      0.1561
    148  C          2.1050   15.1210    4.5630 C.2   282  LEU282      0.2260
    149  O          3.3330   15.0230    4.3910 O.2   282  LEU282     -0.2867
    150  CB         1.9110   17.4040    5.5690 C.3   282  LEU282      0.0270
    151  CG         1.4640   18.3590    6.6720 C.3   282  LEU282      0.0019
    152  CD1        1.8220   19.7860    6.3260 C.3   282  LEU282      0.0001
    153  CD2       -0.0120   18.1870    7.0120 C.3   282  LEU282      0.0001
    154  N         -1.8430   27.2260    5.0590 N.3   343  CYS343     -0.1235
    155  CA        -3.2610   27.2790    5.4400 C.3   343  CYS343      0.1677
    156  C         -3.9130   28.6440    5.0960 C.2   343  CYS343      0.2270
    157  O         -3.4920   29.6760    5.6420 O.2   343  CYS343     -0.2867
    158  CB        -3.4000   27.0680    6.9210 C.3   343  CYS343      0.0956
    159  SG        -5.1250   27.0370    7.4440 S.3   343  CYS343     -0.0801
    160  N         -7.6100   11.8630   11.4630 N.3   383  GLN383     -0.1231
    161  CA        -6.6160   12.8050   10.9550 C.3   383  GLN383      0.1698
    162  C         -6.2050   13.8560   11.9970 C.2   383  GLN383      0.2592
    163  O         -5.2390   14.5810   11.7680 O.2   383  GLN383     -0.2718
    164  CB        -7.1210   13.4860    9.6710 C.3   383  GLN383      0.0381
    165  CG        -7.2240   12.5210    8.5040 C.3   383  GLN383      0.0905
    166  CD        -7.7820   13.1480    7.2430 C.2   383  GLN383      0.2608
    167  OE1       -7.4290   14.3160    6.9220 O.2   383  GLN383     -0.2717
    168  NE2       -8.7110   12.4100    6.5330 N.am  383  GLN383     -0.0878
    169  N         -6.9610   13.9650   13.0830 N.am  384  ARG384     -0.1980
    170  CA        -6.6050   14.7880   14.2390 C.3   384  ARG384      0.1597
    171  C         -6.4560   13.9680   15.4960 C.2   384  ARG384      0.2287
    172  O         -7.0350   12.9060   15.6240 O.2   384  ARG384     -0.2864
    173  CB        -7.6440   15.8990   14.4960 C.3   384  ARG384      0.0334
    174  CG        -7.7660   16.8930   13.3360 C.3   384  ARG384      0.0492
    175  CD        -6.5100   17.7640   13.1400 C.3   384  ARG384      0.2205
    176  NE        -6.7300   18.7090   12.0510 N.pl3 384  ARG384     -0.0865
    177  CZ        -6.6450   18.3750   10.7550 C.cat 384  ARG384      0.5346
    178  NH1       -6.2600   17.1440   10.4100 N.pl3 384  ARG384      0.1354
    179  NH2       -6.8800   19.2900    9.7750 N.pl3 384  ARG384      0.1354
@<TRIPOS>BOND
     1    23    24    1
     2    48    47    2
     3    47    46    1
     4    40    39    2
     5    24    25    1
     6    24    27    1
     7    29    27    1
     8    37    38    1
     9    39    38    1
    10    39    45   am
    11    38    41    1
    12     3     4    2
    13     3     2    1
    14    30    25   am
    15    30    31    1
    16    32    31    1
    17    32    33    2
    18     1     2    1
    19    25    26    2
    20    46    45    1
    21    46    49    1
    22    34    31    1
    23    34    35    1
    24    34    36    1
    25    27    28    1
    26    43    42    2
    27     2     5    1
    28    85    83   ar
    29    85    86   ar
    30    19    18    2
    31    41    42    1
    32    49    50    1
    33    18    17    1
    34    52    51    1
    35    42    44   am
    36     5     6    1
    37    83    82   ar
    38    88    86   ar
    39    88    90   ar
    40    86    84   ar
    41     6     7    1
    42    50    51    1
    43    17    20    1
    44    17    16    1
    45    22    20    1
    46     7     8    1
    47    90    89   ar
    48    20    21    1
    49    82    84   ar
    50    82    81    1
    51    84    87   ar
    52    80    79    2
    53    16    11   am
    54   104   102    1
    55    79    78    1
    56   103   102    1
    57    89    87   ar
    58    81    78    1
    59   113   115   ar
    60   113   111   ar
    61    97    95    1
    62   102    99    1
    63   115   114   ar
    64    11    12    2
    65    11    10    1
    66    78    77    1
    67    91    92    1
    68    95    92    1
    69    95    96    1
    70   111   110   ar
    71     9    10    1
    72    98    99    1
    73    98    93   am
    74    10    13    1
    75    92    93    1
    76   114   112   ar
    77    99   100    1
    78   110   112   ar
    79   110   109    1
    80    93    94    2
    81   105   100   am
    82   105   106    1
    83   100   101    2
    84   109   106    1
    85    13    14    1
    86    13    15    1
    87   106   107    1
    88   149   148    2
    89   148   147    1
    90   154   155    1
    91   156   155    1
    92   156   157    2
    93   107   108    2
    94   155   158    1
    95   150   147    1
    96   150   151    1
    97   147   146    1
    98   124   121    1
    99    64    63    2
   100   152   151    1
   101   168   166   am
   102   116   117    1
   103   151   153    1
   104    65    62    1
   105   120   121    1
   106   120   118   am
   107   158   159    1
   108   167   166    2
   109    76    74   ar
   110    76    75   ar
   111    62    63    1
   112    62    61    1
   113    63    66   am
   114    74    72   ar
   115   121   122    1
   116   166   165    1
   117   117   118    1
   118    75    73   ar
   119   118   119    2
   120    72    71   ar
   121   125   122   am
   122   125   126    1
   123   122   123    2
   124    66    67    1
   125   165   164    1
   126    73    71   ar
   127    71    70    1
   128    67    68    1
   129    67    70    1
   130    60    58    1
   131   144   145   ar
   132   144   142   ar
   133   126   127    1
   134    68    69    2
   135   164   161    1
   136   179   177    1
   137   145   143   ar
   138   142   140   ar
   139   134   133    1
   140    58    59    1
   141    58    57    1
   142   178   177    1
   143    53    54    1
   144    54    57    1
   145    54    55    1
   146   127   128    2
   147   177   176    2
   148    56    55    2
   149   161   160    1
   150   161   162    1
   151   143   141   ar
   152   140   141   ar
   153   140   139    1
   154   133   130    1
   155   163   162    2
   156   162   169   am
   157   176   175    1
   158   139   136    1
   159   129   130    1
   160   130   131    1
   161   169   170    1
   162   175   174    1
   163   136   137    1
   164   136   135    1
   165   174   173    1
   166   137   138    2
   167   131   132    2
   168   170   173    1
   169   170   171    1
   170   171   172    2
