@<TRIPOS>MOLECULE
tmp/5o4nA03.pdb
 101 95 0 0 0
SMALL
GASTEIGER

@<TRIPOS>ATOM
      1  N        -53.8640   18.5570   35.4120 N.3    19  LYS19      -0.1245
      2  CA       -54.4660   19.1720   34.2290 C.3    19  LYS19       0.1561
      3  C        -53.3950   19.6480   33.2320 C.2    19  LYS19       0.2260
      4  O        -53.6090   19.5610   32.0230 O.2    19  LYS19      -0.2867
      5  CB       -55.4320   20.3170   34.6230 C.3    19  LYS19       0.0271
      6  CG       -54.8090   21.5220   35.3220 C.3    19  LYS19       0.0035
      7  CD       -55.7930   22.6700   35.3910 C.3    19  LYS19       0.0206
      8  CE       -55.1990   23.8960   36.0350 C.3    19  LYS19       0.1093
      9  NZ       -56.1260   25.0680   35.9750 N.3    19  LYS19      -0.1314
     10  N        -52.2290   16.5700   31.4050 N.3    22  VAL22      -0.1231
     11  CA       -53.3210   16.1830   30.4940 C.3    22  VAL22       0.1692
     12  C        -53.2970   17.1100   29.2660 C.2    22  VAL22       0.2592
     13  O        -53.3420   16.6270   28.1360 O.2    22  VAL22      -0.2718
     14  CB       -54.7150   16.1990   31.1820 C.3    22  VAL22       0.0266
     15  CG1      -55.8500   16.0000   30.1640 C.3    22  VAL22       0.0020
     16  CG2      -54.8150   15.1380   32.2740 C.3    22  VAL22       0.0020
     17  N        -53.2240   18.4250   29.4940 N.am   23  SER23      -0.1952
     18  CA       -53.1910   19.4150   28.4120 C.3    23  SER23       0.1924
     19  C        -52.0530   19.1820   27.4260 C.2    23  SER23       0.2314
     20  O        -52.2640   19.2510   26.2180 O.2    23  SER23      -0.2863
     21  CB       -53.0900   20.8250   28.9710 C.3    23  SER23       0.2116
     22  OG       -54.3060   21.1300   29.6010 O.3    23  SER23      -0.2180
     23  N        -52.8370   15.9570   25.2930 N.3    26  VAL26      -0.1245
     24  CA       -53.9080   16.2000   24.3020 C.3    26  VAL26       0.1561
     25  C        -53.4310   17.1430   23.1950 C.2    26  VAL26       0.2260
     26  O        -53.7900   16.9500   22.0390 O.2    26  VAL26      -0.2867
     27  CB       -55.2820   16.6350   24.9100 C.3    26  VAL26       0.0252
     28  CG1      -55.7190   15.6860   26.0320 C.3    26  VAL26       0.0019
     29  CG2      -55.2960   18.0690   25.3930 C.3    26  VAL26       0.0019
     30  N        -60.5390   11.3170   26.2220 N.3    52  LEU52      -0.1245
     31  CA       -60.1540   12.4950   27.0120 C.3    52  LEU52       0.1561
     32  C        -59.5310   13.5550   26.0760 C.2    52  LEU52       0.2260
     33  O        -59.6430   14.7530   26.3370 O.2    52  LEU52      -0.2867
     34  CB       -59.2160   12.0990   28.1520 C.3    52  LEU52       0.0270
     35  CG       -58.7360   13.2000   29.1120 C.3    52  LEU52       0.0019
     36  CD1      -59.8870   14.0640   29.6610 C.3    52  LEU52       0.0001
     37  CD2      -57.9280   12.5640   30.2750 C.3    52  LEU52       0.0001
     38  N        -62.1140   16.0770   22.9530 N.3    55  SER55      -0.1202
     39  CA       -62.6110   17.4400   23.1690 C.3    55  SER55       0.2020
     40  C        -61.6640   18.4830   22.5660 C.2    55  SER55       0.2618
     41  O        -62.1050   19.3230   21.7740 O.2    55  SER55      -0.2717
     42  CB       -62.7910   17.6950   24.6610 C.3    55  SER55       0.2103
     43  OG       -63.2670   19.0070   24.8940 O.3    55  SER55      -0.2182
     44  N        -60.3690   18.4320   22.9340 N.am   56  TYR56      -0.1975
     45  CA       -59.3960   19.3830   22.4140 C.3    56  TYR56       0.1639
     46  C        -59.1200   19.1270   20.9170 C.2    56  TYR56       0.2290
     47  O        -58.9080   20.0840   20.1750 O.2    56  TYR56      -0.2864
     48  CB       -58.0960   19.4140   23.2410 C.3    56  TYR56       0.0560
     49  CG       -57.1860   20.5170   22.7590 C.ar   56  TYR56      -0.0198
     50  CD1      -57.4970   21.8560   22.9880 C.ar   56  TYR56      -0.0009
     51  CD2      -56.0590   20.2330   21.9910 C.ar   56  TYR56      -0.0009
     52  CE1      -56.6950   22.8820   22.4980 C.ar   56  TYR56       0.0417
     53  CE2      -55.2490   21.2520   21.4950 C.ar   56  TYR56       0.0417
     54  CZ       -55.5680   22.5760   21.7570 C.ar   56  TYR56       0.1957
     55  OH       -54.7910   23.6060   21.2900 O.3    56  TYR56      -0.2866
     56  N        -67.9510   17.6960   28.5790 N.3    80  ILE80      -0.1245
     57  CA       -66.5000   17.7820   28.4470 C.3    80  ILE80       0.1561
     58  C        -66.1280   18.6430   27.2150 C.2    80  ILE80       0.2260
     59  O        -64.9600   18.9780   27.0800 O.2    80  ILE80      -0.2867
     60  CB       -65.8320   16.3680   28.4870 C.3    80  ILE80       0.0252
     61  CG1      -64.4120   16.4580   29.0920 C.3    80  ILE80       0.0019
     62  CG2      -65.8510   15.6370   27.1210 C.3    80  ILE80       0.0019
     63  CD1      -63.6120   15.0780   29.2010 C.3    80  ILE80       0.0001
     64  N        -65.1610   21.5050   24.7720 N.3    82  PHE82      -0.1241
     65  CA       -64.3510   22.7180   24.8420 C.3    82  PHE82       0.1605
     66  C        -65.0130   24.0210   24.3930 C.2    82  PHE82       0.2264
     67  O        -64.7920   25.0610   25.0080 O.2    82  PHE82      -0.2867
     68  CB       -63.0980   22.4880   23.9350 C.3    82  PHE82       0.0534
     69  CG       -61.7870   22.9280   24.5170 C.ar   82  PHE82      -0.0203
     70  CD1      -61.0590   22.0810   25.3370 C.ar   82  PHE82      -0.0042
     71  CD2      -61.2730   24.1850   24.2340 C.ar   82  PHE82      -0.0042
     72  CE1      -59.8480   22.4930   25.8860 C.ar   82  PHE82      -0.0003
     73  CE2      -60.0600   24.5960   24.7730 C.ar   82  PHE82      -0.0003
     74  CZ       -59.3550   23.7520   25.6030 C.ar   82  PHE82      -0.0000
     75  N        -64.5950   15.8390   37.8280 N.3   221  PHE221     -0.1227
     76  CA       -63.3980   15.2970   37.1980 C.3   221  PHE221      0.1736
     77  C        -62.4240   16.4520   36.8970 C.2   221  PHE221      0.2595
     78  O        -61.2460   16.3750   37.2430 O.2   221  PHE221     -0.2718
     79  CB       -63.7740   14.5340   35.9120 C.3   221  PHE221      0.0547
     80  CG       -62.6320   14.2980   34.9590 C.ar  221  PHE221     -0.0202
     81  CD1      -61.6340   13.3790   35.2590 C.ar  221  PHE221     -0.0042
     82  CD2      -62.5740   14.9590   33.7410 C.ar  221  PHE221     -0.0042
     83  CE1      -60.5940   13.1430   34.3640 C.ar  221  PHE221     -0.0003
     84  CE2      -61.5340   14.7160   32.8450 C.ar  221  PHE221     -0.0003
     85  CZ       -60.5550   13.8110   33.1580 C.ar  221  PHE221     -0.0000
     86  N        -62.9060   17.5230   36.2730 N.am  222  LEU222     -0.1980
     87  CA       -62.0540   18.6720   35.9510 C.3   222  LEU222      0.1596
     88  C        -61.4800   19.3000   37.2250 C.2   222  LEU222      0.2287
     89  O        -60.3200   19.6990   37.2260 O.2   222  LEU222     -0.2864
     90  CB       -62.8000   19.6890   35.0880 C.3   222  LEU222      0.0297
     91  CG       -63.2200   19.1670   33.7000 C.3   222  LEU222      0.0022
     92  CD1      -64.1750   20.1110   33.0410 C.3   222  LEU222      0.0001
     93  CD2      -62.0130   18.8850   32.7940 C.3   222  LEU222      0.0001
     94  N        -58.5100   17.3190   38.4830 N.3   225  LEU225     -0.1245
     95  CA       -57.2900   17.5240   37.6840 C.3   225  LEU225      0.1561
     96  C        -56.4930   18.7670   38.1440 C.2   225  LEU225      0.2260
     97  O        -55.3470   18.9240   37.7540 O.2   225  LEU225     -0.2867
     98  CB       -57.6220   17.6730   36.1870 C.3   225  LEU225      0.0270
     99  CG       -58.2840   16.4780   35.4770 C.3   225  LEU225      0.0019
    100  CD1      -58.3540   16.7260   33.9850 C.3   225  LEU225      0.0001
    101  CD2      -57.5770   15.1900   35.7680 C.3   225  LEU225      0.0001
@<TRIPOS>BOND
     1    47    46    2
     2    46    45    1
     3    55    54    1
     4    53    54   ar
     5    53    51   ar
     6    54    52   ar
     7    41    40    2
     8    51    49   ar
     9    26    25    2
    10    45    44    1
    11    45    48    1
    12    52    50   ar
    13    40    44   am
    14    40    39    1
    15    49    50   ar
    16    49    48    1
    17    38    39    1
    18    39    42    1
    19    25    24    1
    20    68    69    1
    21    68    65    1
    22    71    69   ar
    23    71    73   ar
    24    24    27    1
    25    24    23    1
    26    66    65    1
    27    66    67    2
    28    69    70   ar
    29    42    43    1
    30    64    65    1
    31    73    74   ar
    32    27    29    1
    33    27    28    1
    34    70    72   ar
    35    74    72   ar
    36    32    33    2
    37    32    31    1
    38    20    19    2
    39    30    31    1
    40    31    34    1
    41    59    58    2
    42    62    60    1
    43    58    57    1
    44    19    18    1
    45    13    12    2
    46    34    35    1
    47    18    21    1
    48    18    17    1
    49    57    60    1
    50    57    56    1
    51    60    61    1
    52    21    22    1
    53    61    63    1
    54    35    36    1
    55    35    37    1
    56    12    17   am
    57    12    11    1
    58    15    14    1
    59    11    14    1
    60    11    10    1
    61    14    16    1
    62     4     3    2
    63    93    91    1
    64    84    85   ar
    65    84    82   ar
    66    92    91    1
    67    85    83   ar
    68     3     2    1
    69    91    90    1
    70    82    80   ar
    71   100    99    1
    72     2     5    1
    73     2     1    1
    74    83    81   ar
    75     5     6    1
    76    80    81   ar
    77    80    79    1
    78    90    87    1
    79     6     7    1
    80     7     8    1
    81    99   101    1
    82    99    98    1
    83    79    76    1
    84    87    86    1
    85    87    88    1
    86     9     8    1
    87    98    95    1
    88    86    77   am
    89    77    76    1
    90    77    78    2
    91    76    75    1
    92    88    89    2
    93    95    96    1
    94    95    94    1
    95    97    96    2
