@<TRIPOS>MOLECULE
tmp/5o4nA01.pdb
 80 76 0 0 0
SMALL
GASTEIGER

@<TRIPOS>ATOM
      1  N        -63.9990   11.7830   25.3360 N.3    51  TYR51      -0.1241
      2  CA       -63.0210   11.6510   26.4070 C.3    51  TYR51       0.1605
      3  C        -61.7780   10.8960   25.8930 C.2    51  TYR51       0.2264
      4  O        -61.9500    9.9060   25.2050 O.2    51  TYR51      -0.2867
      5  CB       -63.6540   10.9360   27.6160 C.3    51  TYR51       0.0534
      6  CG       -62.6950   10.4660   28.6760 C.ar   51  TYR51      -0.0201
      7  CD1      -61.9760    9.2820   28.5190 C.ar   51  TYR51      -0.0009
      8  CD2      -62.5510   11.1610   29.8700 C.ar   51  TYR51      -0.0009
      9  CE1      -61.1110    8.8260   29.4960 C.ar   51  TYR51       0.0417
     10  CE2      -61.6780   10.7100   30.8640 C.ar   51  TYR51       0.0417
     11  CZ       -60.9790    9.5270   30.6780 C.ar   51  TYR51       0.1957
     12  OH       -60.1160    9.0440   31.6280 O.3    51  TYR51      -0.2866
     13  N        -61.9850    6.2010   19.8800 N.3   113  THR113     -0.1203
     14  CA       -62.5880    5.3440   20.8960 C.3   113  THR113      0.1994
     15  C        -61.6840    4.2330   21.4460 C.2   113  THR113      0.2618
     16  O        -61.8480    3.8500   22.6070 O.2   113  THR113     -0.2717
     17  CB       -63.9100    4.7810   20.4060 C.3   113  THR113      0.1784
     18  OG1      -63.6690    3.9330   19.2920 O.3   113  THR113     -0.2211
     19  CG2      -64.9000    5.8920   20.0560 C.3   113  THR113      0.0376
     20  N        -60.7660    3.7250   20.6340 N.am  114  GLY114     -0.1942
     21  CA       -59.8600    2.6740   21.0630 C.3   114  GLY114      0.2014
     22  C        -60.5120    1.3630   21.4830 C.2   114  GLY114      0.2638
     23  O        -61.4510    0.8960   20.8330 O.2   114  GLY114     -0.2714
     24  N        -60.0040    0.7670   22.5830 N.am  115  ILE115     -0.1977
     25  CA       -60.4460   -0.5280   23.1280 C.3   115  ILE115      0.1596
     26  C        -61.9680   -0.6020   23.3700 C.2   115  ILE115      0.2287
     27  O        -62.5280    0.2000   24.1240 O.2   115  ILE115     -0.2864
     28  CB       -59.6390   -0.9390   24.4040 C.3   115  ILE115      0.0276
     29  CG1      -58.1320   -1.1320   24.0830 C.3   115  ILE115      0.0022
     30  CG2      -60.2010   -2.2340   24.9960 C.3   115  ILE115      0.0022
     31  CD1      -57.2060   -0.8680   25.2780 C.3   115  ILE115      0.0001
     32  N        -54.9530    2.3000   20.1930 N.3   136  PRO136     -0.2116
     33  CA       -54.8500    2.3670   21.6580 C.3   136  PRO136      0.1372
     34  C        -53.6270    1.6280   22.2090 C.2   136  PRO136      0.2244
     35  O        -53.2750    1.8120   23.3680 O.2   136  PRO136     -0.2868
     36  CB       -56.1490    1.6940   22.1140 C.3   136  PRO136      0.0268
     37  CG       -56.4130    0.6750   21.0570 C.3   136  PRO136      0.0207
     38  CD       -55.9830    1.3200   19.7730 C.3   136  PRO136      0.0892
     39  N        -50.6050    1.5380   26.9880 N.3   174  THR174     -0.1218
     40  CA       -51.4960    2.0960   25.9960 C.3   174  THR174      0.1862
     41  C        -51.0440    3.4980   25.6430 C.2   174  THR174      0.2287
     42  O        -50.1740    4.0760   26.2860 O.2   174  THR174     -0.2866
     43  CB       -52.9990    2.1200   26.4680 C.3   174  THR174      0.1770
     44  OG1      -53.2930    3.3390   27.1720 O.3   174  THR174     -0.2211
     45  CG2      -53.4330    0.8820   27.2770 C.3   174  THR174      0.0375
     46  N        -53.3940    5.7950   25.5430 N.3   176  GLY176     -0.1210
     47  CA       -54.4430    6.5760   26.1680 C.3   176  GLY176      0.1956
     48  C        -53.8890    7.7210   26.9920 C.2   176  GLY176      0.2613
     49  O        -52.8860    7.5620   27.6830 O.2   176  GLY176     -0.2717
     50  N        -54.5320    8.8700   26.9010 N.am  177  THR177     -0.1938
     51  CA       -54.1790   10.0900   27.6130 C.3   177  THR177      0.2028
     52  C        -54.0490    9.8050   29.1220 C.2   177  THR177      0.2642
     53  O        -53.0420   10.1640   29.7230 O.2   177  THR177     -0.2714
     54  CB       -55.2440   11.1480   27.3840 C.3   177  THR177      0.1808
     55  OG1      -55.3600   11.3560   25.9860 O.3   177  THR177     -0.2208
     56  CG2      -54.8970   12.4890   28.0290 C.3   177  THR177      0.0379
     57  N        -55.0520    9.1560   29.7020 N.am  178  MET178     -0.1962
     58  CA       -55.0460    8.8050   31.1220 C.3   178  MET178      0.1736
     59  C        -53.8680    7.9030   31.4730 C.2   178  MET178      0.2617
     60  O        -53.2000    8.1500   32.4890 O.2   178  MET178     -0.2715
     61  CB       -56.3820    8.1170   31.5050 C.3   178  MET178      0.0427
     62  CG       -56.5220    7.7500   32.9870 C.3   178  MET178      0.0599
     63  SD       -56.2980    9.1440   34.1370 S.3   178  MET178     -0.1393
     64  CE       -57.6020   10.2560   33.6000 C.3   178  MET178      0.0692
     65  N        -53.6010    6.8780   30.6390 N.am  179  THR179     -0.1951
     66  CA       -52.4860    5.9280   30.8600 C.3   179  THR179      0.1897
     67  C        -51.1700    6.6730   30.8720 C.2   179  THR179      0.2313
     68  O        -50.3570    6.5020   31.7790 O.2   179  THR179     -0.2863
     69  CB       -52.4160    4.8080   29.7900 C.3   179  THR179      0.1794
     70  OG1      -53.5790    4.0020   29.8460 O.3   179  THR179     -0.2208
     71  CG2      -51.2110    3.8940   29.9680 C.3   179  THR179      0.0378
     72  N        -61.1590    8.2420   35.8460 N.3   209  GLU209     -0.1245
     73  CA       -62.0580    7.6780   34.8380 C.3   209  GLU209      0.1567
     74  C        -63.4250    7.3600   35.5000 C.2   209  GLU209      0.2260
     75  O        -64.4630    7.5670   34.8850 O.2   209  GLU209     -0.2867
     76  CB       -61.3910    6.4320   34.2170 C.3   209  GLU209      0.0388
     77  CG       -62.2220    5.6120   33.2450 C.3   209  GLU209      0.1160
     78  CD       -61.5230    4.3160   32.8830 C.2   209  GLU209      0.3649
     79  OE1      -60.3910    4.4020   32.3640 O.co2 209  GLU209     -0.2457
     80  OE2      -62.0520    3.2210   33.1960 O.co2 209  GLU209     -0.2457
@<TRIPOS>BOND
     1    18    17    1
     2    38    32    1
     3    38    37    1
     4    13    14    1
     5    19    17    1
     6    32    33    1
     7    17    14    1
     8    20    21    1
     9    20    15   am
    10    23    22    2
    11    14    15    1
    12    37    36    1
    13    21    22    1
    14    15    16    2
    15    22    24   am
    16    33    36    1
    17    33    34    1
    18    34    35    2
    19    24    25    1
    20    25    26    1
    21    25    28    1
    22    26    27    2
    23    29    28    1
    24    29    31    1
    25    28    30    1
    26     4     3    2
    27     1     2    1
    28    46    47    1
    29    41    40    1
    30    41    42    2
    31     3     2    1
    32    55    54    1
    33    40    43    1
    34    40    39    1
    35    47    48    1
    36     2     5    1
    37    43    44    1
    38    43    45    1
    39    50    48   am
    40    50    51    1
    41    48    49    2
    42    54    51    1
    43    54    56    1
    44    51    52    1
    45     5     6    1
    46     7     6   ar
    47     7     9   ar
    48     6     8   ar
    49    52    57   am
    50    52    53    2
    51     9    11   ar
    52    57    58    1
    53    69    70    1
    54    69    71    1
    55    69    66    1
    56     8    10   ar
    57    65    66    1
    58    65    59   am
    59    11    10   ar
    60    11    12    1
    61    66    67    1
    62    67    68    2
    63    58    59    1
    64    58    61    1
    65    59    60    2
    66    61    62    1
    67    79    78   ar
    68    78    80   ar
    69    78    77    1
    70    62    63    1
    71    77    76    1
    72    64    63    1
    73    76    73    1
    74    73    74    1
    75    73    72    1
    76    75    74    2
