@<TRIPOS>MOLECULE
tmp/5o4nA00.pdb
 193 185 0 0 0
SMALL
GASTEIGER

@<TRIPOS>ATOM
      1  N        -51.3240   15.2040   20.7330 N.3    29  LYS29      -0.1245
      2  CA       -52.1740   14.3860   19.8470 C.3    29  LYS29       0.1561
      3  C        -52.8440   15.2770   18.8130 C.2    29  LYS29       0.2260
      4  O        -52.9020   14.9110   17.6430 O.2    29  LYS29      -0.2867
      5  CB       -53.2220   13.5990   20.6360 C.3    29  LYS29       0.0271
      6  CG       -52.6610   12.5100   21.4890 C.3    29  LYS29       0.0035
      7  CD       -53.7530   11.6990   22.1380 C.3    29  LYS29       0.0206
      8  CE       -53.1880   10.5700   22.9650 C.3    29  LYS29       0.1093
      9  NZ       -54.2340    9.7320   23.5540 N.3    29  LYS29      -0.1314
     10  N        -65.1680   10.5490   16.7780 N.3    48  PHE48      -0.1227
     11  CA       -65.7770    9.5710   17.6790 C.3    48  PHE48       0.1736
     12  C        -64.9740    9.4840   18.9770 C.2    48  PHE48       0.2596
     13  O        -63.7850    9.1950   18.9200 O.2    48  PHE48      -0.2718
     14  CB       -65.8170    8.1860   17.0350 C.3    48  PHE48       0.0547
     15  CG       -66.8860    8.0690   15.9920 C.ar   48  PHE48      -0.0202
     16  CD1      -66.6320    8.4090   14.6770 C.ar   48  PHE48      -0.0042
     17  CD2      -68.1480    7.6230   16.3260 C.ar   48  PHE48      -0.0042
     18  CE1      -67.6320    8.3000   13.7080 C.ar   48  PHE48      -0.0003
     19  CE2      -69.1410    7.5020   15.3630 C.ar   48  PHE48      -0.0003
     20  CZ       -68.8820    7.8460   14.0580 C.ar   48  PHE48      -0.0000
     21  N        -65.6170    9.7180   20.1210 N.am   49  GLY49      -0.1957
     22  CA       -64.9610    9.6580   21.4270 C.3    49  GLY49       0.1869
     23  C        -64.5530   11.0230   21.9360 C.2    49  GLY49       0.2309
     24  O        -63.5480   11.5860   21.4990 O.2    49  GLY49      -0.2863
     25  N        -63.9990   11.7830   25.3360 N.3    51  TYR51      -0.1227
     26  CA       -63.0210   11.6510   26.4070 C.3    51  TYR51       0.1736
     27  C        -61.7780   10.8960   25.8930 C.2    51  TYR51       0.2595
     28  O        -61.9500    9.9060   25.2050 O.2    51  TYR51      -0.2718
     29  CB       -63.6540   10.9360   27.6160 C.3    51  TYR51       0.0548
     30  CG       -62.6950   10.4660   28.6760 C.ar   51  TYR51      -0.0200
     31  CD1      -61.9760    9.2820   28.5190 C.ar   51  TYR51      -0.0009
     32  CD2      -62.5510   11.1610   29.8700 C.ar   51  TYR51      -0.0009
     33  CE1      -61.1110    8.8260   29.4960 C.ar   51  TYR51       0.0417
     34  CE2      -61.6780   10.7100   30.8640 C.ar   51  TYR51       0.0417
     35  CZ       -60.9790    9.5270   30.6780 C.ar   51  TYR51       0.1957
     36  OH       -60.1160    9.0440   31.6280 O.3    51  TYR51      -0.2866
     37  N        -60.5390   11.3170   26.2220 N.am   52  LEU52      -0.1966
     38  CA       -60.1540   12.4950   27.0120 C.3    52  LEU52       0.1728
     39  C        -59.5310   13.5550   26.0760 C.2    52  LEU52       0.2616
     40  O        -59.6430   14.7530   26.3370 O.2    52  LEU52      -0.2715
     41  CB       -59.2160   12.0990   28.1520 C.3    52  LEU52       0.0311
     42  CG       -58.7360   13.2000   29.1120 C.3    52  LEU52       0.0022
     43  CD1      -59.8870   14.0640   29.6610 C.3    52  LEU52       0.0001
     44  CD2      -57.9280   12.5640   30.2750 C.3    52  LEU52       0.0001
     45  N        -58.9050   13.1170   24.9770 N.am   53  SER53      -0.1950
     46  CA       -58.2740   14.0010   23.9920 C.3    53  SER53       0.1924
     47  C        -59.2590   14.4720   22.8930 C.2    53  SER53       0.2314
     48  O        -58.9570   15.4360   22.2090 O.2    53  SER53      -0.2863
     49  CB       -57.0860   13.2800   23.3440 C.3    53  SER53       0.2116
     50  OG       -57.5400   12.1390   22.6290 O.3    53  SER53      -0.2180
     51  N        -69.0260   12.6370   18.3850 N.3    71  VAL71      -0.1231
     52  CA       -69.9630   11.5600   18.5880 C.3    71  VAL71       0.1692
     53  C        -69.4750   10.7690   19.8000 C.2    71  VAL71       0.2592
     54  O        -68.3100   10.4050   19.8470 O.2    71  VAL71      -0.2718
     55  CB       -70.1200   10.6610   17.3420 C.3    71  VAL71       0.0266
     56  CG1      -71.0570    9.4790   17.6410 C.3    71  VAL71       0.0020
     57  CG2      -70.6420   11.4710   16.1550 C.3    71  VAL71       0.0020
     58  N        -70.3470   10.5220   20.7760 N.am   72  ASP72      -0.1960
     59  CA       -70.0030    9.7400   21.9530 C.3    72  ASP72       0.1840
     60  C        -71.2200    8.9020   22.3710 C.2    72  ASP72       0.2622
     61  O        -72.3680    9.3740   22.3470 O.2    72  ASP72      -0.2715
     62  CB       -69.4660   10.5620   23.1160 C.3    72  ASP72       0.1450
     63  CG       -68.5440    9.7170   23.9880 C.2    72  ASP72       0.3671
     64  OD1      -69.0080    8.6870   24.5230 O.co2  72  ASP72      -0.2456
     65  OD2      -67.3450   10.0580   24.0850 O.co2  72  ASP72      -0.2456
     66  N        -70.9470    7.6610   22.7670 N.am   73  ILE73      -0.1963
     67  CA       -71.9670    6.7130   23.2120 C.3    73  ILE73       0.1727
     68  C        -72.6140    7.1990   24.5350 C.2    73  ILE73       0.2616
     69  O        -73.7470    6.8220   24.8380 O.2    73  ILE73      -0.2715
     70  CB       -71.3470    5.2660   23.3190 C.3    73  ILE73       0.0290
     71  CG1      -72.4550    4.1940   23.3920 C.3    73  ILE73       0.0022
     72  CG2      -70.3800    5.1390   24.5100 C.3    73  ILE73       0.0023
     73  CD1      -71.9890    2.7870   23.0130 C.3    73  ILE73       0.0001
     74  N        -71.8830    8.0240   25.3070 N.am   74  GLN74      -0.1977
     75  CA       -72.3310    8.5910   26.5820 C.3    74  GLN74       0.1601
     76  C        -72.8480   10.0550   26.3760 C.2    74  GLN74       0.2287
     77  O        -72.0390   10.9690   26.1750 O.2    74  GLN74      -0.2864
     78  CB       -71.1680    8.6230   27.5810 C.3    74  GLN74       0.0394
     79  CG       -70.5240    7.2810   27.8640 C.3    74  GLN74       0.0908
     80  CD       -71.2470    6.4360   28.8760 C.2    74  GLN74       0.2608
     81  OE1      -72.3730    6.7270   29.2950 O.2    74  GLN74      -0.2717
     82  NE2      -70.5920    5.3520   29.2890 N.am   74  GLN74      -0.0878
     83  N        -71.2010   13.2870   28.1900 N.3    77  LEU77      -0.1245
     84  CA       -69.9120   13.7920   27.7500 C.3    77  LEU77       0.1561
     85  C        -70.0360   15.0700   26.9240 C.2    77  LEU77       0.2260
     86  O        -69.0090   15.6350   26.5480 O.2    77  LEU77      -0.2867
     87  CB       -69.0730   12.7260   27.0410 C.3    77  LEU77       0.0270
     88  CG       -68.5260   11.6410   27.9760 C.3    77  LEU77       0.0019
     89  CD1      -67.7970   10.6020   27.1900 C.3    77  LEU77       0.0001
     90  CD2      -67.5790   12.2270   29.0540 C.3    77  LEU77       0.0001
     91  N        -74.5210    8.5610   20.0640 N.3    91  LEU91      -0.1245
     92  CA       -74.3710    7.4840   19.0780 C.3    91  LEU91       0.1561
     93  C        -75.7360    7.0740   18.5040 C.2    91  LEU91       0.2260
     94  O        -75.8300    6.7880   17.3100 O.2    91  LEU91      -0.2867
     95  CB       -73.5970    6.2800   19.6620 C.3    91  LEU91       0.0270
     96  CG       -73.2700    5.1210   18.7070 C.3    91  LEU91       0.0019
     97  CD1      -72.3630    5.5700   17.5970 C.3    91  LEU91       0.0001
     98  CD2      -72.6490    3.9690   19.4610 C.3    91  LEU91       0.0001
     99  N        -61.3580    7.9800   17.8790 N.3   112  LEU112     -0.1231
    100  CA       -60.5080    8.0030   19.0760 C.3   112  LEU112      0.1693
    101  C        -61.0490    7.0960   20.1860 C.2   112  LEU112      0.2593
    102  O        -60.6030    7.2180   21.3340 O.2   112  LEU112     -0.2718
    103  CB       -60.4550    9.4390   19.6240 C.3   112  LEU112      0.0284
    104  CG       -60.1220   10.5320   18.6360 C.3   112  LEU112      0.0019
    105  CD1      -60.3400   11.8810   19.2540 C.3   112  LEU112      0.0001
    106  CD2      -58.7000   10.3850   18.1300 C.3   112  LEU112      0.0001
    107  N        -61.9850    6.2010   19.8800 N.am  113  THR113     -0.1939
    108  CA       -62.5880    5.3440   20.8960 C.3   113  THR113      0.2028
    109  C        -61.6840    4.2330   21.4460 C.2   113  THR113      0.2643
    110  O        -61.8480    3.8500   22.6070 O.2   113  THR113     -0.2714
    111  CB       -63.9100    4.7810   20.4060 C.3   113  THR113      0.1808
    112  OG1      -63.6690    3.9330   19.2920 O.3   113  THR113     -0.2208
    113  CG2      -64.9000    5.8920   20.0560 C.3   113  THR113      0.0379
    114  N        -60.7660    3.7250   20.6340 N.am  114  GLY114     -0.1939
    115  CA       -59.8600    2.6740   21.0630 C.3   114  GLY114      0.2014
    116  C        -60.5120    1.3630   21.4830 C.2   114  GLY114      0.2639
    117  O        -61.4510    0.8960   20.8330 O.2   114  GLY114     -0.2714
    118  N        -60.0040    0.7670   22.5830 N.am  115  ILE115     -0.1963
    119  CA       -60.4460   -0.5280   23.1280 C.3   115  ILE115      0.1727
    120  C        -61.9680   -0.6020   23.3700 C.2   115  ILE115      0.2617
    121  O        -62.5280    0.2000   24.1240 O.2   115  ILE115     -0.2715
    122  CB       -59.6390   -0.9390   24.4040 C.3   115  ILE115      0.0290
    123  CG1      -58.1320   -1.1320   24.0830 C.3   115  ILE115      0.0022
    124  CG2      -60.2010   -2.2340   24.9960 C.3   115  ILE115      0.0023
    125  CD1      -57.2060   -0.8680   25.2780 C.3   115  ILE115      0.0001
    126  N        -62.6080   -1.5770   22.7270 N.am  116  GLY116     -0.1940
    127  CA       -64.0430   -1.8020   22.8260 C.3   116  GLY116      0.2014
    128  C        -64.8980   -0.6760   22.2710 C.2   116  GLY116      0.2639
    129  O        -66.0800   -0.5760   22.5920 O.2   116  GLY116     -0.2714
    130  N        -64.2920    0.1570   21.4400 N.am  117  GLY117     -0.1939
    131  CA       -64.9140    1.3140   20.8220 C.3   117  GLY117      0.2014
    132  C        -65.7880    1.0810   19.6130 C.2   117  GLY117      0.2639
    133  O        -66.4930    0.0830   19.5550 O.2   117  GLY117     -0.2714
    134  N        -65.7490    2.0110   18.6430 N.am  118  VAL118     -0.1963
    135  CA       -66.5790    1.9080   17.4360 C.3   118  VAL118      0.1727
    136  C        -66.2360    0.7110   16.6180 C.2   118  VAL118      0.2616
    137  O        -65.0790    0.3130   16.5080 O.2   118  VAL118     -0.2715
    138  CB       -66.6680    3.1600   16.5280 C.3   118  VAL118      0.0290
    139  CG1      -67.0610    4.3740   17.3090 C.3   118  VAL118      0.0023
    140  CG2      -65.3920    3.3880   15.7590 C.3   118  VAL118      0.0023
    141  N        -67.2550    0.1370   16.0320 N.am  119  SER119     -0.1950
    142  CA       -67.0840   -1.0380   15.2220 C.3   119  SER119      0.1924
    143  C        -66.6410   -0.6830   13.8180 C.2   119  SER119      0.2314
    144  O        -67.0250    0.3780   13.3010 O.2   119  SER119     -0.2863
    145  CB       -68.4100   -1.7910   15.1160 C.3   119  SER119      0.2116
    146  OG       -69.3510   -1.0420   14.3590 O.3   119  SER119     -0.2180
    147  N        -69.6140    0.3740   11.5200 N.3   122  LEU122     -0.1245
    148  CA       -70.0980    1.7560   11.5260 C.3   122  LEU122      0.1561
    149  C        -69.1590    2.6130   10.6720 C.2   122  LEU122      0.2260
    150  O        -69.6270    3.4190    9.8660 O.2   122  LEU122     -0.2867
    151  CB       -70.1820    2.3200   12.9570 C.3   122  LEU122      0.0270
    152  CG       -70.6370    3.7970   13.0940 C.3   122  LEU122      0.0019
    153  CD1      -72.0320    4.0240   12.5100 C.3   122  LEU122      0.0001
    154  CD2      -70.6230    4.2220   14.5410 C.3   122  LEU122      0.0001
    155  N        -57.2460    6.1000   15.9930 N.3   134  GLU134     -0.1245
    156  CA       -56.2530    6.1250   17.0640 C.3   134  GLU134      0.1567
    157  C        -55.9600    4.6970   17.4800 C.2   134  GLU134      0.2260
    158  O        -56.8760    3.9350   17.7690 O.2   134  GLU134     -0.2867
    159  CB       -56.7210    6.9470   18.2610 C.3   134  GLU134      0.0388
    160  CG       -55.6820    7.0070   19.3800 C.3   134  GLU134      0.1160
    161  CD       -55.9100    8.0450   20.4600 C.2   134  GLU134      0.3649
    162  OE1      -57.0710    8.4820   20.6410 O.co2 134  GLU134     -0.2457
    163  OE2      -54.9290    8.3730   21.1690 O.co2 134  GLU134     -0.2457
    164  N        -53.3940    5.7950   25.5430 N.3   176  GLY176     -0.1210
    165  CA       -54.4430    6.5760   26.1680 C.3   176  GLY176      0.1956
    166  C        -53.8890    7.7210   26.9920 C.2   176  GLY176      0.2613
    167  O        -52.8860    7.5620   27.6830 O.2   176  GLY176     -0.2717
    168  N        -54.5320    8.8700   26.9010 N.am  177  THR177     -0.1938
    169  CA       -54.1790   10.0900   27.6130 C.3   177  THR177      0.2028
    170  C        -54.0490    9.8050   29.1220 C.2   177  THR177      0.2642
    171  O        -53.0420   10.1640   29.7230 O.2   177  THR177     -0.2714
    172  CB       -55.2440   11.1480   27.3840 C.3   177  THR177      0.1808
    173  OG1      -55.3600   11.3560   25.9860 O.3   177  THR177     -0.2208
    174  CG2      -54.8970   12.4890   28.0290 C.3   177  THR177      0.0379
    175  N        -55.0520    9.1560   29.7020 N.am  178  MET178     -0.1976
    176  CA       -55.0460    8.8050   31.1220 C.3   178  MET178      0.1605
    177  C        -53.8680    7.9030   31.4730 C.2   178  MET178      0.2287
    178  O        -53.2000    8.1500   32.4890 O.2   178  MET178     -0.2864
    179  CB       -56.3820    8.1170   31.5050 C.3   178  MET178      0.0413
    180  CG       -56.5220    7.7500   32.9870 C.3   178  MET178      0.0598
    181  SD       -56.2980    9.1440   34.1370 S.3   178  MET178     -0.1393
    182  CE       -57.6020   10.2560   33.6000 C.3   178  MET178      0.0692
    183  N        -67.1370    8.3910   34.0410 N.3   213  PHE213     -0.1241
    184  CA       -68.0460    7.3290   33.5540 C.3   213  PHE213      0.1605
    185  C        -68.9600    6.6310   34.5580 C.2   213  PHE213      0.2264
    186  O        -69.9930    6.1130   34.1320 O.2   213  PHE213     -0.2867
    187  CB       -67.1870    6.2820   32.8370 C.3   213  PHE213      0.0534
    188  CG       -66.5790    6.8950   31.6060 C.ar  213  PHE213     -0.0203
    189  CD1      -65.3090    7.4620   31.6430 C.ar  213  PHE213     -0.0042
    190  CD2      -67.2940    6.9670   30.4230 C.ar  213  PHE213     -0.0042
    191  CE1      -64.7680    8.0760   30.5210 C.ar  213  PHE213     -0.0003
    192  CE2      -66.7400    7.5680   29.2950 C.ar  213  PHE213     -0.0003
    193  CZ       -65.4810    8.1150   29.3510 C.ar  213  PHE213     -0.0000
@<TRIPOS>BOND
     1   150   149    2
     2   149   148    1
     3   147   148    1
     4   148   151    1
     5   153   152    1
     6   151   152    1
     7   152   154    1
     8   144   143    2
     9    18    20   ar
    10    18    16   ar
    11   143   142    1
    12    20    19   ar
    13   146   145    1
    14    16    15   ar
    15   145   142    1
    16   142   141    1
    17    19    17   ar
    18   140   138    1
    19    15    17   ar
    20    15    14    1
    21   155   156    1
    22   141   136   am
    23    57    55    1
    24   137   136    2
    25   138   139    1
    26   138   135    1
    27   136   135    1
    28    10    11    1
    29    14    11    1
    30   156   157    1
    31   156   159    1
    32    94    93    2
    33    55    56    1
    34    55    52    1
    35   135   134    1
    36   157   158    2
    37    97    96    1
    38     4     3    2
    39    11    12    1
    40    99   100    1
    41   106   104    1
    42   159   160    1
    43    51    52    1
    44    93    92    1
    45    52    53    1
    46   104   105    1
    47   104   103    1
    48   134   132   am
    49    96    98    1
    50    96    95    1
    51     3     2    1
    52    13    12    2
    53    12    21   am
    54   100   103    1
    55   100   101    1
    56    92    95    1
    57    92    91    1
    58   112   111    1
    59   160   161    1
    60   133   132    2
    61   132   131    1
    62    53    54    2
    63    53    58   am
    64     2     5    1
    65     2     1    1
    66   107   101   am
    67   107   108    1
    68   113   111    1
    69    21    22    1
    70   101   102    2
    71   111   108    1
    72   161   162   ar
    73   161   163   ar
    74   114   115    1
    75   114   109   am
    76     5     6    1
    77    58    59    1
    78   131   130    1
    79   117   116    2
    80   108   109    1
    81   115   116    1
    82    22    23    1
    83   130   128   am
    84   109   110    2
    85   116   118   am
    86     6     7    1
    87    24    23    2
    88    59    60    1
    89    59    62    1
    90     7     8    1
    91    48    47    2
    92   128   129    2
    93   128   127    1
    94    61    60    2
    95    60    66   am
    96   118   119    1
    97    50    49    1
    98   126   127    1
    99   126   120   am
   100    66    67    1
   101    47    46    1
   102     8     9    1
   103    73    71    1
   104    62    63    1
   105   119   120    1
   106   119   122    1
   107    67    70    1
   108    67    68    1
   109    70    71    1
   110    70    72    1
   111    49    46    1
   112   120   121    2
   113    63    65   ar
   114    63    64   ar
   115    46    45    1
   116   123   122    1
   117   123   125    1
   118   122   124    1
   119    68    69    2
   120    68    74   am
   121    45    39   am
   122    28    27    2
   123    74    75    1
   124    25    26    1
   125   164   165    1
   126    27    37   am
   127    27    26    1
   128   173   172    1
   129    39    40    2
   130    39    38    1
   131   165   166    1
   132    77    76    2
   133    37    38    1
   134    76    75    1
   135    26    29    1
   136    86    85    2
   137    75    78    1
   138   168   166   am
   139   168   169    1
   140    85    84    1
   141   166   167    2
   142    38    41    1
   143    87    84    1
   144    87    88    1
   145    89    88    1
   146   172   169    1
   147   172   174    1
   148    78    79    1
   149   169   170    1
   150    29    30    1
   151    84    83    1
   152    79    80    1
   153    88    90    1
   154    41    42    1
   155    31    30   ar
   156    31    33   ar
   157    30    32   ar
   158    80    82   am
   159    80    81    2
   160    42    43    1
   161    42    44    1
   162   170   175   am
   163   170   171    2
   164   192   193   ar
   165   192   190   ar
   166   193   191   ar
   167    33    35   ar
   168   175   176    1
   169    32    34   ar
   170   190   188   ar
   171   191   189   ar
   172    35    34   ar
   173    35    36    1
   174   176   177    1
   175   176   179    1
   176   177   178    2
   177   179   180    1
   178   188   189   ar
   179   188   187    1
   180   187   184    1
   181   180   181    1
   182   184   183    1
   183   184   185    1
   184   182   181    1
   185   186   185    2
