@<TRIPOS>MOLECULE
tmp/5o4tA00.pdb
 98 96 0 0 0
SMALL
GASTEIGER

@<TRIPOS>ATOM
      1  N         16.0370  -12.7530    5.4550 N.3    26  ILE26      -0.1231
      2  CA        14.5930  -12.5660    5.3880 C.3    26  ILE26       0.1692
      3  C         13.8700  -13.8820    5.1880 C.2    26  ILE26       0.2592
      4  O         12.6550  -13.9380    5.4070 O.2    26  ILE26      -0.2718
      5  CB        14.1830  -11.5680    4.2960 C.3    26  ILE26       0.0266
      6  CG1       14.6170  -12.0650    2.9300 C.3    26  ILE26       0.0019
      7  CG2       14.7820  -10.1930    4.5830 C.3    26  ILE26       0.0020
      8  CD1       14.0010  -11.2750    1.8050 C.3    26  ILE26       0.0001
      9  N         14.5910  -14.9500    4.8270 N.am   27  PHE27      -0.1976
     10  CA        14.0150  -16.2820    4.6750 C.3    27  PHE27       0.1639
     11  C         14.4590  -17.2330    5.7800 C.2    27  PHE27       0.2290
     12  O         14.2470  -18.4440    5.6690 O.2    27  PHE27      -0.2864
     13  CB        14.3730  -16.8590    3.3070 C.3    27  PHE27       0.0560
     14  CG        14.0060  -15.9660    2.1620 C.ar   27  PHE27      -0.0200
     15  CD1       12.6840  -15.6850    1.9010 C.ar   27  PHE27      -0.0042
     16  CD2       14.9810  -15.4110    1.3550 C.ar   27  PHE27      -0.0042
     17  CE1       12.3300  -14.8700    0.8520 C.ar   27  PHE27      -0.0003
     18  CE2       14.6380  -14.5730    0.3040 C.ar   27  PHE27      -0.0003
     19  CZ        13.3090  -14.3100    0.0490 C.ar   27  PHE27      -0.0000
     20  N          7.4550  -16.8780    7.5750 N.3    31  VAL31      -0.1231
     21  CA         6.7270  -15.6210    7.4170 C.3    31  VAL31       0.1678
     22  C          5.7760  -15.4840    8.6000 C.2    31  VAL31       0.2434
     23  O          4.9930  -16.4090    8.8650 O.2    31  VAL31      -0.2733
     24  CB         5.9760  -15.5710    6.0780 C.3    31  VAL31       0.0265
     25  CG1        5.0580  -14.3580    6.0190 C.3    31  VAL31       0.0020
     26  CG2        6.9600  -15.5550    4.9140 C.3    31  VAL31       0.0020
     27  N          5.8200  -14.3760    9.3550 N.am   32  PRO32      -0.2729
     28  CA         4.9470  -14.2450   10.5340 C.3    32  PRO32       0.1401
     29  C          3.4760  -14.0710   10.1740 C.2    32  PRO32       0.2269
     30  O          3.0540  -12.9860    9.7600 O.2    32  PRO32      -0.2865
     31  CB         5.5030  -13.0020   11.2440 C.3    32  PRO32       0.0296
     32  CG         6.1350  -12.2010   10.1550 C.3    32  PRO32       0.0237
     33  CD         6.6880  -13.1990    9.1660 C.3    32  PRO32       0.0939
     34  N          1.3330  -11.1240   11.4320 N.3    35  GLU35      -0.1231
     35  CA         1.5610   -9.8380   10.7960 C.3    35  GLU35       0.1699
     36  C          1.1750   -9.8400    9.3260 C.2    35  GLU35       0.2592
     37  O          1.1190   -8.7690    8.7120 O.2    35  GLU35      -0.2718
     38  CB         3.0300   -9.4380   10.9600 C.3    35  GLU35       0.0402
     39  CG         3.4560   -9.3430   12.4170 C.3    35  GLU35       0.1161
     40  CD         4.9580   -9.3330   12.5960 C.2    35  GLU35       0.3649
     41  OE1        5.4210   -9.6140   13.7230 O.co2  35  GLU35      -0.2457
     42  OE2        5.6750   -9.0490   11.6110 O.co2  35  GLU35      -0.2457
     43  N          0.9000  -11.0110    8.7580 N.am   36  VAL36      -0.1980
     44  CA         0.4840  -11.1460    7.3650 C.3    36  VAL36       0.1595
     45  C         -0.7870  -11.9890    7.3160 C.2    36  VAL36       0.2287
     46  O         -0.7470  -13.1480    6.8750 O.2    36  VAL36      -0.2864
     47  CB         1.5990  -11.7710    6.5110 C.3    36  VAL36       0.0276
     48  CG1        1.3050  -11.5560    5.0520 C.3    36  VAL36       0.0022
     49  CG2        2.9600  -11.1830    6.8790 C.3    36  VAL36       0.0022
     50  N         -1.7810  -14.2840    4.2160 N.3    39  TYR39      -0.1241
     51  CA        -0.7020  -15.0000    3.5380 C.3    39  TYR39       0.1605
     52  C         -1.1580  -16.3750    3.0620 C.2    39  TYR39       0.2264
     53  O         -0.8880  -16.7710    1.9210 O.2    39  TYR39      -0.2867
     54  CB         0.5010  -15.1220    4.4710 C.3    39  TYR39       0.0534
     55  CG         1.7710  -15.6350    3.8030 C.ar   39  TYR39      -0.0201
     56  CD1        2.5570  -14.7970    3.0170 C.ar   39  TYR39      -0.0009
     57  CD2        2.1930  -16.9520    3.9760 C.ar   39  TYR39      -0.0009
     58  CE1        3.7280  -15.2640    2.4120 C.ar   39  TYR39       0.0417
     59  CE2        3.3620  -17.4250    3.3800 C.ar   39  TYR39       0.0417
     60  CZ         4.1210  -16.5750    2.6010 C.ar   39  TYR39       0.1957
     61  OH         5.2750  -17.0430    2.0040 O.3    39  TYR39      -0.2866
     62  N          7.5910  -16.3350   -2.2020 N.3    78  CYS78      -0.1235
     63  CA         7.9150  -14.9230   -2.1000 C.3    78  CYS78       0.1677
     64  C          7.5810  -14.1850   -3.3920 C.2    78  CYS78       0.2270
     65  O          7.0230  -13.0790   -3.3560 O.2    78  CYS78      -0.2867
     66  CB         9.3900  -14.7830   -1.7340 C.3    78  CYS78       0.0956
     67  SG         9.9240  -13.1000   -1.4100 S.3    78  CYS78      -0.0801
     68  N          3.6730  -13.8940   -3.4560 N.3    81  TYR81      -0.1227
     69  CA         2.9780  -13.0220   -2.5140 C.3    81  TYR81       0.1736
     70  C          3.2890  -11.5440   -2.7240 C.2    81  TYR81       0.2595
     71  O          2.4150  -10.6930   -2.5150 O.2    81  TYR81      -0.2718
     72  CB         3.3180  -13.4040   -1.0700 C.3    81  TYR81       0.0548
     73  CG         2.4850  -12.6140   -0.0950 C.ar   81  TYR81      -0.0200
     74  CD1        1.1430  -12.9030    0.0850 C.ar   81  TYR81      -0.0009
     75  CD2        3.0290  -11.5450    0.6030 C.ar   81  TYR81      -0.0009
     76  CE1        0.3580  -12.1510    0.9540 C.ar   81  TYR81       0.0417
     77  CE2        2.2590  -10.7870    1.4710 C.ar   81  TYR81       0.0417
     78  CZ         0.9270  -11.1000    1.6440 C.ar   81  TYR81       0.1957
     79  OH         0.1510  -10.3450    2.5060 O.3    81  TYR81      -0.2866
     80  N          4.5110  -11.2160   -3.1300 N.am   82  ASN82      -0.1974
     81  CA         4.9950   -9.8470   -3.1080 C.3    82  ASN82       0.1688
     82  C          4.9900   -9.2300   -4.4960 C.2    82  ASN82       0.2292
     83  O          5.2260   -9.9100   -5.5020 O.2    82  ASN82      -0.2864
     84  CB         6.4030   -9.7950   -2.5140 C.3    82  ASN82       0.1181
     85  CG         6.4190  -10.2090   -1.0640 C.2    82  ASN82       0.2629
     86  OD1        5.9890   -9.4490   -0.1970 O.2    82  ASN82      -0.2716
     87  ND2        6.8790  -11.4170   -0.7910 N.am   82  ASN82      -0.0877
     88  N         11.4890   -7.5370   -1.3240 N.3    88  PHE88      -0.1241
     89  CA        11.2740   -8.9690   -1.1270 C.3    88  PHE88       0.1605
     90  C         11.2730   -9.7180   -2.4530 C.2    88  PHE88       0.2264
     91  O         11.9290  -10.7550   -2.5950 O.2    88  PHE88      -0.2867
     92  CB         9.9540   -9.2280   -0.3930 C.3    88  PHE88       0.0534
     93  CG        10.0040   -8.9430    1.0860 C.ar   88  PHE88      -0.0203
     94  CD1       11.2160   -8.8060    1.7480 C.ar   88  PHE88      -0.0042
     95  CD2        8.8330   -8.8030    1.8110 C.ar   88  PHE88      -0.0042
     96  CE1       11.2560   -8.5480    3.1110 C.ar   88  PHE88      -0.0003
     97  CE2        8.8670   -8.5400    3.1750 C.ar   88  PHE88      -0.0003
     98  CZ        10.0810   -8.4140    3.8220 C.ar   88  PHE88      -0.0000
@<TRIPOS>BOND
     1    83    82    2
     2    82    81    1
     3    68    69    1
     4    64    65    2
     5    64    63    1
     6    80    81    1
     7    80    70   am
     8    81    84    1
     9    70    71    2
    10    70    69    1
    11    91    90    2
    12    84    85    1
    13    69    72    1
    14    90    89    1
    15    62    63    1
    16    63    66    1
    17    66    67    1
    18    88    89    1
    19    89    92    1
    20    72    73    1
    21    85    87   am
    22    85    86    2
    23    92    93    1
    24    73    74   ar
    25    73    75   ar
    26    19    18   ar
    27    19    17   ar
    28    74    76   ar
    29    18    16   ar
    30    75    77   ar
    31    17    15   ar
    32    76    78   ar
    33    93    94   ar
    34    93    95   ar
    35    16    14   ar
    36    77    78   ar
    37    78    79    1
    38    94    96   ar
    39     8     6    1
    40    95    97   ar
    41    15    14   ar
    42    53    52    2
    43    61    60    1
    44    14    13    1
    45    58    60   ar
    46    58    56   ar
    47    60    59   ar
    48     6     5    1
    49    56    55   ar
    50    52    51    1
    51    96    98   ar
    52    97    98   ar
    53    13    10    1
    54    59    57   ar
    55    51    50    1
    56    51    54    1
    57    55    57   ar
    58    55    54    1
    59     5     7    1
    60     5     2    1
    61    10     9    1
    62    10    11    1
    63     9     3   am
    64    26    24    1
    65    48    47    1
    66     3     2    1
    67     3     4    2
    68     2     1    1
    69    12    11    2
    70    25    24    1
    71    24    21    1
    72    47    49    1
    73    47    44    1
    74    46    45    2
    75    45    44    1
    76    44    43    1
    77    21    20    1
    78    21    22    1
    79    22    23    2
    80    22    27   am
    81    37    36    2
    82    43    36   am
    83    33    27    1
    84    33    32    1
    85    36    35    1
    86    27    28    1
    87    30    29    2
    88    32    31    1
    89    29    28    1
    90    28    31    1
    91    35    38    1
    92    35    34    1
    93    38    39    1
    94    42    40   ar
    95    39    40    1
    96    40    41   ar
