@<TRIPOS>MOLECULE
tmp/5o4vB02.pdb
 141 133 0 0 0
SMALL
GASTEIGER

@<TRIPOS>ATOM
      1  N          9.0630   23.2260   26.5250 N.3    71  VAL71      -0.1231
      2  CA         9.3730   24.3930   27.3490 C.3    71  VAL71       0.1692
      3  C         10.3800   25.3320   26.6770 C.2    71  VAL71       0.2592
      4  O         11.4930   24.9100   26.2640 O.2    71  VAL71      -0.2718
      5  CB         9.9800   23.9650   28.7100 C.3    71  VAL71       0.0266
      6  CG1       10.1010   25.1710   29.6290 C.3    71  VAL71       0.0020
      7  CG2        9.1390   22.8460   29.3540 C.3    71  VAL71       0.0020
      8  N          9.9860   26.5940   26.6160 N.am   72  GLU72      -0.1966
      9  CA        10.8730   27.7250   26.2880 C.3    72  GLU72       0.1733
     10  C         11.1670   28.5350   27.5270 C.2    72  GLU72       0.2616
     11  O         10.3620   28.5330   28.4860 O.2    72  GLU72      -0.2715
     12  CB        10.1850   28.5880   25.2070 C.3    72  GLU72       0.0429
     13  CG         9.9270   27.7410   23.9490 C.3    72  GLU72       0.1163
     14  CD         9.2360   28.5140   22.8340 C.2    72  GLU72       0.3649
     15  OE1        9.1000   29.7520   22.9730 O.co2  72  GLU72      -0.2457
     16  OE2        8.8690   27.8980   21.8180 O.co2  72  GLU72      -0.2457
     17  N         12.3080   29.2230   27.5500 N.am   73  ASP73      -0.1971
     18  CA        12.6450   30.1830   28.6100 C.3    73  ASP73       0.1709
     19  C         11.7510   31.3760   28.4320 C.2    73  ASP73       0.2293
     20  O         11.1870   31.5370   27.3570 O.2    73  ASP73      -0.2864
     21  CB        14.1320   30.6630   28.4770 C.3    73  ASP73       0.1436
     22  CG        14.3670   31.4410   27.2060 C.2    73  ASP73       0.3671
     23  OD1       14.2800   30.8430   26.1120 O.co2  73  ASP73      -0.2456
     24  OD2       14.6390   32.6580   27.2880 O.co2  73  ASP73      -0.2456
     25  N         15.4130   30.1200   23.8780 N.3    78  PHE78      -0.1241
     26  CA        15.6620   28.6880   23.9060 C.3    78  PHE78       0.1605
     27  C         14.3900   27.8600   23.9370 C.2    78  PHE78       0.2264
     28  O         13.3990   28.2720   24.5690 O.2    78  PHE78      -0.2867
     29  CB        16.4400   28.3270   25.1980 C.3    78  PHE78       0.0534
     30  CG        17.8280   28.9660   25.3020 C.ar   78  PHE78      -0.0203
     31  CD1       18.8650   28.6050   24.4370 C.ar   78  PHE78      -0.0042
     32  CD2       18.1220   29.8360   26.3640 C.ar   78  PHE78      -0.0042
     33  CE1       20.1380   29.1660   24.5510 C.ar   78  PHE78      -0.0003
     34  CE2       19.3930   30.3900   26.5140 C.ar   78  PHE78      -0.0003
     35  CZ        20.4160   30.0310   25.6230 C.ar   78  PHE78      -0.0000
     36  N         13.7870   23.6070   24.9720 N.3    80  PHE80      -0.1241
     37  CA        14.4300   22.3500   25.3080 C.3    80  PHE80       0.1605
     38  C         14.3600   21.4010   24.1240 C.2    80  PHE80       0.2264
     39  O         13.3550   21.3830   23.3770 O.2    80  PHE80      -0.2867
     40  CB        13.8100   21.6690   26.5340 C.3    80  PHE80       0.0534
     41  CG        14.1340   22.2990   27.8510 C.ar   80  PHE80      -0.0203
     42  CD1       15.4430   22.6880   28.1740 C.ar   80  PHE80      -0.0042
     43  CD2       13.1460   22.3700   28.8560 C.ar   80  PHE80      -0.0042
     44  CE1       15.7180   23.2390   29.4150 C.ar   80  PHE80      -0.0003
     45  CE2       13.4450   22.8860   30.1070 C.ar   80  PHE80      -0.0003
     46  CZ        14.7250   23.3490   30.3760 C.ar   80  PHE80      -0.0000
     47  N         17.5320   28.2770   39.5770 N.3   186  TYR186     -0.1241
     48  CA        18.6220   27.6890   38.8140 C.3   186  TYR186      0.1605
     49  C         19.7330   28.7030   38.5790 C.2   186  TYR186      0.2264
     50  O         19.4760   29.9080   38.5340 O.2   186  TYR186     -0.2867
     51  CB        18.0670   27.1060   37.4960 C.3   186  TYR186      0.0534
     52  CG        16.9450   27.8530   36.8140 C.ar  186  TYR186     -0.0201
     53  CD1       15.6160   27.4690   36.9940 C.ar  186  TYR186     -0.0009
     54  CD2       17.2130   28.8850   35.9030 C.ar  186  TYR186     -0.0009
     55  CE1       14.6070   28.1310   36.3380 C.ar  186  TYR186      0.0417
     56  CE2       16.2000   29.5600   35.2340 C.ar  186  TYR186      0.0417
     57  CZ        14.9030   29.1700   35.4750 C.ar  186  TYR186      0.1957
     58  OH        13.8660   29.7810   34.8320 O.3   186  TYR186     -0.2866
     59  N         23.8210   29.1870   36.4760 N.3   188  HIS188     -0.1241
     60  CA        24.4440   28.8160   35.2020 C.3   188  HIS188      0.1621
     61  C         25.9070   29.1040   35.3140 C.2   188  HIS188      0.2264
     62  O         26.3180   30.2550   35.6510 O.2   188  HIS188     -0.2867
     63  CB        23.8900   29.7330   34.1060 C.3   188  HIS188      0.0745
     64  CG        22.3910   29.7080   33.9950 C.ar  188  HIS188      0.0817
     65  ND1       21.6870   28.5840   33.6160 N.ar  188  HIS188     -0.2268
     66  CD2       21.4630   30.6750   34.2240 C.ar  188  HIS188      0.1154
     67  CE1       20.3850   28.8640   33.6160 C.ar  188  HIS188      0.1986
     68  NE2       20.2230   30.1220   33.9820 N.ar  188  HIS188     -0.2212
     69  N         27.9270   31.9010   24.3090 N.3   196  LEU196     -0.1245
     70  CA        26.8810   32.4250   25.2070 C.3   196  LEU196      0.1561
     71  C         26.6120   33.9630   25.0420 C.2   196  LEU196      0.2260
     72  O         25.4620   34.4240   25.1300 O.2   196  LEU196     -0.2867
     73  CB        27.2900   32.0610   26.6550 C.3   196  LEU196      0.0270
     74  CG        27.0280   30.5890   26.9930 C.3   196  LEU196      0.0019
     75  CD1       27.7550   30.2640   28.2810 C.3   196  LEU196      0.0001
     76  CD2       25.5190   30.2810   27.1120 C.3   196  LEU196      0.0001
     77  N         22.7510   35.5390   25.5800 N.3   201  PHE201     -0.1241
     78  CA        22.3990   35.1140   26.9060 C.3   201  PHE201      0.1605
     79  C         23.2310   35.8650   27.9330 C.2   201  PHE201      0.2264
     80  O         22.7090   36.2510   28.9770 O.2   201  PHE201     -0.2867
     81  CB        22.5200   33.5860   27.1230 C.3   201  PHE201      0.0534
     82  CG        22.4680   33.2120   28.5660 C.ar  201  PHE201     -0.0203
     83  CD1       23.6530   32.9900   29.2910 C.ar  201  PHE201     -0.0042
     84  CD2       21.2400   33.1940   29.2440 C.ar  201  PHE201     -0.0042
     85  CE1       23.6250   32.7070   30.6680 C.ar  201  PHE201     -0.0003
     86  CE2       21.2010   32.9060   30.6100 C.ar  201  PHE201     -0.0003
     87  CZ        22.3960   32.6630   31.3230 C.ar  201  PHE201     -0.0000
     88  N         19.3860   22.7990   24.3390 N.3   294  SER294     -0.1217
     89  CA        18.2880   23.6790   23.9740 C.3   294  SER294      0.1889
     90  C         18.4970   24.0980   22.5110 C.2   294  SER294      0.2288
     91  O         19.6170   24.3550   22.0840 O.2   294  SER294     -0.2866
     92  CB        18.2250   24.9060   24.8570 C.3   294  SER294      0.2089
     93  OG        17.6470   24.5450   26.0920 O.3   294  SER294     -0.2183
     94  N         22.4550   24.9450   21.9400 N.3   305  LEU305     -0.1245
     95  CA        23.3150   25.1920   23.0930 C.3   305  LEU305      0.1561
     96  C         23.3940   23.8310   23.8340 C.2   305  LEU305      0.2260
     97  O         22.3600   23.2910   24.2670 O.2   305  LEU305     -0.2867
     98  CB        22.6860   26.2360   24.0170 C.3   305  LEU305      0.0270
     99  CG        23.6560   26.6170   25.1390 C.3   305  LEU305      0.0019
    100  CD1       24.7230   27.5670   24.6000 C.3   305  LEU305      0.0001
    101  CD2       22.9430   27.3050   26.2510 C.3   305  LEU305      0.0001
    102  N         24.0170   21.7940   27.0170 N.3   307  ALA307     -0.1245
    103  CA        24.0440   22.1070   28.4450 C.3   307  ALA307      0.1562
    104  C         24.0730   20.8440   29.2960 C.2   307  ALA307      0.2260
    105  O         23.3240   19.8980   29.0380 O.2   307  ALA307     -0.2867
    106  CB        22.8220   22.9480   28.7890 C.3   307  ALA307      0.0290
    107  N         23.4070   19.3160   33.0220 N.3   309  TYR309     -0.1241
    108  CA        22.5920   19.5700   34.2050 C.3   309  TYR309      0.1605
    109  C         23.0630   18.7220   35.3430 C.2   309  TYR309      0.2264
    110  O         23.0670   17.5290   35.2770 O.2   309  TYR309     -0.2867
    111  CB        21.0910   19.1980   33.9080 C.3   309  TYR309      0.0534
    112  CG        20.4460   20.2800   33.0340 C.ar  309  TYR309     -0.0201
    113  CD1       20.7210   20.3570   31.6660 C.ar  309  TYR309     -0.0009
    114  CD2       19.6290   21.2730   33.5800 C.ar  309  TYR309     -0.0009
    115  CE1       20.2260   21.4000   30.8630 C.ar  309  TYR309      0.0417
    116  CE2       19.0690   22.3200   32.7710 C.ar  309  TYR309      0.0417
    117  CZ        19.3660   22.3570   31.4220 C.ar  309  TYR309      0.1957
    118  OH        18.8750   23.3850   30.6310 O.3   309  TYR309     -0.2866
    119  N         27.7170   25.0070   28.8310 N.3   338  VAL338     -0.1245
    120  CA        27.2720   25.6110   30.1100 C.3   338  VAL338      0.1561
    121  C         26.9270   24.4270   31.0510 C.2   338  VAL338      0.2260
    122  O         26.6150   23.3390   30.6010 O.2   338  VAL338     -0.2867
    123  CB        26.0140   26.5440   29.9640 C.3   338  VAL338      0.0252
    124  CG1       24.6950   25.8280   29.5270 C.3   338  VAL338      0.0019
    125  CG2       25.7700   27.4270   31.1990 C.3   338  VAL338      0.0019
    126  N         24.5420   23.7520   34.3370 N.3   340  ASN340     -0.1240
    127  CA        23.3750   24.2660   35.0780 C.3   340  ASN340      0.1653
    128  C         23.0970   23.4930   36.3720 C.2   340  ASN340      0.2266
    129  O         23.1610   22.2630   36.4060 O.2   340  ASN340     -0.2867
    130  CB        22.1500   24.1380   34.1610 C.3   340  ASN340      0.1155
    131  CG        22.1650   25.1570   33.0020 C.2   340  ASN340      0.2627
    132  OD1       22.8920   26.1340   33.0410 O.2   340  ASN340     -0.2716
    133  ND2       21.3260   24.9360   31.9700 N.am  340  ASN340     -0.0877
    134  N         17.1920   33.4760   35.7120 N.3   360  ASP360     -0.1239
    135  CA        16.0500   34.3940   35.6870 C.3   360  ASP360      0.1674
    136  C         14.7550   33.7900   36.2840 C.2   360  ASP360      0.2266
    137  O         13.7150   34.4300   36.2480 O.2   360  ASP360     -0.2867
    138  CB        15.8340   34.9440   34.2550 C.3   360  ASP360      0.1410
    139  CG        16.8790   36.0060   33.8580 C.2   360  ASP360      0.3668
    140  OD1       17.5990   36.5080   34.7550 O.co2 360  ASP360     -0.2456
    141  OD2       16.9760   36.3350   32.6490 O.co2 360  ASP360     -0.2456
@<TRIPOS>BOND
     1    16    14   ar
     2    94    95    1
     3    91    90    2
     4    90    89    1
     5    14    15   ar
     6    14    13    1
     7    95    96    1
     8    95    98    1
     9    39    38    2
    10    96    97    2
    11    25    26    1
    12    26    27    1
    13    26    29    1
    14    27    28    2
    15    13    12    1
    16    89    88    1
    17    89    92    1
    18    98    99    1
    19    38    37    1
    20    69    70    1
    21    31    33   ar
    22    31    30   ar
    23    33    35   ar
    24   100    99    1
    25    92    93    1
    26    36    37    1
    27    71    72    2
    28    71    70    1
    29    99   101    1
    30    29    30    1
    31    12     9    1
    32    70    73    1
    33    30    32   ar
    34    37    40    1
    35    77    78    1
    36    35    34   ar
    37    23    22   ar
    38     4     3    2
    39     9     8    1
    40     9    10    1
    41    32    34   ar
    42     1     2    1
    43    40    41    1
    44     8     3   am
    45    73    74    1
    46     3     2    1
    47    78    81    1
    48    78    79    1
    49    74    76    1
    50    74    75    1
    51   102   103    1
    52    81    82    1
    53    22    24   ar
    54    22    21    1
    55     2     5    1
    56    20    19    2
    57    10    17   am
    58    10    11    2
    59    17    18    1
    60    41    42   ar
    61    41    43   ar
    62    79    80    2
    63    42    44   ar
    64    19    18    1
    65   103   106    1
    66   103   104    1
    67    21    18    1
    68    82    84   ar
    69    82    83   ar
    70     5     7    1
    71     5     6    1
    72   119   120    1
    73    43    45   ar
    74   105   104    2
    75    84    86   ar
    76    83    85   ar
    77    44    46   ar
    78   124   123    1
    79   123   120    1
    80   123   125    1
    81    45    46   ar
    82   120   121    1
    83   122   121    2
    84    86    87   ar
    85   118   117    1
    86    85    87   ar
    87   115   117   ar
    88   115   113   ar
    89   117   116   ar
    90   113   112   ar
    91   133   131   am
    92   141   139   ar
    93   116   114   ar
    94   131   132    2
    95   131   130    1
    96   107   108    1
    97   112   114   ar
    98   112   111    1
    99    65    67   ar
   100    65    64   ar
   101    67    68   ar
   102   139   138    1
   103   139   140   ar
   104   111   108    1
   105    68    66   ar
   106    64    63    1
   107    64    66   ar
   108    63    60    1
   109   130   127    1
   110   108   109    1
   111   138   135    1
   112   126   127    1
   113    58    57    1
   114   127   128    1
   115    60    61    1
   116    60    59    1
   117    56    57   ar
   118    56    54   ar
   119   110   109    2
   120    61    62    2
   121    57    55   ar
   122   135   134    1
   123   135   136    1
   124    54    52   ar
   125   137   136    2
   126    55    53   ar
   127   128   129    2
   128    52    53   ar
   129    52    51    1
   130    51    48    1
   131    50    49    2
   132    49    48    1
   133    48    47    1
