@<TRIPOS>MOLECULE
tmp/5o4vB01.pdb
 165 159 0 0 0
SMALL
GASTEIGER

@<TRIPOS>ATOM
      1  N          7.8320   22.0540   23.2090 N.3    70  TYR70      -0.1227
      2  CA         8.0250   21.9180   24.6890 C.3    70  TYR70       0.1736
      3  C          8.5260   23.2640   25.3000 C.2    70  TYR70       0.2595
      4  O          8.3610   24.3260   24.6640 O.2    70  TYR70      -0.2718
      5  CB         8.9330   20.7390   25.0050 C.3    70  TYR70       0.0548
      6  CG         8.8180   20.1740   26.3730 C.ar   70  TYR70      -0.0200
      7  CD1        7.5790   19.8560   26.9110 C.ar   70  TYR70      -0.0009
      8  CD2        9.9560   19.9510   27.1320 C.ar   70  TYR70      -0.0009
      9  CE1        7.4660   19.3230   28.1820 C.ar   70  TYR70       0.0417
     10  CE2        9.8790   19.3760   28.4200 C.ar   70  TYR70       0.0417
     11  CZ         8.6140   19.0840   28.9260 C.ar   70  TYR70       0.1957
     12  OH         8.5250   18.5410   30.2230 O.3    70  TYR70      -0.2866
     13  N          9.0630   23.2260   26.5250 N.am   71  VAL71      -0.1980
     14  CA         9.3730   24.3930   27.3490 C.3    71  VAL71       0.1595
     15  C         10.3800   25.3320   26.6770 C.2    71  VAL71       0.2287
     16  O         11.4930   24.9100   26.2640 O.2    71  VAL71      -0.2864
     17  CB         9.9800   23.9650   28.7100 C.3    71  VAL71       0.0276
     18  CG1       10.1010   25.1710   29.6290 C.3    71  VAL71       0.0022
     19  CG2        9.1390   22.8460   29.3540 C.3    71  VAL71       0.0022
     20  N         13.7870   23.6070   24.9720 N.3    80  PHE80      -0.1241
     21  CA        14.4300   22.3500   25.3080 C.3    80  PHE80       0.1605
     22  C         14.3600   21.4010   24.1240 C.2    80  PHE80       0.2264
     23  O         13.3550   21.3830   23.3770 O.2    80  PHE80      -0.2867
     24  CB        13.8100   21.6690   26.5340 C.3    80  PHE80       0.0534
     25  CG        14.1340   22.2990   27.8510 C.ar   80  PHE80      -0.0203
     26  CD1       15.4430   22.6880   28.1740 C.ar   80  PHE80      -0.0042
     27  CD2       13.1460   22.3700   28.8560 C.ar   80  PHE80      -0.0042
     28  CE1       15.7180   23.2390   29.4150 C.ar   80  PHE80      -0.0003
     29  CE2       13.4450   22.8860   30.1070 C.ar   80  PHE80      -0.0003
     30  CZ        14.7250   23.3490   30.3760 C.ar   80  PHE80      -0.0000
     31  N         15.2790   17.6990   24.0950 N.3    82  TYR82      -0.1241
     32  CA        15.6200   16.3720   24.6240 C.3    82  TYR82       0.1605
     33  C         15.8170   15.4170   23.4420 C.2    82  TYR82       0.2264
     34  O         15.0770   15.4710   22.4580 O.2    82  TYR82      -0.2867
     35  CB        14.4560   15.7990   25.4500 C.3    82  TYR82       0.0534
     36  CG        14.2300   16.4760   26.8080 C.ar   82  TYR82      -0.0201
     37  CD1       13.3820   17.5770   26.9300 C.ar   82  TYR82      -0.0009
     38  CD2       14.8450   15.9490   27.9810 C.ar   82  TYR82      -0.0009
     39  CE1       13.1670   18.1750   28.1740 C.ar   82  TYR82       0.0417
     40  CE2       14.6270   16.5410   29.2210 C.ar   82  TYR82       0.0417
     41  CZ        13.7660   17.6380   29.3280 C.ar   82  TYR82       0.1957
     42  OH        13.5190   18.1950   30.5870 O.3    82  TYR82      -0.2866
     43  N          6.0530   13.7540   33.9440 N.3   136  ASN136     -0.1240
     44  CA         6.9300   14.6310   33.1520 C.3   136  ASN136      0.1653
     45  C          6.4950   14.6590   31.7010 C.2   136  ASN136      0.2266
     46  O          5.6810   13.8470   31.2820 O.2   136  ASN136     -0.2867
     47  CB         8.3410   14.1050   33.2340 C.3   136  ASN136      0.1155
     48  CG         9.3810   15.1880   33.2050 C.2   136  ASN136      0.2627
     49  OD1        9.1890   16.3170   32.6990 O.2   136  ASN136     -0.2716
     50  ND2       10.4850   14.8800   33.8380 N.am  136  ASN136     -0.0877
     51  N          7.4940   18.6600   38.7120 N.3   172  THR172     -0.1203
     52  CA         8.1240   19.9530   38.8280 C.3   172  THR172      0.1994
     53  C          7.6370   20.7870   37.6720 C.2   172  THR172      0.2618
     54  O          7.2450   20.2580   36.6490 O.2   172  THR172     -0.2717
     55  CB         9.7110   19.8920   38.7070 C.3   172  THR172      0.1784
     56  OG1       10.0750   19.1450   37.5180 O.3   172  THR172     -0.2211
     57  CG2       10.2920   19.2790   39.9670 C.3   172  THR172      0.0376
     58  N          7.6250   22.0920   37.8450 N.am  173  ALA173     -0.1965
     59  CA         7.2820   23.0290   36.7270 C.3   173  ALA173      0.1728
     60  C          7.9460   24.3600   37.0090 C.2   173  ALA173      0.2616
     61  O          8.2650   24.6900   38.1850 O.2   173  ALA173     -0.2715
     62  CB         5.7550   23.2380   36.5970 C.3   173  ALA173      0.0334
     63  N          8.1480   25.1370   35.9360 N.am  174  GLY174     -0.1955
     64  CA         8.5980   26.5070   36.0630 C.3   174  GLY174      0.1869
     65  C          7.5160   27.4620   36.4780 C.2   174  GLY174      0.2309
     66  O          7.7950   28.4820   37.0850 O.2   174  GLY174     -0.2863
     67  N         17.5320   28.2770   39.5770 N.3   186  TYR186     -0.1241
     68  CA        18.6220   27.6890   38.8140 C.3   186  TYR186      0.1605
     69  C         19.7330   28.7030   38.5790 C.2   186  TYR186      0.2264
     70  O         19.4760   29.9080   38.5340 O.2   186  TYR186     -0.2867
     71  CB        18.0670   27.1060   37.4960 C.3   186  TYR186      0.0534
     72  CG        16.9450   27.8530   36.8140 C.ar  186  TYR186     -0.0201
     73  CD1       15.6160   27.4690   36.9940 C.ar  186  TYR186     -0.0009
     74  CD2       17.2130   28.8850   35.9030 C.ar  186  TYR186     -0.0009
     75  CE1       14.6070   28.1310   36.3380 C.ar  186  TYR186      0.0417
     76  CE2       16.2000   29.5600   35.2340 C.ar  186  TYR186      0.0417
     77  CZ        14.9030   29.1700   35.4750 C.ar  186  TYR186      0.1957
     78  OH        13.8660   29.7810   34.8320 O.3   186  TYR186     -0.2866
     79  N         23.8210   29.1870   36.4760 N.3   188  HIS188     -0.1241
     80  CA        24.4440   28.8160   35.2020 C.3   188  HIS188      0.1621
     81  C         25.9070   29.1040   35.3140 C.2   188  HIS188      0.2264
     82  O         26.3180   30.2550   35.6510 O.2   188  HIS188     -0.2867
     83  CB        23.8900   29.7330   34.1060 C.3   188  HIS188      0.0745
     84  CG        22.3910   29.7080   33.9950 C.ar  188  HIS188      0.0817
     85  ND1       21.6870   28.5840   33.6160 N.ar  188  HIS188     -0.2268
     86  CD2       21.4630   30.6750   34.2240 C.ar  188  HIS188      0.1154
     87  CE1       20.3850   28.8640   33.6160 C.ar  188  HIS188      0.1986
     88  NE2       20.2230   30.1220   33.9820 N.ar  188  HIS188     -0.2212
     89  N         23.3560   15.2220   33.4710 N.3   290  TYR290     -0.1241
     90  CA        22.6840   14.7070   32.2720 C.3   290  TYR290      0.1605
     91  C         22.7890   15.7250   31.1410 C.2   290  TYR290      0.2264
     92  O         23.0300   16.9030   31.3980 O.2   290  TYR290     -0.2867
     93  CB        21.2400   14.2390   32.5360 C.3   290  TYR290      0.0534
     94  CG        20.2660   15.2830   33.0310 C.ar  290  TYR290     -0.0201
     95  CD1       19.5250   16.0950   32.1390 C.ar  290  TYR290     -0.0009
     96  CD2       20.0740   15.4530   34.4060 C.ar  290  TYR290     -0.0009
     97  CE1       18.6170   17.0260   32.6470 C.ar  290  TYR290      0.0417
     98  CE2       19.1780   16.4060   34.9350 C.ar  290  TYR290      0.0417
     99  CZ        18.4480   17.1760   34.0580 C.ar  290  TYR290      0.1957
    100  OH        17.5600   18.1040   34.5680 O.3   290  TYR290     -0.2866
    101  N         21.0710   17.9060   28.2970 N.3   292  LEU292     -0.1245
    102  CA        19.7950   18.4410   27.8050 C.3   292  LEU292      0.1561
    103  C         20.0660   19.6480   26.8950 C.2   292  LEU292      0.2260
    104  O         20.1980   20.7850   27.4210 O.2   292  LEU292     -0.2867
    105  CB        18.8910   18.8480   28.9740 C.3   292  LEU292      0.0270
    106  CG        17.5800   19.5740   28.6150 C.3   292  LEU292      0.0019
    107  CD1       16.8770   18.8020   27.4890 C.3   292  LEU292      0.0001
    108  CD2       16.6680   19.6700   29.8500 C.3   292  LEU292      0.0001
    109  N         23.4070   19.3160   33.0220 N.3   309  TYR309     -0.1241
    110  CA        22.5920   19.5700   34.2050 C.3   309  TYR309      0.1605
    111  C         23.0630   18.7220   35.3430 C.2   309  TYR309      0.2264
    112  O         23.0670   17.5290   35.2770 O.2   309  TYR309     -0.2867
    113  CB        21.0910   19.1980   33.9080 C.3   309  TYR309      0.0534
    114  CG        20.4460   20.2800   33.0340 C.ar  309  TYR309     -0.0201
    115  CD1       20.7210   20.3570   31.6660 C.ar  309  TYR309     -0.0009
    116  CD2       19.6290   21.2730   33.5800 C.ar  309  TYR309     -0.0009
    117  CE1       20.2260   21.4000   30.8630 C.ar  309  TYR309      0.0417
    118  CE2       19.0690   22.3200   32.7710 C.ar  309  TYR309      0.0417
    119  CZ        19.3660   22.3570   31.4220 C.ar  309  TYR309      0.1957
    120  OH        18.8750   23.3850   30.6310 O.3   309  TYR309     -0.2866
    121  N         24.5420   23.7520   34.3370 N.3   340  ASN340     -0.1225
    122  CA        23.3750   24.2660   35.0780 C.3   340  ASN340      0.1785
    123  C         23.0970   23.4930   36.3720 C.2   340  ASN340      0.2597
    124  O         23.1610   22.2630   36.4060 O.2   340  ASN340     -0.2718
    125  CB        22.1500   24.1380   34.1610 C.3   340  ASN340      0.1169
    126  CG        22.1650   25.1570   33.0020 C.2   340  ASN340      0.2627
    127  OD1       22.8920   26.1340   33.0410 O.2   340  ASN340     -0.2716
    128  ND2       21.3260   24.9360   31.9700 N.am  340  ASN340     -0.0877
    129  N         22.7100   24.2120   37.4200 N.am  341  ALA341     -0.1966
    130  CA        22.4100   23.5190   38.6790 C.3   341  ALA341      0.1728
    131  C         21.3250   24.3110   39.3830 C.2   341  ALA341      0.2616
    132  O         21.1970   25.5160   39.1710 O.2   341  ALA341     -0.2715
    133  CB        23.6740   23.4890   39.5540 C.3   341  ALA341      0.0334
    134  N         20.5180   23.5910   40.1450 N.am  342  LEU342     -0.1977
    135  CA        19.5650   24.2040   41.0590 C.3   342  LEU342      0.1596
    136  C         20.1060   24.3640   42.4770 C.2   342  LEU342      0.2287
    137  O         20.9880   23.5840   42.8960 O.2   342  LEU342     -0.2864
    138  CB        18.3820   23.2840   41.1210 C.3   342  LEU342      0.0297
    139  CG        17.5110   23.1880   39.8600 C.3   342  LEU342      0.0022
    140  CD1       16.6560   21.9070   39.9860 C.3   342  LEU342      0.0001
    141  CD2       16.6550   24.4360   39.6570 C.3   342  LEU342      0.0001
    142  N         12.5380   26.4980   39.5530 N.3   363  LEU363     -0.1245
    143  CA        11.7370   25.2630   39.3390 C.3   363  LEU363      0.1561
    144  C         11.0450   24.9090   40.6390 C.2   363  LEU363      0.2260
    145  O         11.6810   24.7560   41.7190 O.2   363  LEU363     -0.2867
    146  CB        12.5780   24.0980   38.8690 C.3   363  LEU363      0.0270
    147  CG        11.9060   22.7630   38.5290 C.3   363  LEU363      0.0019
    148  CD1       11.3040   22.8610   37.1290 C.3   363  LEU363      0.0001
    149  CD2       12.8490   21.5470   38.6260 C.3   363  LEU363      0.0001
    150  N         14.5210   16.1950   39.0350 N.3   384  LEU384     -0.1231
    151  CA        13.6780   15.5860   37.9930 C.3   384  LEU384      0.1693
    152  C         14.1410   16.0850   36.6450 C.2   384  LEU384      0.2591
    153  O         14.6810   17.1880   36.5450 O.2   384  LEU384     -0.2718
    154  CB        12.1850   15.8990   38.1700 C.3   384  LEU384      0.0284
    155  CG        11.4520   14.9810   39.1380 C.3   384  LEU384      0.0019
    156  CD1       11.5590   15.5280   40.5540 C.3   384  LEU384      0.0001
    157  CD2        9.9900   14.9310   38.7040 C.3   384  LEU384      0.0001
    158  N         13.9850   15.2600   35.6260 N.am  385  LEU385     -0.1980
    159  CA        14.6770   15.5200   34.3630 C.3   385  LEU385      0.1596
    160  C         13.9910   16.6260   33.5830 C.2   385  LEU385      0.2287
    161  O         12.7430   16.7000   33.6500 O.2   385  LEU385     -0.2864
    162  CB        14.7510   14.2320   33.5130 C.3   385  LEU385      0.0297
    163  CG        15.4340   13.0370   34.2030 C.3   385  LEU385      0.0022
    164  CD1       15.2940   11.8610   33.3080 C.3   385  LEU385      0.0001
    165  CD2       16.9410   13.2900   34.4180 C.3   385  LEU385      0.0001
@<TRIPOS>BOND
     1    34    33    2
     2     1     2    1
     3    23    22    2
     4    33    32    1
     5    31    32    1
     6    22    21    1
     7    32    35    1
     8     4     3    2
     9     2     5    1
    10     2     3    1
    11    20    21    1
    12     5     6    1
    13     3    13   am
    14    21    24    1
    15    35    36    1
    16    16    15    2
    17     6     7   ar
    18     6     8   ar
    19    13    14    1
    20    24    25    1
    21    15    14    1
    22    36    37   ar
    23    36    38   ar
    24   103   104    2
    25   103   102    1
    26     7     9   ar
    27    37    39   ar
    28     8    10   ar
    29    14    17    1
    30   107   106    1
    31   102   101    1
    32   102   105    1
    33    25    26   ar
    34    25    27   ar
    35    38    40   ar
    36    39    41   ar
    37    26    28   ar
    38     9    11   ar
    39    10    11   ar
    40   106   105    1
    41   106   108    1
    42    17    19    1
    43    17    18    1
    44    27    29   ar
    45    11    12    1
    46    40    41   ar
    47    41    42    1
    48    28    30   ar
    49    29    30   ar
    50   120   119    1
    51   117   119   ar
    52   117   115   ar
    53    91    92    2
    54    91    90    1
    55    46    45    2
    56   119   118   ar
    57   115   114   ar
    58    45    44    1
    59   128   126   am
    60    95    97   ar
    61    95    94   ar
    62    90    93    1
    63    90    89    1
    64    93    94    1
    65    97    99   ar
    66    49    48    2
    67   118   116   ar
    68   126   127    2
    69   126   125    1
    70   109   110    1
    71    94    96   ar
    72   114   116   ar
    73   114   113    1
    74    44    47    1
    75    44    43    1
    76    48    47    1
    77    48    50   am
    78   164   163    1
    79   162   163    1
    80   162   159    1
    81   160   161    2
    82   160   159    1
    83    87    85   ar
    84    87    88   ar
    85    85    84   ar
    86   113   110    1
    87    88    86   ar
    88    84    83    1
    89    84    86   ar
    90    99   100    1
    91    99    98   ar
    92    83    80    1
    93   125   122    1
    94   163   165    1
    95   110   111    1
    96   121   122    1
    97   159   158    1
    98    96    98   ar
    99    78    77    1
   100   122   123    1
   101    80    81    1
   102    80    79    1
   103    76    77   ar
   104    76    74   ar
   105   112   111    2
   106    81    82    2
   107    77    75   ar
   108   158   152   am
   109    74    72   ar
   110    63    64    1
   111    63    60   am
   112    64    65    1
   113    75    73   ar
   114   123   124    2
   115   123   129   am
   116    65    66    2
   117   153   152    2
   118    62    59    1
   119   152   151    1
   120    54    53    2
   121    59    60    1
   122    59    58    1
   123    72    73   ar
   124    72    71    1
   125    60    61    2
   126   148   147    1
   127   129   130    1
   128    71    68    1
   129    56    55    1
   130    53    58   am
   131    53    52    1
   132   151   154    1
   133   151   150    1
   134   154   155    1
   135   147   149    1
   136   147   146    1
   137    70    69    2
   138    69    68    1
   139   130   131    1
   140   130   133    1
   141   157   155    1
   142    55    52    1
   143    55    57    1
   144    51    52    1
   145    68    67    1
   146   146   143    1
   147   155   156    1
   148   132   131    2
   149   143   142    1
   150   143   144    1
   151   131   134   am
   152   141   139    1
   153   139   140    1
   154   139   138    1
   155   134   135    1
   156   144   145    2
   157   135   138    1
   158   135   136    1
   159   136   137    2
