@<TRIPOS>MOLECULE
tmp/5o50A01.pdb
 208 199 0 0 0
SMALL
GASTEIGER

@<TRIPOS>ATOM
      1  N         32.9260   20.2210   39.3720 N.3    77  GLU77      -0.1245
      2  CA        31.5930   20.7020   38.9820 C.3    77  GLU77       0.1567
      3  C         30.6700   19.5500   38.6460 C.2    77  GLU77       0.2260
      4  O         31.0610   18.6160   37.9090 O.2    77  GLU77      -0.2867
      5  CB        31.6840   21.6500   37.7770 C.3    77  GLU77       0.0388
      6  CG        32.5700   22.8720   37.9960 C.3    77  GLU77       0.1160
      7  CD        32.4670   23.9180   36.9000 C.2    77  GLU77       0.3649
      8  OE1       31.5440   23.8560   36.0670 O.co2  77  GLU77      -0.2457
      9  OE2       33.3390   24.8000   36.8640 O.co2  77  GLU77      -0.2457
     10  N         29.3460   25.6610   36.0330 N.3   122  ASN122     -0.1240
     11  CA        29.3160   26.8710   35.2210 C.3   122  ASN122      0.1653
     12  C         28.5360   26.7160   33.9230 C.2   122  ASN122      0.2266
     13  O         27.9550   27.6640   33.4380 O.2   122  ASN122     -0.2867
     14  CB        30.7450   27.2310   34.8850 C.3   122  ASN122      0.1155
     15  CG        31.3760   28.0550   35.9820 C.2   122  ASN122      0.2627
     16  OD1       31.0510   29.2320   36.1050 O.2   122  ASN122     -0.2716
     17  ND2       32.2120   27.4280   36.8160 N.am  122  ASN122     -0.0877
     18  N         28.8130   23.7650   30.3820 N.3   124  GLY124     -0.1210
     19  CA        28.9540   22.4940   29.6880 C.3   124  GLY124      0.1956
     20  C         29.7200   21.3840   30.3920 C.2   124  GLY124      0.2611
     21  O         29.3010   20.2380   30.4030 O.2   124  GLY124     -0.2717
     22  N         30.8530   21.7350   30.9800 N.am  125  LEU125     -0.1979
     23  CA        31.6870   20.7720   31.6820 C.3   125  LEU125      0.1596
     24  C         30.9570   20.1910   32.8860 C.2   125  LEU125      0.2287
     25  O         30.9310   18.9700   33.0630 O.2   125  LEU125     -0.2864
     26  CB        33.0160   21.4020   32.0650 C.3   125  LEU125      0.0297
     27  CG        34.0070   20.5030   32.8170 C.3   125  LEU125      0.0022
     28  CD1       35.4400   20.7450   32.4210 C.3   125  LEU125      0.0001
     29  CD2       33.8800   20.7770   34.2880 C.3   125  LEU125      0.0001
     30  N         28.0040   18.0600   31.6890 N.3   128  LEU128     -0.1245
     31  CA        28.4720   16.7860   31.1390 C.3   128  LEU128      0.1561
     32  C         28.6790   15.7750   32.2510 C.2   128  LEU128      0.2260
     33  O         28.3080   14.6150   32.1190 O.2   128  LEU128     -0.2867
     34  CB        29.7890   16.9600   30.3790 C.3   128  LEU128      0.0270
     35  CG        30.2690   15.6900   29.6400 C.3   128  LEU128      0.0019
     36  CD1       29.5010   15.5060   28.3540 C.3   128  LEU128      0.0001
     37  CD2       31.7530   15.7690   29.3390 C.3   128  LEU128      0.0001
     38  N         33.8330   31.0350   36.6320 N.3   265  ASN265     -0.1225
     39  CA        34.4530   31.2270   35.3230 C.3   265  ASN265      0.1785
     40  C         34.2280   29.9930   34.4590 C.2   265  ASN265      0.2597
     41  O         34.4470   28.8540   34.9000 O.2   265  ASN265     -0.2718
     42  CB        35.9580   31.4240   35.4730 C.3   265  ASN265      0.1169
     43  CG        36.3170   32.5840   36.3650 C.2   265  ASN265      0.2627
     44  OD1       35.7450   33.6670   36.2400 O.2   265  ASN265     -0.2716
     45  ND2       37.2770   32.3670   37.2840 N.am  265  ASN265     -0.0877
     46  N         33.7940   30.2190   33.2310 N.am  266  ASP266     -0.1960
     47  CA        33.6080   29.1540   32.2700 C.3   266  ASP266      0.1840
     48  C         34.7690   29.2170   31.2760 C.2   266  ASP266      0.2622
     49  O         35.0190   30.2710   30.6920 O.2   266  ASP266     -0.2715
     50  CB        32.2780   29.3490   31.5430 C.3   266  ASP266      0.1450
     51  CG        32.0030   28.2430   30.5390 C.2   266  ASP266      0.3671
     52  OD1       31.3920   27.2370   30.9300 O.co2 266  ASP266     -0.2456
     53  OD2       32.3870   28.4000   29.3530 O.co2 266  ASP266     -0.2456
     54  N         35.4910   28.1040   31.1150 N.am  267  ASN267     -0.1958
     55  CA        36.5540   27.9810   30.1080 C.3   267  ASN267      0.1819
     56  C         37.5980   29.0730   30.3080 C.2   267  ASN267      0.2621
     57  O         37.9780   29.7580   29.3760 O.2   267  ASN267     -0.2715
     58  CB        35.9280   28.0340   28.6800 C.3   267  ASN267      0.1195
     59  CG        36.6830   27.2130   27.6310 C.2   267  ASN267      0.2630
     60  OD1       36.2260   27.0920   26.4990 O.2   267  ASN267     -0.2716
     61  ND2       37.7840   26.6410   27.9890 N.am  267  ASN267     -0.0877
     62  N         38.0530   29.2510   31.5530 N.am  268  PHE268     -0.1960
     63  CA        39.0130   30.2980   31.8750 C.3   268  PHE268      0.1771
     64  C         39.7270   29.9000   33.1560 C.2   268  PHE268      0.2619
     65  O         39.0740   29.4320   34.0780 O.2   268  PHE268     -0.2715
     66  CB        38.2990   31.6270   32.0910 C.3   268  PHE268      0.0574
     67  CG        39.2300   32.7680   32.3820 C.ar  268  PHE268     -0.0200
     68  CD1       39.9610   33.3470   31.3620 C.ar  268  PHE268     -0.0042
     69  CD2       39.3660   33.2720   33.6750 C.ar  268  PHE268     -0.0042
     70  CE1       40.8250   34.3980   31.6210 C.ar  268  PHE268     -0.0003
     71  CE2       40.2260   34.3310   33.9410 C.ar  268  PHE268     -0.0003
     72  CZ        40.9620   34.8880   32.9160 C.ar  268  PHE268     -0.0000
     73  N         41.0380   30.1000   33.2010 N.am  269  PHE269     -0.1974
     74  CA        41.8360   29.8060   34.3880 C.3   269  PHE269      0.1639
     75  C         42.1230   31.0630   35.1970 C.2   269  PHE269      0.2290
     76  O         42.7040   32.0200   34.6820 O.2   269  PHE269     -0.2864
     77  CB        43.1640   29.1720   33.9750 C.3   269  PHE269      0.0560
     78  CG        44.1430   28.9850   35.1010 C.ar  269  PHE269     -0.0200
     79  CD1       43.8210   28.1890   36.1940 C.ar  269  PHE269     -0.0042
     80  CD2       45.3960   29.5930   35.0620 C.ar  269  PHE269     -0.0042
     81  CE1       44.7340   27.9980   37.2320 C.ar  269  PHE269     -0.0003
     82  CE2       46.3100   29.3940   36.0920 C.ar  269  PHE269     -0.0003
     83  CZ        45.9730   28.5910   37.1710 C.ar  269  PHE269     -0.0000
     84  N         41.2330   28.5790   44.9650 N.3   275  ARG275     -0.1245
     85  CA        40.9530   27.5750   43.9520 C.3   275  ARG275      0.1563
     86  C         41.8670   26.3750   44.0560 C.2   275  ARG275      0.2260
     87  O         41.4140   25.2410   43.9520 O.2   275  ARG275     -0.2867
     88  CB        41.0330   28.2070   42.5710 C.3   275  ARG275      0.0307
     89  CG        40.8650   27.2630   41.4060 C.3   275  ARG275      0.0489
     90  CD        39.5210   26.5840   41.3900 C.3   275  ARG275      0.2205
     91  NE        39.3860   25.8480   40.1330 N.pl3 275  ARG275     -0.0865
     92  CZ        38.2510   25.4630   39.5590 C.cat 275  ARG275      0.5346
     93  NH1       37.0710   25.6840   40.1450 N.pl3 275  ARG275      0.1354
     94  NH2       38.3000   24.8410   38.3670 N.pl3 275  ARG275      0.1354
     95  N         39.0060   17.1720   33.1450 N.3   313  ASP313     -0.1239
     96  CA        39.9740   18.2200   32.8640 C.3   313  ASP313      0.1674
     97  C         41.1130   18.1510   33.8860 C.2   313  ASP313      0.2266
     98  O         41.2500   17.1470   34.5560 O.2   313  ASP313     -0.2867
     99  CB        39.3590   19.6070   32.7530 C.3   313  ASP313      0.1410
    100  CG        40.1020   20.4590   31.7110 C.2   313  ASP313      0.3668
    101  OD1       39.8880   20.2940   30.5050 O.co2 313  ASP313     -0.2456
    102  OD2       41.0070   21.1960   32.1150 O.co2 313  ASP313     -0.2456
    103  N         41.4390   19.9540   36.5090 N.3   315  HIS315     -0.1241
    104  CA        41.0650   20.5240   37.8220 C.3   315  HIS315      0.1621
    105  C         41.3860   19.5800   39.0040 C.2   315  HIS315      0.2264
    106  O         41.8570   20.0580   40.0660 O.2   315  HIS315     -0.2867
    107  CB        39.6080   21.0250   37.8330 C.3   315  HIS315      0.0745
    108  CG        39.2450   21.8580   36.6360 C.ar  315  HIS315      0.0817
    109  ND1       37.9510   21.9680   36.1710 N.ar  315  HIS315     -0.2268
    110  CD2       40.0140   22.5890   35.7880 C.ar  315  HIS315      0.1154
    111  CE1       37.9360   22.7650   35.1150 C.ar  315  HIS315      0.1986
    112  NE2       39.1780   23.1500   34.8560 N.ar  315  HIS315     -0.2212
    113  N         39.1880   19.1640   27.8920 N.3   351  HIS351     -0.1226
    114  CA        37.9850   19.8160   27.4160 C.3   351  HIS351      0.1752
    115  C         38.2340   21.1890   26.7780 C.2   351  HIS351      0.2596
    116  O         37.2980   21.9370   26.5830 O.2   351  HIS351     -0.2718
    117  CB        36.9870   20.0160   28.5650 C.3   351  HIS351      0.0759
    118  CG        36.5300   18.7640   29.2450 C.ar  351  HIS351      0.0818
    119  ND1       35.3030   18.1900   28.9870 N.ar  351  HIS351     -0.2268
    120  CD2       37.1090   18.0100   30.2190 C.ar  351  HIS351      0.1154
    121  CE1       35.1460   17.1340   29.7750 C.ar  351  HIS351      0.1986
    122  NE2       36.2290   17.0010   30.5280 N.ar  351  HIS351     -0.2212
    123  N         39.4660   21.5700   26.4860 N.am  352  THR352     -0.1953
    124  CA        39.6780   22.8860   25.8950 C.3   352  THR352      0.1897
    125  C         41.0680   23.0000   25.3320 C.2   352  THR352      0.2313
    126  O         41.9950   22.3900   25.8600 O.2   352  THR352     -0.2863
    127  CB        39.4490   24.0400   26.9190 C.3   352  THR352      0.1794
    128  OG1       39.4340   25.3100   26.2310 O.3   352  THR352     -0.2208
    129  CG2       40.4920   23.9720   28.0740 C.3   352  THR352      0.0378
    130  N         42.4810   29.0300   29.2640 N.3   357  ALA357     -0.1245
    131  CA        41.7450   28.0600   30.0820 C.3   357  ALA357      0.1562
    132  C         42.6510   26.9670   30.6650 C.2   357  ALA357      0.2260
    133  O         42.2290   26.2060   31.5440 O.2   357  ALA357     -0.2867
    134  CB        40.6370   27.4310   29.2650 C.3   357  ALA357      0.0290
    135  N         37.0220   15.4870   23.3010 N.3   429  VAL429     -0.1245
    136  CA        35.5890   15.3810   23.5480 C.3   429  VAL429      0.1561
    137  C         34.7430   15.5300   22.2910 C.2   429  VAL429      0.2260
    138  O         33.5190   15.5120   22.3640 O.2   429  VAL429     -0.2867
    139  CB        35.1420   16.3450   24.6760 C.3   429  VAL429      0.0252
    140  CG1       35.7130   15.8870   26.0210 C.3   429  VAL429      0.0019
    141  CG2       35.5070   17.7830   24.3560 C.3   429  VAL429      0.0019
    142  N         31.3660   13.7110   23.0750 N.3   458  ASN458     -0.1240
    143  CA        30.4060   13.9920   24.1250 C.3   458  ASN458      0.1653
    144  C         28.9750   13.5570   23.7590 C.2   458  ASN458      0.2266
    145  O         28.6610   13.2590   22.6160 O.2   458  ASN458     -0.2867
    146  CB        30.4180   15.4890   24.4650 C.3   458  ASN458      0.1155
    147  CG        31.5640   15.8860   25.4010 C.2   458  ASN458      0.2627
    148  OD1       32.2380   15.0350   25.9860 O.2   458  ASN458     -0.2716
    149  ND2       31.7730   17.1890   25.5460 N.am  458  ASN458     -0.0877
    150  N         34.6690   33.8220   22.1290 N.3   547  TYR547     -0.1227
    151  CA        34.8340   32.7220   21.1690 C.3   547  TYR547      0.1736
    152  C         33.5200   32.1200   20.6980 C.2   547  TYR547      0.2595
    153  O         33.4620   31.5850   19.5940 O.2   547  TYR547     -0.2718
    154  CB        35.7880   31.6410   21.6710 C.3   547  TYR547      0.0548
    155  CG        35.1840   30.5620   22.5110 C.ar  547  TYR547     -0.0200
    156  CD1       35.1620   30.6640   23.8920 C.ar  547  TYR547     -0.0009
    157  CD2       34.7100   29.3900   21.9370 C.ar  547  TYR547     -0.0009
    158  CE1       34.6220   29.6620   24.6740 C.ar  547  TYR547      0.0417
    159  CE2       34.1750   28.3760   22.7140 C.ar  547  TYR547      0.0417
    160  CZ        34.1460   28.5130   24.0950 C.ar  547  TYR547      0.1957
    161  OH        33.6190   27.5060   24.8980 O.3   547  TYR547     -0.2866
    162  N         32.4780   32.2020   21.5240 N.am  548  LYS548     -0.1980
    163  CA        31.1540   31.6940   21.1510 C.3   548  LYS548      0.1596
    164  C         30.3810   32.6490   20.2140 C.2   548  LYS548      0.2287
    165  O         29.3420   32.2690   19.6270 O.2   548  LYS548     -0.2864
    166  CB        30.3280   31.3700   22.4050 C.3   548  LYS548      0.0298
    167  CG        30.8770   30.1840   23.2280 C.3   548  LYS548      0.0038
    168  CD        30.0290   29.9030   24.4590 C.3   548  LYS548      0.0206
    169  CE        30.6220   28.9380   25.4760 C.3   548  LYS548      0.1093
    170  NZ        30.4300   27.5350   25.0580 N.3   548  LYS548     -0.1314
    171  N         37.5880   26.4010   18.1320 N.3   645  THR645     -0.1203
    172  CA        37.5480   26.9540   19.4990 C.3   645  THR645      0.1994
    173  C         36.6260   26.2290   20.4600 C.2   645  THR645      0.2618
    174  O         36.9350   26.1940   21.6300 O.2   645  THR645     -0.2717
    175  CB        37.2120   28.4600   19.5130 C.3   645  THR645      0.1784
    176  OG1       35.9010   28.6810   19.0010 O.3   645  THR645     -0.2211
    177  CG2       38.2050   29.2250   18.6560 C.3   645  THR645      0.0376
    178  N         35.4750   25.7130   20.0110 N.am  646  GLU646     -0.1965
    179  CA        34.5490   25.0260   20.8990 C.3   646  GLU646      0.1733
    180  C         34.9090   23.5490   20.9030 C.2   646  GLU646      0.2616
    181  O         34.7410   22.8960   19.9000 O.2   646  GLU646     -0.2715
    182  CB        33.0930   25.2280   20.4510 C.3   646  GLU646      0.0429
    183  CG        32.0550   24.7180   21.4430 C.3   646  GLU646      0.1163
    184  CD        31.9130   25.6370   22.6420 C.2   646  GLU646      0.3649
    185  OE1       31.1450   26.6050   22.5500 O.co2 646  GLU646     -0.2457
    186  OE2       32.6110   25.4170   23.6700 O.co2 646  GLU646     -0.2457
    187  N         35.4420   23.0250   22.0130 N.am  647  ALA647     -0.1963
    188  CA        35.9740   21.6380   22.0190 C.3   647  ALA647      0.1728
    189  C         34.9390   20.6450   21.5490 C.2   647  ALA647      0.2617
    190  O         35.2360   19.7810   20.7400 O.2   647  ALA647     -0.2715
    191  CB        36.5370   21.2280   23.3830 C.3   647  ALA647      0.0334
    192  N         33.7150   20.7940   22.0380 N.am  648  SER648     -0.1936
    193  CA        32.6270   19.9600   21.5990 C.3   648  SER648      0.2055
    194  C         31.3500   20.7610   21.4820 C.2   648  SER648      0.2644
    195  O         30.7560   20.8440   20.4040 O.2   648  SER648     -0.2714
    196  CB        32.3990   18.7900   22.5690 C.3   648  SER648      0.2130
    197  OG        31.2240   18.0650   22.2290 O.3   648  SER648     -0.2179
    198  N         30.9120   21.3290   22.6030 N.am  649  GLY649     -0.1939
    199  CA        29.5560   21.7710   22.7370 C.3   649  GLY649      0.2014
    200  C         28.6850   20.5970   23.1280 C.2   649  GLY649      0.2639
    201  O         28.9400   19.4470   22.7370 O.2   649  GLY649     -0.2714
    202  N         27.6470   20.8950   23.9030 N.am  650  THR650     -0.1950
    203  CA        26.5810   19.9590   24.2360 C.3   650  THR650      0.1897
    204  C         25.1770   20.5630   24.1030 C.2   650  THR650      0.2313
    205  O         24.2200   19.8380   23.8410 O.2   650  THR650     -0.2863
    206  CB        26.7390   19.3990   25.6730 C.3   650  THR650      0.1794
    207  OG1       26.8490   20.5010   26.5720 O.3   650  THR650     -0.2208
    208  CG2       27.9400   18.5430   25.7750 C.3   650  THR650      0.0378
@<TRIPOS>BOND
     1   171   172    1
     2   177   175    1
     3   176   175    1
     4   172   175    1
     5   172   173    1
     6   153   152    2
     7   165   164    2
     8   181   180    2
     9   178   173   am
    10   178   179    1
    11   164   163    1
    12   195   194    2
    13   182   179    1
    14   182   183    1
    15   173   174    2
    16   152   151    1
    17   152   162   am
    18   190   189    2
    19   179   180    1
    20   180   187   am
    21   163   162    1
    22   163   166    1
    23   151   154    1
    24   151   150    1
    25   183   184    1
    26   194   193    1
    27   194   198   am
    28   189   188    1
    29   189   192   am
    30   193   192    1
    31   193   196    1
    32   154   155    1
    33   157   155   ar
    34   157   159   ar
    35   187   188    1
    36   188   191    1
    37   197   196    1
    38   137   138    2
    39   137   136    1
    40   166   167    1
    41   155   156   ar
    42   185   184   ar
    43   198   199    1
    44   145   144    2
    45   184   186   ar
    46   159   160   ar
    47   199   200    1
    48   201   200    2
    49   142   143    1
    50   200   202   am
    51   167   168    1
    52   135   136    1
    53   136   139    1
    54   144   143    1
    55   205   204    2
    56   156   158   ar
    57   202   203    1
    58   160   158   ar
    59   160   161    1
    60   204   203    1
    61   143   146    1
    62   203   206    1
    63   141   139    1
    64   168   169    1
    65   146   147    1
    66   139   140    1
    67   170   169    1
    68   125   126    2
    69   125   124    1
    70   147   149   am
    71   147   148    2
    72   206   208    1
    73   206   207    1
    74   124   123    1
    75   124   127    1
    76   128   127    1
    77   123   115   am
    78    60    59    2
    79   116   115    2
    80   115   114    1
    81   127   129    1
    82   114   113    1
    83   114   117    1
    84    59    61   am
    85    59    58    1
    86    36    35    1
    87   117   118    1
    88    58    55    1
    89   119   118   ar
    90   119   121   ar
    91   118   120   ar
    92   130   131    1
    93   134   131    1
    94    37    35    1
    95    53    51   ar
    96    57    56    2
    97    35    34    1
    98    19    18    1
    99    19    20    1
   100   121   122   ar
   101   131   132    1
   102    55    56    1
   103    55    54    1
   104   120   122   ar
   105    56    62   am
   106    34    31    1
   107    20    21    2
   108    20    22   am
   109   101   100   ar
   110    51    52   ar
   111    51    50    1
   112   132   133    2
   113    49    48    2
   114    22    23    1
   115    54    48   am
   116    31    30    1
   117    31    32    1
   118    48    47    1
   119    68    70   ar
   120    68    67   ar
   121    50    47    1
   122    62    63    1
   123    70    72   ar
   124    23    26    1
   125    23    24    1
   126   100   102   ar
   127   100    99    1
   128    63    66    1
   129    63    64    1
   130    26    27    1
   131    66    67    1
   132    33    32    2
   133    47    46    1
   134    67    69   ar
   135    28    27    1
   136    99    96    1
   137    27    29    1
   138    96    95    1
   139    96    97    1
   140    24    25    2
   141    72    71   ar
   142    64    73   am
   143    64    65    2
   144    73    74    1
   145    46    40   am
   146    13    12    2
   147    69    71   ar
   148    97    98    2
   149    12    11    1
   150    77    74    1
   151    77    78    1
   152    74    75    1
   153    40    41    2
   154    40    39    1
   155    76    75    2
   156   112   111   ar
   157   112   110   ar
   158    14    11    1
   159    14    15    1
   160    80    78   ar
   161    80    82   ar
   162    78    79   ar
   163   111   109   ar
   164    11    10    1
   165    39    42    1
   166    39    38    1
   167    42    43    1
   168   110   108   ar
   169    15    16    2
   170    15    17   am
   171     8     7   ar
   172    82    83   ar
   173   109   108   ar
   174    79    81   ar
   175    44    43    2
   176    43    45   am
   177   103   104    1
   178   108   107    1
   179     9     7   ar
   180     7     6    1
   181    83    81   ar
   182     5     6    1
   183     5     2    1
   184   104   107    1
   185   104   105    1
   186     4     3    2
   187    94    92    1
   188     3     2    1
   189     2     1    1
   190   105   106    2
   191    92    91    2
   192    92    93    1
   193    91    90    1
   194    90    89    1
   195    89    88    1
   196    88    85    1
   197    87    86    2
   198    85    86    1
   199    85    84    1
