@<TRIPOS>MOLECULE
tmp/5o52A02.pdb
 144 144 0 0 0
SMALL
GASTEIGER

@<TRIPOS>ATOM
      1  N          9.9970   14.2100   49.7000 N.3    46  HIS46      -0.1241
      2  CA        10.2330   13.1670   50.7130 C.3    46  HIS46       0.1621
      3  C          9.5390   11.8440   50.3390 C.2    46  HIS46       0.2264
      4  O         10.0940   10.7660   50.5380 O.2    46  HIS46      -0.2867
      5  CB         9.8110   13.6390   52.1080 C.3    46  HIS46       0.0745
      6  CG        10.7980   14.5620   52.7480 C.ar   46  HIS46       0.0817
      7  ND1       10.7300   15.9330   52.6300 N.ar   46  HIS46      -0.2268
      8  CD2       11.8960   14.3040   53.4910 C.ar   46  HIS46       0.1154
      9  CE1       11.7390   16.4810   53.2840 C.ar   46  HIS46       0.1986
     10  NE2       12.4660   15.5140   53.8090 N.ar   46  HIS46      -0.2212
     11  N         11.6090   10.3310   47.5110 N.3    49  ARG49      -0.1231
     12  CA        12.9040    9.9430   48.0280 C.3    49  ARG49       0.1694
     13  C         12.8430    8.6020   48.7590 C.2    49  ARG49       0.2592
     14  O         13.7790    7.8100   48.6430 O.2    49  ARG49      -0.2718
     15  CB        13.4000   11.0290   48.9860 C.3    49  ARG49       0.0321
     16  CG        14.6950   10.7410   49.7020 C.3    49  ARG49       0.0489
     17  CD        15.0040   11.8830   50.6540 C.3    49  ARG49       0.2205
     18  NE        14.5520   11.6650   52.0160 N.pl3  49  ARG49      -0.0865
     19  CZ        14.7650   12.5110   53.0300 C.cat  49  ARG49       0.5346
     20  NH1       15.4320   13.6590   52.8530 N.pl3  49  ARG49       0.1354
     21  NH2       14.3280   12.2020   54.2500 N.pl3  49  ARG49       0.1354
     22  N         11.7650    8.3590   49.4960 N.am   50  ASP50      -0.1974
     23  CA        11.5470    7.0810   50.1830 C.3    50  ASP50       0.1709
     24  C         11.7020    5.8650   49.2310 C.2    50  ASP50       0.2293
     25  O         12.2290    4.8260   49.6440 O.2    50  ASP50      -0.2864
     26  CB        10.1590    7.0180   50.8370 C.3    50  ASP50       0.1436
     27  CG        10.0490    7.8220   52.1290 C.2    50  ASP50       0.3671
     28  OD1       11.0690    8.1890   52.7440 O.co2  50  ASP50      -0.2456
     29  OD2        8.8940    8.0470   52.5220 O.co2  50  ASP50      -0.2456
     30  N         13.7080    5.6120   46.6810 N.3    52  LEU52      -0.1231
     31  CA        15.1170    5.4490   46.3470 C.3    52  LEU52       0.1693
     32  C         15.8690    4.6250   47.3740 C.2    52  LEU52       0.2591
     33  O         16.8800    4.0060   47.0500 O.2    52  LEU52      -0.2718
     34  CB        15.8130    6.8200   46.2480 C.3    52  LEU52       0.0284
     35  CG        15.5960    7.6910   45.0180 C.3    52  LEU52       0.0019
     36  CD1       16.1210    9.0960   45.2460 C.3    52  LEU52       0.0001
     37  CD2       16.3000    7.0890   43.8220 C.3    52  LEU52       0.0001
     38  N         15.4030    4.6200   48.6220 N.am   53  VAL53      -0.1980
     39  CA        16.2380    4.1630   49.7330 C.3    53  VAL53       0.1595
     40  C         16.6310    2.7020   49.6640 C.2    53  VAL53       0.2287
     41  O         17.8030    2.3740   49.8210 O.2    53  VAL53      -0.2864
     42  CB        15.5610    4.4430   51.1040 C.3    53  VAL53       0.0276
     43  CG1       16.2940    3.7280   52.2310 C.3    53  VAL53       0.0022
     44  CG2       15.5450    5.9350   51.3580 C.3    53  VAL53       0.0022
     45  N         19.0020    2.0500   46.8270 N.3    56  TRP56      -0.1241
     46  CA        20.3150    2.6060   47.1430 C.3    56  TRP56       0.1605
     47  C         21.1090    1.6900   48.0610 C.2    56  TRP56       0.2264
     48  O         22.2670    1.3940   47.7970 O.2    56  TRP56      -0.2867
     49  CB        20.1520    3.9740   47.8070 C.3    56  TRP56       0.0550
     50  CG        21.3460    4.8760   47.7570 C.ar   56  TRP56       0.0003
     51  CD1       22.4900    4.7120   47.0250 C.ar   56  TRP56       0.0946
     52  CD2       21.4590    6.1500   48.3880 C.ar   56  TRP56       0.0152
     53  NE1       23.3160    5.7880   47.1940 N.ar   56  TRP56      -0.2442
     54  CE2       22.7050    6.6970   48.0100 C.ar   56  TRP56       0.0810
     55  CE3       20.6230    6.8960   49.2110 C.ar   56  TRP56       0.0012
     56  CZ2       23.1500    7.9430   48.4670 C.ar   56  TRP56       0.0191
     57  CZ3       21.0750    8.1550   49.6800 C.ar   56  TRP56       0.0001
     58  CH2       22.3250    8.6490   49.3070 C.ar   56  TRP56       0.0015
     59  N         30.8240   20.1130   47.8010 N.3   149  ARG149     -0.1245
     60  CA        29.4940   20.6360   48.0750 C.3   149  ARG149      0.1563
     61  C         29.6410   22.1200   48.3230 C.2   149  ARG149      0.2260
     62  O         29.8860   22.5650   49.4580 O.2   149  ARG149     -0.2867
     63  CB        28.9040   19.9260   49.2770 C.3   149  ARG149      0.0307
     64  CG        27.5230   20.4070   49.7020 C.3   149  ARG149      0.0489
     65  CD        27.1160   19.6620   50.9470 C.3   149  ARG149      0.2205
     66  NE        25.8130   20.0180   51.5060 N.pl3 149  ARG149     -0.0865
     67  CZ        25.6060   20.9120   52.4750 C.cat 149  ARG149      0.5346
     68  NH1       26.5970   21.6560   52.9490 N.pl3 149  ARG149      0.1354
     69  NH2       24.3840   21.0910   52.9530 N.pl3 149  ARG149      0.1354
     70  N         16.8520   23.8820   52.7280 N.3   175  GLY175     -0.1210
     71  CA        17.2840   22.4970   52.8930 C.3   175  GLY175      0.1956
     72  C         17.3370   21.7940   51.5460 C.2   175  GLY175      0.2612
     73  O         16.7240   22.2360   50.5770 O.2   175  GLY175     -0.2717
     74  N         18.0920   20.7100   51.4970 N.am  176  ASN176     -0.1960
     75  CA        18.2350   19.9030   50.3030 C.3   176  ASN176      0.1804
     76  C         17.7980   18.4900   50.6980 C.2   176  ASN176      0.2463
     77  O         18.5250   17.7910   51.3930 O.2   176  ASN176     -0.2730
     78  CB        19.6860   19.9320   49.8450 C.3   176  ASN176      0.1195
     79  CG        19.9540   19.0110   48.6720 C.2   176  ASN176      0.2630
     80  OD1       19.0240   18.4970   48.0450 O.2   176  ASN176     -0.2716
     81  ND2       21.2410   18.8540   48.3180 N.am  176  ASN176     -0.0877
     82  N         16.6080   18.0580   50.2510 N.am  177  PRO177     -0.2716
     83  CA        16.1280   16.7600   50.6790 C.3   177  PRO177      0.1536
     84  C         16.8330   15.5560   50.0130 C.2   177  PRO177      0.2599
     85  O         16.6380   14.4250   50.4660 O.2   177  PRO177     -0.2715
     86  CB        14.6440   16.8170   50.2830 C.3   177  PRO177      0.0310
     87  CG        14.6410   17.6570   49.0610 C.3   177  PRO177      0.0237
     88  CD        15.6710   18.7070   49.3140 C.3   177  PRO177      0.0939
     89  N         17.6290   15.8010   48.9790 N.am  178  TRP178     -0.1960
     90  CA        18.2760   14.7670   48.1920 C.3   178  TRP178      0.1771
     91  C         19.6790   14.4120   48.6630 C.2   178  TRP178      0.2620
     92  O         20.2690   13.5110   48.1130 O.2   178  TRP178     -0.2715
     93  CB        18.3540   15.1930   46.7170 C.3   178  TRP178      0.0590
     94  CG        17.0510   15.6660   46.2060 C.ar  178  TRP178      0.0006
     95  CD1       16.7140   16.9380   45.8830 C.ar  178  TRP178      0.0946
     96  CD2       15.8940   14.8700   45.9830 C.ar  178  TRP178      0.0152
     97  NE1       15.4100   16.9930   45.4810 N.ar  178  TRP178     -0.2442
     98  CE2       14.8790   15.7340   45.5270 C.ar  178  TRP178      0.0810
     99  CE3       15.6230   13.4990   46.0880 C.ar  178  TRP178      0.0012
    100  CZ2       13.6120   15.2750   45.1730 C.ar  178  TRP178      0.0191
    101  CZ3       14.3520   13.0330   45.7400 C.ar  178  TRP178      0.0001
    102  CH2       13.3610   13.9230   45.3050 C.ar  178  TRP178      0.0015
    103  N         20.2190   15.0960   49.6760 N.am  179  GLU179     -0.1963
    104  CA        21.5360   14.7490   50.2100 C.3   179  GLU179      0.1733
    105  C         21.3950   14.0740   51.5670 C.2   179  GLU179      0.2616
    106  O         20.4760   14.3850   52.3210 O.2   179  GLU179     -0.2715
    107  CB        22.4230   15.9780   50.3180 C.3   179  GLU179      0.0429
    108  CG        22.0110   16.9390   51.4040 C.3   179  GLU179      0.1163
    109  CD        22.7530   18.2490   51.4040 C.2   179  GLU179      0.3649
    110  OE1       23.5930   18.5090   50.5090 O.co2 179  GLU179     -0.2457
    111  OE2       22.4730   19.0320   52.3310 O.co2 179  GLU179     -0.2457
    112  N         22.3210   13.1710   51.8720 N.am  180  LYS180     -0.1963
    113  CA        22.4310   12.5590   53.1930 C.3   180  LYS180      0.1728
    114  C         23.8290   12.8510   53.7220 C.2   180  LYS180      0.2616
    115  O         24.8150   12.3630   53.1470 O.2   180  LYS180     -0.2715
    116  CB        22.2090   11.0450   53.0970 C.3   180  LYS180      0.0311
    117  CG        22.2500   10.3080   54.4150 C.3   180  LYS180      0.0038
    118  CD        21.1050   10.7410   55.3240 C.3   180  LYS180      0.0206
    119  CE        21.2830   10.2290   56.7500 C.3   180  LYS180      0.1093
    120  NZ        22.1850   11.0760   57.5760 N.3   180  LYS180     -0.1314
    121  N         23.9090   13.6490   54.7840 N.am  181  ALA181     -0.1977
    122  CA        25.1790   13.9230   55.4660 C.3   181  ALA181      0.1597
    123  C         25.6990   12.6390   56.0490 C.2   181  ALA181      0.2287
    124  O         24.9140   11.8520   56.6150 O.2   181  ALA181     -0.2864
    125  CB        24.9860   14.9590   56.5800 C.3   181  ALA181      0.0319
    126  N         28.7320   14.4160   51.9580 N.3   215  TYR215     -0.1241
    127  CA        27.2900   14.3860   51.7770 C.3   215  TYR215      0.1605
    128  C         27.0460   13.5300   50.5520 C.2   215  TYR215      0.2264
    129  O         27.6550   13.7840   49.4880 O.2   215  TYR215     -0.2867
    130  CB        26.7420   15.7830   51.4900 C.3   215  TYR215      0.0534
    131  CG        26.7090   16.6840   52.6990 C.ar  215  TYR215     -0.0201
    132  CD1       27.8830   17.2090   53.2250 C.ar  215  TYR215     -0.0009
    133  CD2       25.4970   16.9910   53.3300 C.ar  215  TYR215     -0.0009
    134  CE1       27.8640   18.0230   54.3520 C.ar  215  TYR215      0.0417
    135  CE2       25.4580   17.8220   54.4410 C.ar  215  TYR215      0.0417
    136  CZ        26.6420   18.3290   54.9500 C.ar  215  TYR215      0.1957
    137  OH        26.6060   19.1490   56.0440 O.3   215  TYR215     -0.2866
    138  N         21.8910   10.3160   45.8980 N.3   218  PRO218     -0.2116
    139  CA        21.6240    9.1560   45.0570 C.3   218  PRO218      0.1372
    140  C         21.4940    9.5320   43.5880 C.2   218  PRO218      0.2244
    141  O         20.9840   10.6020   43.2580 O.2   218  PRO218     -0.2868
    142  CB        20.3000    8.6150   45.6210 C.3   218  PRO218      0.0268
    143  CG        19.6170    9.8180   46.1470 C.3   218  PRO218      0.0207
    144  CD        20.7080   10.6910   46.6900 C.3   218  PRO218      0.0892
@<TRIPOS>BOND
     1   141   140    2
     2   140   139    1
     3    37    35    1
     4    35    36    1
     5    35    34    1
     6   139   142    1
     7   139   138    1
     8   100   102   ar
     9   100    98   ar
    10   102   101   ar
    11    97    98   ar
    12    97    95   ar
    13    98    96   ar
    14   142   143    1
    15   101    99   ar
    16    95    94   ar
    17   138   144    1
    18    96    99   ar
    19    96    94   ar
    20   143   144    1
    21    94    93    1
    22    34    31    1
    23    31    30    1
    24    31    32    1
    25    93    90    1
    26    45    46    1
    27    51    53   ar
    28    51    50   ar
    29    33    32    2
    30    46    49    1
    31    46    47    1
    32    53    54   ar
    33    32    38   am
    34    11    12    1
    35    50    49    1
    36    50    52   ar
    37    48    47    2
    38    59    60    1
    39    54    52   ar
    40    54    56   ar
    41    12    13    1
    42    12    15    1
    43    80    79    2
    44    60    61    1
    45    60    63    1
    46    92    91    2
    47    90    91    1
    48    90    89    1
    49    81    79   am
    50    61    62    2
    51    52    55   ar
    52    56    58   ar
    53    38    39    1
    54    14    13    2
    55    91   103   am
    56    79    78    1
    57    13    22   am
    58    89    84   am
    59    15    16    1
    60    87    88    1
    61    87    86    1
    62    55    57   ar
    63    24    25    2
    64    24    23    1
    65    63    64    1
    66    58    57   ar
    67    88    82    1
    68   129   128    2
    69    22    23    1
    70    40    39    1
    71    40    41    2
    72   103   104    1
    73     1     2    1
    74    16    17    1
    75    64    65    1
    76    39    42    1
    77    78    75    1
    78    84    85    2
    79    84    83    1
    80    23    26    1
    81   104   107    1
    82   104   105    1
    83    82    83    1
    84    82    76   am
    85    86    83    1
    86    75    76    1
    87    75    74    1
    88   107   108    1
    89     3     4    2
    90     3     2    1
    91   110   109   ar
    92   128   127    1
    93    73    72    2
    94    17    18    1
    95    76    77    2
    96     2     5    1
    97    26    27    1
    98    65    66    1
    99    42    44    1
   100    42    43    1
   101   109   108    1
   102   109   111   ar
   103   130   127    1
   104   130   131    1
   105    74    72   am
   106    66    67    2
   107    72    71    1
   108   105   112   am
   109   105   106    2
   110   127   126    1
   111   112   113    1
   112    18    19    2
   113     5     6    1
   114    27    29   ar
   115    27    28   ar
   116    67    68    1
   117    67    69    1
   118     7     6   ar
   119     7     9   ar
   120   131   132   ar
   121   131   133   ar
   122    70    71    1
   123     6     8   ar
   124    20    19    1
   125    19    21    1
   126   116   113    1
   127   116   117    1
   128   115   114    2
   129   113   114    1
   130   132   134   ar
   131     9    10   ar
   132   133   135   ar
   133     8    10   ar
   134   114   121   am
   135   134   136   ar
   136   117   118    1
   137   135   136   ar
   138   121   122    1
   139   136   137    1
   140   118   119    1
   141   122   123    1
   142   122   125    1
   143   123   124    2
   144   119   120    1
