@<TRIPOS>MOLECULE
tmp/5o55A00.pdb
 120 119 0 0 0
SMALL
GASTEIGER

@<TRIPOS>ATOM
      1  N         16.2770  -12.6500    5.4960 N.3    26  ILE26      -0.1231
      2  CA        14.8310  -12.5050    5.3580 C.3    26  ILE26       0.1692
      3  C         14.1410  -13.8250    5.0840 C.2    26  ILE26       0.2592
      4  O         12.9180  -13.9040    5.2330 O.2    26  ILE26      -0.2718
      5  CB        14.4300  -11.4660    4.2980 C.3    26  ILE26       0.0266
      6  CG1       14.8990  -11.9010    2.9170 C.3    26  ILE26       0.0019
      7  CG2       15.0110  -10.1060    4.6550 C.3    26  ILE26       0.0020
      8  CD1       14.4400  -10.9580    1.8250 C.3    26  ILE26       0.0001
      9  N         14.8890  -14.8600    4.7000 N.am   27  PHE27      -0.1976
     10  CA        14.3460  -16.1990    4.4960 C.3    27  PHE27       0.1639
     11  C         14.7450  -17.1600    5.6140 C.2    27  PHE27       0.2290
     12  O         14.5230  -18.3710    5.4850 O.2    27  PHE27      -0.2864
     13  CB        14.7900  -16.7510    3.1330 C.3    27  PHE27       0.0560
     14  CG        14.4250  -15.8680    1.9640 C.ar   27  PHE27      -0.0200
     15  CD1       13.1010  -15.7310    1.5710 C.ar   27  PHE27      -0.0042
     16  CD2       15.4090  -15.1820    1.2660 C.ar   27  PHE27      -0.0042
     17  CE1       12.7630  -14.9360    0.4950 C.ar   27  PHE27      -0.0003
     18  CE2       15.0770  -14.3580    0.1840 C.ar   27  PHE27      -0.0003
     19  CZ        13.7540  -14.2480   -0.2000 C.ar   27  PHE27      -0.0000
     20  N         13.6490  -17.4710    8.7860 N.3    29  GLU29      -0.1231
     21  CA        12.5950  -17.9040    9.6860 C.3    29  GLU29       0.1684
     22  C         11.2690  -17.7750    8.9600 C.2    29  GLU29       0.2434
     23  O         11.1810  -17.0800    7.9410 O.2    29  GLU29      -0.2733
     24  CB        12.5800  -17.0320   10.9500 C.3    29  GLU29       0.0402
     25  CG        13.8410  -17.1360   11.7810 C.3    29  GLU29       0.1161
     26  CD        13.7080  -16.4300   13.1140 C.2    29  GLU29       0.3649
     27  OE1       13.0160  -15.3910   13.1640 O.co2  29  GLU29      -0.2457
     28  OE2       14.2940  -16.9130   14.1060 O.co2  29  GLU29      -0.2457
     29  N         10.2210  -18.4460    9.4410 N.am   30  PRO30      -0.2718
     30  CA         8.9140  -18.3220    8.7870 C.3    30  PRO30       0.1535
     31  C          8.4780  -16.8680    8.7120 C.2    30  PRO30       0.2598
     32  O          8.7740  -16.0660    9.5990 O.2    30  PRO30      -0.2715
     33  CB         7.9830  -19.1410    9.6920 C.3    30  PRO30       0.0310
     34  CG         8.8790  -20.1280   10.3650 C.3    30  PRO30       0.0237
     35  CD        10.2090  -19.4420   10.5320 C.3    30  PRO30       0.0939
     36  N          7.8020  -16.5260    7.6180 N.am   31  VAL31      -0.1964
     37  CA         7.2330  -15.1790    7.5140 C.3    31  VAL31       0.1712
     38  C          6.3250  -14.9450    8.7130 C.2    31  VAL31       0.2458
     39  O          5.4580  -15.7890    9.0070 O.2    31  VAL31      -0.2730
     40  CB         6.4590  -15.0270    6.1960 C.3    31  VAL31       0.0289
     41  CG1        5.7350  -13.6860    6.1450 C.3    31  VAL31       0.0023
     42  CG2        7.4100  -15.1930    4.9980 C.3    31  VAL31       0.0023
     43  N          6.5030  -13.8660    9.4560 N.am   32  PRO32      -0.2727
     44  CA         5.7090  -13.6740   10.6770 C.3    32  PRO32       0.1402
     45  C          4.2580  -13.3300   10.3850 C.2    32  PRO32       0.2269
     46  O          3.9520  -12.2230    9.9260 O.2    32  PRO32      -0.2865
     47  CB         6.4360  -12.5230   11.3820 C.3    32  PRO32       0.0296
     48  CG         7.0640  -11.7530   10.2710 C.3    32  PRO32       0.0237
     49  CD         7.4940  -12.7940    9.2640 C.3    32  PRO32       0.0939
     50  N          2.0670  -12.6510   12.4510 N.3    34  SER34      -0.1202
     51  CA         1.6890  -11.5190   13.2890 C.3    34  SER34       0.2020
     52  C          1.7650  -10.2110   12.5110 C.2    34  SER34       0.2619
     53  O          0.9470   -9.3090   12.7170 O.2    34  SER34      -0.2717
     54  CB         2.5960  -11.4610   14.5190 C.3    34  SER34       0.2103
     55  OG         3.8840  -10.9740   14.1770 O.3    34  SER34      -0.2182
     56  N          2.7360  -10.0960   11.6050 N.am   35  GLU35      -0.1965
     57  CA         2.9030   -8.8930   10.8020 C.3    35  GLU35       0.1733
     58  C          2.3720   -9.0330    9.3820 C.2    35  GLU35       0.2616
     59  O          2.1560   -8.0150    8.7160 O.2    35  GLU35      -0.2715
     60  CB         4.3790   -8.4790   10.7580 C.3    35  GLU35       0.0429
     61  CG         5.0390   -8.4330   12.1250 C.3    35  GLU35       0.1163
     62  CD         5.1910   -7.0180   12.6480 C.2    35  GLU35       0.3649
     63  OE1        4.9670   -6.8030   13.8580 O.co2  35  GLU35      -0.2457
     64  OE2        5.5330   -6.1220   11.8480 O.co2  35  GLU35      -0.2457
     65  N          2.1660  -10.2550    8.9030 N.am   36  VAL36      -0.1977
     66  CA         1.5660  -10.4830    7.5900 C.3    36  VAL36       0.1596
     67  C          0.3240  -11.3440    7.7820 C.2    36  VAL36       0.2287
     68  O          0.3520  -12.5430    7.4720 O.2    36  VAL36      -0.2864
     69  CB         2.5580  -11.1480    6.6230 C.3    36  VAL36       0.0276
     70  CG1        2.0310  -11.0500    5.2030 C.3    36  VAL36       0.0022
     71  CG2        3.9310  -10.5030    6.7370 C.3    36  VAL36       0.0022
     72  N         -1.0320  -13.7600    4.9630 N.3    39  TYR39      -0.1241
     73  CA        -0.0370  -14.5520    4.2450 C.3    39  TYR39       0.1605
     74  C         -0.5750  -15.9290    3.8750 C.2    39  TYR39       0.2264
     75  O         -0.4280  -16.3780    2.7320 O.2    39  TYR39      -0.2867
     76  CB         1.2350  -14.6770    5.0800 C.3    39  TYR39       0.0534
     77  CG         2.4050  -15.2220    4.2940 C.ar   39  TYR39      -0.0201
     78  CD1        3.0090  -14.4610    3.3010 C.ar   39  TYR39      -0.0009
     79  CD2        2.8960  -16.4960    4.5350 C.ar   39  TYR39      -0.0009
     80  CE1        4.0790  -14.9510    2.5670 C.ar   39  TYR39       0.0417
     81  CE2        3.9650  -17.0000    3.8100 C.ar   39  TYR39       0.0417
     82  CZ         4.5520  -16.2230    2.8290 C.ar   39  TYR39       0.1957
     83  OH         5.6170  -16.7260    2.1130 O.3    39  TYR39      -0.2866
     84  N          7.7510  -16.2220   -2.1740 N.3    78  CYS78      -0.1235
     85  CA         8.0950  -14.8090   -2.0790 C.3    78  CYS78       0.1677
     86  C          7.7730  -14.0820   -3.3730 C.2    78  CYS78       0.2270
     87  O          7.2550  -12.9580   -3.3440 O.2    78  CYS78      -0.2867
     88  CB         9.5760  -14.7000   -1.7460 C.3    78  CYS78       0.0956
     89  SG        10.1580  -13.0590   -1.3400 S.3    78  CYS78      -0.0801
     90  N          3.8240  -13.7590   -3.3590 N.3    81  TYR81      -0.1227
     91  CA         3.1520  -12.8680   -2.4190 C.3    81  TYR81       0.1736
     92  C          3.4590  -11.4020   -2.6870 C.2    81  TYR81       0.2595
     93  O          2.5750  -10.5480   -2.5550 O.2    81  TYR81      -0.2718
     94  CB         3.5040  -13.2160   -0.9730 C.3    81  TYR81       0.0548
     95  CG         2.7170  -12.3680    0.0020 C.ar   81  TYR81      -0.0200
     96  CD1        1.4320  -12.7260    0.3920 C.ar   81  TYR81      -0.0009
     97  CD2        3.2370  -11.1750    0.4800 C.ar   81  TYR81      -0.0009
     98  CE1        0.7050  -11.9320    1.2640 C.ar   81  TYR81       0.0417
     99  CE2        2.5150  -10.3700    1.3460 C.ar   81  TYR81       0.0417
    100  CZ         1.2530  -10.7550    1.7360 C.ar   81  TYR81       0.1957
    101  OH         0.5400   -9.9530    2.6010 O.3    81  TYR81      -0.2866
    102  N          4.6890  -11.0950   -3.0640 N.am   82  ASN82      -0.1974
    103  CA         5.1850   -9.7280   -3.0570 C.3    82  ASN82       0.1688
    104  C          5.1400   -9.1230   -4.4480 C.2    82  ASN82       0.2292
    105  O          5.3860   -9.8070   -5.4470 O.2    82  ASN82      -0.2864
    106  CB         6.6160   -9.7050   -2.5310 C.3    82  ASN82       0.1181
    107  CG         6.6920  -10.1210   -1.0910 C.2    82  ASN82       0.2629
    108  OD1        6.3090   -9.3650   -0.2010 O.2    82  ASN82      -0.2716
    109  ND2        7.1750  -11.3340   -0.8440 N.am   82  ASN82      -0.0877
    110  N         11.6530   -7.4090   -1.4470 N.3    88  PHE88      -0.1241
    111  CA        11.4280   -8.8360   -1.2090 C.3    88  PHE88       0.1605
    112  C         11.3900   -9.6220   -2.5180 C.2    88  PHE88       0.2264
    113  O         12.0180  -10.6840   -2.6430 O.2    88  PHE88      -0.2867
    114  CB        10.1250   -9.0530   -0.4370 C.3    88  PHE88       0.0534
    115  CG        10.2180   -8.7220    1.0290 C.ar   88  PHE88      -0.0203
    116  CD1       11.4460   -8.6240    1.6650 C.ar   88  PHE88      -0.0042
    117  CD2        9.0670   -8.5190    1.7740 C.ar   88  PHE88      -0.0042
    118  CE1       11.5180   -8.3180    3.0290 C.ar   88  PHE88      -0.0003
    119  CE2        9.1320   -8.2200    3.1260 C.ar   88  PHE88      -0.0003
    120  CZ        10.3610   -8.1200    3.7540 C.ar   88  PHE88      -0.0000
@<TRIPOS>BOND
     1   105   104    2
     2   104   103    1
     3    86    87    2
     4    86    85    1
     5    90    91    1
     6   102   103    1
     7   102    92   am
     8   103   106    1
     9    92    93    2
    10    92    91    1
    11   113   112    2
    12   106   107    1
    13   112   111    1
    14    91    94    1
    15    84    85    1
    16    85    88    1
    17    88    89    1
    18   110   111    1
    19   111   114    1
    20   107   109   am
    21   107   108    2
    22    94    95    1
    23   114   115    1
    24    19    18   ar
    25    19    17   ar
    26    95    96   ar
    27    95    97   ar
    28    18    16   ar
    29    96    98   ar
    30    97    99   ar
    31    17    15   ar
    32   115   116   ar
    33   115   117   ar
    34    98   100   ar
    35    16    14   ar
    36    99   100   ar
    37    15    14   ar
    38   116   118   ar
    39   100   101    1
    40   117   119   ar
    41     8     6    1
    42    14    13    1
    43    83    82    1
    44    80    82   ar
    45    80    78   ar
    46    75    74    2
    47    82    81   ar
    48     6     5    1
    49   118   120   ar
    50   119   120   ar
    51    13    10    1
    52    78    77   ar
    53    81    79   ar
    54    74    73    1
    55    73    72    1
    56    73    76    1
    57    77    79   ar
    58    77    76    1
    59     5     7    1
    60     5     2    1
    61    10     9    1
    62    10    11    1
    63     9     3   am
    64    42    40    1
    65     3     4    2
    66     3     2    1
    67    70    69    1
    68     2     1    1
    69    12    11    2
    70    41    40    1
    71    40    37    1
    72    69    71    1
    73    69    66    1
    74    68    67    2
    75    37    36    1
    76    37    38    1
    77    66    67    1
    78    66    65    1
    79    36    31   am
    80    23    22    2
    81    31    30    1
    82    31    32    2
    83    38    39    2
    84    38    43   am
    85    59    58    2
    86    20    21    1
    87    30    29    1
    88    30    33    1
    89    65    58   am
    90    22    29   am
    91    22    21    1
    92    49    43    1
    93    49    48    1
    94    58    57    1
    95    29    35    1
    96    43    44    1
    97    21    24    1
    98    33    34    1
    99    46    45    2
   100    48    47    1
   101    34    35    1
   102    45    44    1
   103    44    47    1
   104    60    57    1
   105    60    61    1
   106    57    56    1
   107    24    25    1
   108    56    52   am
   109    25    26    1
   110    64    62   ar
   111    61    62    1
   112    50    51    1
   113    52    53    2
   114    52    51    1
   115    62    63   ar
   116    26    27   ar
   117    26    28   ar
   118    51    54    1
   119    55    54    1
