@<TRIPOS>MOLECULE
tmp/5o56A01.pdb
 238 228 0 0 0
SMALL
GASTEIGER

@<TRIPOS>ATOM
      1  N         33.1690   20.2580   39.1690 N.3    77  GLU77      -0.1245
      2  CA        31.8270   20.6850   38.8120 C.3    77  GLU77       0.1567
      3  C         30.8610   19.5370   38.5740 C.2    77  GLU77       0.2260
      4  O         31.1960   18.5740   37.8580 O.2    77  GLU77      -0.2867
      5  CB        31.8830   21.6490   37.5930 C.3    77  GLU77       0.0388
      6  CG        32.5800   22.8860   37.9940 C.3    77  GLU77       0.1160
      7  CD        32.6610   23.8930   36.9170 C.2    77  GLU77       0.3649
      8  OE1       31.7620   23.9970   36.0170 O.co2  77  GLU77      -0.2457
      9  OE2       33.7070   24.5890   36.9700 O.co2  77  GLU77      -0.2457
     10  N         29.4390   25.5350   35.9110 N.3   122  ASN122     -0.1240
     11  CA        29.4340   26.7560   35.1270 C.3   122  ASN122      0.1653
     12  C         28.7010   26.6060   33.8470 C.2   122  ASN122      0.2266
     13  O         28.0510   27.5340   33.4440 O.2   122  ASN122     -0.2867
     14  CB        30.8260   27.1870   34.7750 C.3   122  ASN122      0.1155
     15  CG        31.4350   28.0790   35.8300 C.2   122  ASN122      0.2627
     16  OD1       31.0090   29.2290   35.9800 O.2   122  ASN122     -0.2716
     17  ND2       32.3980   27.5590   36.5870 N.am  122  ASN122     -0.0877
     18  N         29.1260   23.7400   30.2430 N.3   124  GLY124     -0.1210
     19  CA        29.1280   22.4450   29.5030 C.3   124  GLY124      0.1956
     20  C         29.8180   21.3340   30.2850 C.2   124  GLY124      0.2611
     21  O         29.3610   20.1850   30.3310 O.2   124  GLY124     -0.2717
     22  N         30.9140   21.7050   30.9460 N.am  125  LEU125     -0.1979
     23  CA        31.7950   20.7540   31.6210 C.3   125  LEU125      0.1596
     24  C         31.0580   20.1620   32.8470 C.2   125  LEU125      0.2287
     25  O         30.8810   18.9100   32.9520 O.2   125  LEU125     -0.2864
     26  CB        33.1610   21.4210   31.9200 C.3   125  LEU125      0.0297
     27  CG        34.1540   20.6080   32.7880 C.3   125  LEU125      0.0022
     28  CD1       35.5900   20.5950   32.3470 C.3   125  LEU125      0.0001
     29  CD2       34.0630   21.0930   34.2380 C.3   125  LEU125      0.0001
     30  N         28.1690   18.0020   31.6540 N.3   128  LEU128     -0.1245
     31  CA        28.6070   16.7380   31.0800 C.3   128  LEU128      0.1561
     32  C         28.8000   15.7510   32.2220 C.2   128  LEU128      0.2260
     33  O         28.5180   14.5460   32.0710 O.2   128  LEU128     -0.2867
     34  CB        29.9190   16.9470   30.3840 C.3   128  LEU128      0.0270
     35  CG        30.4180   15.7370   29.5980 C.3   128  LEU128      0.0019
     36  CD1       29.5540   15.3650   28.3840 C.3   128  LEU128      0.0001
     37  CD2       31.8710   15.9230   29.1500 C.3   128  LEU128      0.0001
     38  N         33.9480   28.7260   41.8850 N.3   263  TYR263     -0.1241
     39  CA        34.5080   29.7570   40.9650 C.3   263  TYR263      0.1605
     40  C         33.7550   29.8720   39.6460 C.2   263  TYR263      0.2264
     41  O         33.5810   28.8490   38.9270 O.2   263  TYR263     -0.2867
     42  CB        35.9730   29.5870   40.6440 C.3   263  TYR263      0.0534
     43  CG        36.8490   30.1040   41.6850 C.ar  263  TYR263     -0.0201
     44  CD1       37.0190   29.3970   42.8890 C.ar  263  TYR263     -0.0009
     45  CD2       37.5860   31.3020   41.4710 C.ar  263  TYR263     -0.0009
     46  CE1       37.8830   29.8760   43.8870 C.ar  263  TYR263      0.0417
     47  CE2       38.4880   31.7900   42.4570 C.ar  263  TYR263      0.0417
     48  CZ        38.6140   31.0650   43.6550 C.ar  263  TYR263      0.1957
     49  OH        39.3960   31.5410   44.6330 O.3   263  TYR263     -0.2866
     50  N         34.0610   31.0710   36.4770 N.3   265  ASN265     -0.1225
     51  CA        34.6980   31.3340   35.1790 C.3   265  ASN265      0.1785
     52  C         34.5630   30.1290   34.3240 C.2   265  ASN265      0.2597
     53  O         34.9660   29.0320   34.7230 O.2   265  ASN265     -0.2718
     54  CB        36.1970   31.5860   35.3010 C.3   265  ASN265      0.1169
     55  CG        36.5140   32.6340   36.3120 C.2   265  ASN265      0.2627
     56  OD1       35.8820   33.6950   36.3340 O.2   265  ASN265     -0.2716
     57  ND2       37.4740   32.3300   37.2270 N.am  265  ASN265     -0.0877
     58  N         33.9850   30.3160   33.1640 N.am  266  ASP266     -0.1960
     59  CA        33.7820   29.2170   32.2680 C.3   266  ASP266      0.1840
     60  C         34.9470   29.2870   31.2960 C.2   266  ASP266      0.2622
     61  O         35.2160   30.3580   30.6110 O.2   266  ASP266     -0.2715
     62  CB        32.4620   29.3860   31.5370 C.3   266  ASP266      0.1450
     63  CG        32.1910   28.2270   30.5840 C.2   266  ASP266      0.3671
     64  OD1       31.6450   27.1500   30.9650 O.co2 266  ASP266     -0.2456
     65  OD2       32.5700   28.3780   29.3970 O.co2 266  ASP266     -0.2456
     66  N         35.6770   28.1830   31.2140 N.am  267  ASN267     -0.1958
     67  CA        36.6750   28.1340   30.1500 C.3   267  ASN267      0.1819
     68  C         37.7250   29.3240   30.3040 C.2   267  ASN267      0.2621
     69  O         38.0580   29.9910   29.3320 O.2   267  ASN267     -0.2715
     70  CB        35.8720   28.1270   28.8270 C.3   267  ASN267      0.1195
     71  CG        36.5520   27.3980   27.7270 C.2   267  ASN267      0.2630
     72  OD1       36.1870   26.3140   27.3550 O.2   267  ASN267     -0.2716
     73  ND2       37.5260   28.0070   27.1810 N.am  267  ASN267     -0.0877
     74  N         38.2010   29.5850   31.5430 N.am  268  PHE268     -0.1960
     75  CA        39.1840   30.6370   31.8630 C.3   268  PHE268      0.1771
     76  C         39.9020   30.2960   33.2010 C.2   268  PHE268      0.2620
     77  O         39.2330   30.1090   34.2510 O.2   268  PHE268     -0.2715
     78  CB        38.4770   32.0040   31.9650 C.3   268  PHE268      0.0574
     79  CG        39.3920   33.1590   32.2700 C.ar  268  PHE268     -0.0200
     80  CD1       40.1680   33.7500   31.2610 C.ar  268  PHE268     -0.0042
     81  CD2       39.4900   33.6670   33.5670 C.ar  268  PHE268     -0.0042
     82  CE1       41.0700   34.8080   31.5400 C.ar  268  PHE268     -0.0003
     83  CE2       40.4000   34.7550   33.8880 C.ar  268  PHE268     -0.0003
     84  CZ        41.2090   35.3180   32.8750 C.ar  268  PHE268     -0.0000
     85  N         41.2300   30.2380   33.1930 N.am  269  PHE269     -0.1960
     86  CA        41.9720   29.9910   34.4300 C.3   269  PHE269      0.1771
     87  C         42.2170   31.2950   35.2440 C.2   269  PHE269      0.2619
     88  O         42.6420   32.3230   34.6800 O.2   269  PHE269     -0.2715
     89  CB        43.3180   29.2900   34.0900 C.3   269  PHE269      0.0574
     90  CG        44.2110   28.9960   35.2790 C.ar  269  PHE269     -0.0200
     91  CD1       43.8070   28.1630   36.2930 C.ar  269  PHE269     -0.0042
     92  CD2       45.5160   29.5250   35.3300 C.ar  269  PHE269     -0.0042
     93  CE1       44.6570   27.8620   37.3530 C.ar  269  PHE269     -0.0003
     94  CE2       46.3760   29.2280   36.3480 C.ar  269  PHE269     -0.0003
     95  CZ        45.9440   28.3990   37.3690 C.ar  269  PHE269     -0.0000
     96  N         42.0080   31.2170   36.5630 N.am  270  GLU270     -0.1977
     97  CA        42.3930   32.3040   37.4520 C.3   270  GLU270      0.1602
     98  C         43.2300   31.6550   38.5800 C.2   270  GLU270      0.2287
     99  O         42.7310   30.8580   39.3590 O.2   270  GLU270     -0.2864
    100  CB        41.0970   32.9660   37.9550 C.3   270  GLU270      0.0415
    101  CG        41.0850   34.4900   38.1180 C.3   270  GLU270      0.1163
    102  CD        40.0000   34.9590   39.1480 C.2   270  GLU270      0.3649
    103  OE1       38.7790   34.7460   38.8930 O.co2 270  GLU270     -0.2457
    104  OE2       40.3350   35.5350   40.2260 O.co2 270  GLU270     -0.2457
    105  N         41.3200   28.6370   45.1120 N.3   275  ARG275     -0.1245
    106  CA        41.0500   27.6180   44.0580 C.3   275  ARG275      0.1563
    107  C         41.9720   26.4280   44.1810 C.2   275  ARG275      0.2260
    108  O         41.4990   25.3010   44.1520 O.2   275  ARG275     -0.2867
    109  CB        41.0510   28.2100   42.6450 C.3   275  ARG275      0.0307
    110  CG        40.9210   27.2450   41.4880 C.3   275  ARG275      0.0489
    111  CD        39.5670   26.5050   41.4350 C.3   275  ARG275      0.2205
    112  NE        39.4180   25.6970   40.2020 N.pl3 275  ARG275     -0.0865
    113  CZ        38.2760   25.3460   39.5770 C.cat 275  ARG275      0.5346
    114  NH1       37.0510   25.6770   40.0500 N.pl3 275  ARG275      0.1354
    115  NH2       38.3730   24.6190   38.4650 N.pl3 275  ARG275      0.1354
    116  N         39.0690   17.1440   33.1180 N.3   313  ASP313     -0.1239
    117  CA        40.0670   18.1720   32.8720 C.3   313  ASP313      0.1674
    118  C         41.1600   18.0760   33.9100 C.2   313  ASP313      0.2266
    119  O         41.2440   17.1170   34.6370 O.2   313  ASP313     -0.2867
    120  CB        39.4730   19.5980   32.7750 C.3   313  ASP313      0.1410
    121  CG        40.1620   20.3890   31.6940 C.2   313  ASP313      0.3668
    122  OD1       41.2590   20.7540   31.9680 O.co2 313  ASP313     -0.2456
    123  OD2       39.7370   20.5000   30.5350 O.co2 313  ASP313     -0.2456
    124  N         41.4870   19.9580   36.5310 N.3   315  HIS315     -0.1241
    125  CA        41.0830   20.4920   37.8410 C.3   315  HIS315      0.1621
    126  C         41.4370   19.5380   39.0360 C.2   315  HIS315      0.2264
    127  O         41.8630   20.0230   40.0670 O.2   315  HIS315     -0.2867
    128  CB        39.6310   21.0850   37.8510 C.3   315  HIS315      0.0745
    129  CG        39.3170   21.8840   36.6160 C.ar  315  HIS315      0.0817
    130  ND1       38.0670   21.9030   36.0200 N.ar  315  HIS315     -0.2268
    131  CD2       40.1230   22.6360   35.8160 C.ar  315  HIS315      0.1154
    132  CE1       38.1030   22.6920   34.9610 C.ar  315  HIS315      0.1986
    133  NE2       39.3500   23.1160   34.7930 N.ar  315  HIS315     -0.2212
    134  N         39.3150   19.2030   27.9010 N.3   351  HIS351     -0.1226
    135  CA        38.1170   19.8590   27.3600 C.3   351  HIS351      0.1752
    136  C         38.3150   21.1940   26.6460 C.2   351  HIS351      0.2596
    137  O         37.3580   21.8800   26.3390 O.2   351  HIS351     -0.2718
    138  CB        37.1340   20.1500   28.4790 C.3   351  HIS351      0.0759
    139  CG        36.6480   18.9560   29.1940 C.ar  351  HIS351      0.0818
    140  ND1       35.4220   18.4030   28.9280 N.ar  351  HIS351     -0.2268
    141  CD2       37.1980   18.2260   30.2020 C.ar  351  HIS351      0.1154
    142  CE1       35.2320   17.3650   29.7250 C.ar  351  HIS351      0.1986
    143  NE2       36.2910   17.2440   30.5200 N.ar  351  HIS351     -0.2212
    144  N         39.5170   21.6100   26.3970 N.am  352  THR352     -0.1953
    145  CA        39.6380   22.9010   25.7770 C.3   352  THR352      0.1897
    146  C         41.0300   23.1020   25.2180 C.2   352  THR352      0.2313
    147  O         42.0110   22.4760   25.6960 O.2   352  THR352     -0.2863
    148  CB        39.3720   24.0150   26.8060 C.3   352  THR352      0.1794
    149  OG1       39.3170   25.3460   26.1680 O.3   352  THR352     -0.2208
    150  CG2       40.4420   23.8340   28.1120 C.3   352  THR352      0.0378
    151  N         42.4560   29.0990   29.2250 N.3   357  ALA357     -0.1245
    152  CA        41.7560   28.0800   30.0510 C.3   357  ALA357      0.1562
    153  C         42.7280   27.0180   30.6280 C.2   357  ALA357      0.2260
    154  O         42.3380   26.2400   31.4860 O.2   357  ALA357     -0.2867
    155  CB        40.6740   27.3720   29.2390 C.3   357  ALA357      0.0290
    156  N         45.4010   25.3520   32.9240 N.3   359  GLU359     -0.1245
    157  CA        45.8650   25.5800   34.3020 C.3   359  GLU359      0.1567
    158  C         47.3640   25.5180   34.3280 C.2   359  GLU359      0.2260
    159  O         47.9260   24.4450   34.0150 O.2   359  GLU359     -0.2867
    160  CB        45.3300   24.4780   35.2130 C.3   359  GLU359      0.0388
    161  CG        43.9020   24.6670   35.5910 C.3   359  GLU359      0.1160
    162  CD        43.5050   23.7550   36.7310 C.2   359  GLU359      0.3649
    163  OE1       43.5310   22.4960   36.5960 O.co2 359  GLU359     -0.2457
    164  OE2       43.1700   24.3040   37.7950 O.co2 359  GLU359     -0.2457
    165  N         37.0920   15.4890   23.2050 N.3   429  VAL429     -0.1245
    166  CA        35.6400   15.4220   23.5300 C.3   429  VAL429      0.1561
    167  C         34.7070   15.5580   22.2890 C.2   429  VAL429      0.2260
    168  O         33.4830   15.4700   22.3930 O.2   429  VAL429     -0.2867
    169  CB        35.2420   16.3420   24.7340 C.3   429  VAL429      0.0252
    170  CG1       35.7620   15.8390   26.0440 C.3   429  VAL429      0.0019
    171  CG2       35.5850   17.8260   24.4510 C.3   429  VAL429      0.0019
    172  N         31.3130   13.6770   23.1180 N.3   458  ASN458     -0.1240
    173  CA        30.3540   13.9590   24.1610 C.3   458  ASN458      0.1653
    174  C         28.9580   13.4650   23.7100 C.2   458  ASN458      0.2266
    175  O         28.7260   13.1850   22.5290 O.2   458  ASN458     -0.2867
    176  CB        30.4150   15.4880   24.4150 C.3   458  ASN458      0.1155
    177  CG        31.6520   15.9130   25.2670 C.2   458  ASN458      0.2627
    178  OD1       32.3480   15.0340   25.8440 O.2   458  ASN458     -0.2716
    179  ND2       31.8830   17.2390   25.4490 N.am  458  ASN458     -0.0877
    180  N         34.7160   33.6620   22.1080 N.3   547  TYR547     -0.1227
    181  CA        34.8050   32.6350   21.0490 C.3   547  TYR547      0.1736
    182  C         33.4310   32.1280   20.6650 C.2   547  TYR547      0.2595
    183  O         33.2590   31.7170   19.5680 O.2   547  TYR547     -0.2718
    184  CB        35.7580   31.4970   21.3550 C.3   547  TYR547      0.0548
    185  CG        35.2210   30.4890   22.3190 C.ar  547  TYR547     -0.0200
    186  CD1       35.2730   30.6700   23.7290 C.ar  547  TYR547     -0.0009
    187  CD2       34.6710   29.3590   21.8250 C.ar  547  TYR547     -0.0009
    188  CE1       34.7680   29.7020   24.5770 C.ar  547  TYR547      0.0417
    189  CE2       34.1750   28.4060   22.6360 C.ar  547  TYR547      0.0417
    190  CZ        34.2070   28.5540   24.0120 C.ar  547  TYR547      0.1957
    191  OH        33.6160   27.4810   24.6610 O.3   547  TYR547     -0.2866
    192  N         32.4480   32.1760   21.5410 N.am  548  LYS548     -0.1980
    193  CA        31.1220   31.6590   21.1740 C.3   548  LYS548      0.1596
    194  C         30.3440   32.6120   20.2040 C.2   548  LYS548      0.2287
    195  O         29.2980   32.1780   19.6140 O.2   548  LYS548     -0.2864
    196  CB        30.2630   31.3260   22.4200 C.3   548  LYS548      0.0298
    197  CG        30.7180   30.1100   23.1810 C.3   548  LYS548      0.0038
    198  CD        30.1490   30.0510   24.6220 C.3   548  LYS548      0.0206
    199  CE        30.7580   28.9020   25.4600 C.3   548  LYS548      0.1093
    200  NZ        30.1420   27.5960   25.0390 N.3   548  LYS548     -0.1314
    201  N         37.5860   26.4310   18.1060 N.3   645  THR645     -0.1203
    202  CA        37.5920   26.9940   19.4390 C.3   645  THR645      0.1994
    203  C         36.6160   26.2870   20.3350 C.2   645  THR645      0.2618
    204  O         36.9220   26.1890   21.5180 O.2   645  THR645     -0.2717
    205  CB        37.3050   28.4910   19.4340 C.3   645  THR645      0.1784
    206  OG1       35.9090   28.6860   19.1010 O.3   645  THR645     -0.2211
    207  CG2       38.1940   29.2190   18.4120 C.3   645  THR645      0.0376
    208  N         35.4590   25.7890   19.8510 N.am  646  GLU646     -0.1965
    209  CA        34.5160   25.0870   20.7520 C.3   646  GLU646      0.1733
    210  C         34.8800   23.5510   20.8170 C.2   646  GLU646      0.2616
    211  O         34.7140   22.8380   19.8380 O.2   646  GLU646     -0.2715
    212  CB        33.0520   25.3280   20.3650 C.3   646  GLU646      0.0429
    213  CG        32.0160   24.7210   21.3480 C.3   646  GLU646      0.1163
    214  CD        31.8070   25.6160   22.6090 C.2   646  GLU646      0.3649
    215  OE1       31.0170   26.5700   22.6080 O.co2 646  GLU646     -0.2457
    216  OE2       32.4660   25.4070   23.6380 O.co2 646  GLU646     -0.2457
    217  N         35.4060   23.0740   21.9610 N.am  647  ALA647     -0.1963
    218  CA        35.9660   21.6930   22.0500 C.3   647  ALA647      0.1728
    219  C         35.0050   20.6350   21.5100 C.2   647  ALA647      0.2617
    220  O         35.3720   19.8180   20.6390 O.2   647  ALA647     -0.2715
    221  CB        36.4480   21.3320   23.4580 C.3   647  ALA647      0.0334
    222  N         33.7920   20.6670   22.0500 N.am  648  SER648     -0.1936
    223  CA        32.7420   19.9020   21.5590 C.3   648  SER648      0.2055
    224  C         31.4620   20.7120   21.4010 C.2   648  SER648      0.2644
    225  O         30.8600   20.6470   20.3200 O.2   648  SER648     -0.2714
    226  CB        32.4640   18.7210   22.4850 C.3   648  SER648      0.2130
    227  OG        31.2120   18.1250   22.1150 O.3   648  SER648     -0.2179
    228  N         31.0150   21.3710   22.4950 N.am  649  GLY649     -0.1939
    229  CA        29.6460   21.7520   22.6830 C.3   649  GLY649      0.2014
    230  C         28.6840   20.6270   23.0370 C.2   649  GLY649      0.2639
    231  O         28.8340   19.4990   22.5950 O.2   649  GLY649     -0.2714
    232  N         27.6580   20.9240   23.8300 N.am  650  THR650     -0.1950
    233  CA        26.6160   19.9460   24.0630 C.3   650  THR650      0.1897
    234  C         25.2210   20.5360   23.9490 C.2   650  THR650      0.2313
    235  O         24.2300   19.7680   23.7740 O.2   650  THR650     -0.2863
    236  CB        26.7630   19.2860   25.4270 C.3   650  THR650      0.1794
    237  OG1       26.8730   20.3270   26.3810 O.3   650  THR650     -0.2208
    238  CG2       28.0140   18.4030   25.4780 C.3   650  THR650      0.0378
@<TRIPOS>BOND
     1   201   202    1
     2   207   205    1
     3   206   205    1
     4   205   202    1
     5   202   203    1
     6   183   182    2
     7   195   194    2
     8   211   210    2
     9   208   203   am
    10   208   209    1
    11   194   193    1
    12   225   224    2
    13   203   204    2
    14   212   209    1
    15   212   213    1
    16   220   219    2
    17   182   181    1
    18   182   192   am
    19   209   210    1
    20   210   217   am
    21   181   184    1
    22   181   180    1
    23   193   192    1
    24   193   196    1
    25   213   214    1
    26   184   185    1
    27   224   223    1
    28   224   228   am
    29   219   222   am
    30   219   218    1
    31   223   222    1
    32   223   226    1
    33   187   185   ar
    34   187   189   ar
    35   217   218    1
    36   218   221    1
    37   227   226    1
    38   167   168    2
    39   167   166    1
    40   185   186   ar
    41   196   197    1
    42   228   229    1
    43   175   174    2
    44   231   230    2
    45   215   214   ar
    46   214   216   ar
    47   189   190   ar
    48   229   230    1
    49   230   232   am
    50   172   173    1
    51   197   198    1
    52   165   166    1
    53   166   169    1
    54   174   173    1
    55   186   188   ar
    56   235   234    2
    57   232   233    1
    58   234   233    1
    59   190   188   ar
    60   190   191    1
    61   233   236    1
    62   173   176    1
    63   176   177    1
    64   171   169    1
    65   198   199    1
    66   169   170    1
    67   200   199    1
    68   146   147    2
    69   146   145    1
    70   177   179   am
    71   177   178    2
    72   236   238    1
    73   236   237    1
    74   145   144    1
    75   145   148    1
    76   149   148    1
    77   137   136    2
    78   144   136   am
    79   136   135    1
    80   148   150    1
    81    73    71   am
    82    72    71    2
    83   135   134    1
    84   135   138    1
    85    71    70    1
    86    36    35    1
    87   138   139    1
    88    70    67    1
    89   140   139   ar
    90   140   142   ar
    91    37    35    1
    92   139   141   ar
    93   151   152    1
    94   155   152    1
    95    69    68    2
    96    65    63   ar
    97    19    18    1
    98    19    20    1
    99    35    34    1
   100   142   143   ar
   101   152   153    1
   102    67    68    1
   103    67    66    1
   104   141   143   ar
   105    20    21    2
   106    20    22   am
   107    68    74   am
   108    34    31    1
   109   123   121   ar
   110    63    64   ar
   111    63    62    1
   112    61    60    2
   113   153   154    2
   114    22    23    1
   115    31    30    1
   116    31    32    1
   117    66    60   am
   118    80    82   ar
   119    80    79   ar
   120    60    59    1
   121    62    59    1
   122    82    84   ar
   123    74    75    1
   124    23    26    1
   125    23    24    1
   126   121   122   ar
   127   121   120    1
   128    75    78    1
   129    75    76    1
   130    26    27    1
   131    78    79    1
   132    33    32    2
   133    59    58    1
   134    79    81   ar
   135    28    27    1
   136   120   117    1
   137    27    29    1
   138    24    25    2
   139   117   116    1
   140   117   118    1
   141    84    83   ar
   142   156   157    1
   143    58    52   am
   144    85    76   am
   145    85    86    1
   146    76    77    2
   147    13    12    2
   148    81    83   ar
   149    12    11    1
   150   118   119    2
   151   159   158    2
   152    89    86    1
   153    89    90    1
   154   157   158    1
   155   157   160    1
   156    52    53    2
   157    52    51    1
   158    86    87    1
   159    88    87    2
   160    14    11    1
   161    14    15    1
   162   133   132   ar
   163   133   131   ar
   164   132   130   ar
   165    11    10    1
   166    51    54    1
   167    51    50    1
   168   160   161    1
   169    87    96   am
   170    90    92   ar
   171    90    91   ar
   172    54    55    1
   173    92    94   ar
   174   161   162    1
   175   131   129   ar
   176    15    16    2
   177    15    17   am
   178     8     7   ar
   179   130   129   ar
   180    91    93   ar
   181    55    56    2
   182    55    57   am
   183    94    95   ar
   184   124   125    1
   185    96    97    1
   186   163   162   ar
   187   129   128    1
   188   162   164   ar
   189     7     9   ar
   190     7     6    1
   191    93    95   ar
   192    97   100    1
   193    97    98    1
   194     5     6    1
   195     5     2    1
   196   125   128    1
   197   125   126    1
   198     4     3    2
   199   100   101    1
   200   101   102    1
   201   115   113    1
   202     3     2    1
   203    98    99    2
   204     2     1    1
   205   103   102   ar
   206    41    40    2
   207   126   127    2
   208   102   104   ar
   209   113   114    1
   210   113   112    2
   211    40    39    1
   212   112   111    1
   213    42    39    1
   214    42    43    1
   215    39    38    1
   216   111   110    1
   217    45    43   ar
   218    45    47   ar
   219   110   109    1
   220    43    44   ar
   221    47    48   ar
   222   109   106    1
   223    44    46   ar
   224    48    46   ar
   225    48    49    1
   226   106   107    1
   227   106   105    1
   228   108   107    2
