@<TRIPOS>MOLECULE
tmp/5o58A00.pdb
 204 193 0 0 0
SMALL
GASTEIGER

@<TRIPOS>ATOM
      1  N         -8.5170   -8.8030  -15.2180 N.3    26  ASP26      -0.1239
      2  CA        -7.8980   -8.8240  -16.5400 C.3    26  ASP26       0.1674
      3  C         -8.3350  -10.0790  -17.3000 C.2    26  ASP26       0.2266
      4  O         -9.2300  -10.8140  -16.8650 O.2    26  ASP26      -0.2867
      5  CB        -6.3750   -8.7310  -16.4170 C.3    26  ASP26       0.1410
      6  CG        -5.7620   -9.9090  -15.6760 C.2    26  ASP26       0.3668
      7  OD1       -6.5060  -10.7660  -15.1570 O.co2  26  ASP26      -0.2456
      8  OD2       -4.5170   -9.9830  -15.6170 O.co2  26  ASP26      -0.2456
      9  N         -6.3280  -16.5570   -9.4380 N.3    83  ASN83      -0.1240
     10  CA        -5.4730  -15.5180  -10.0140 C.3    83  ASN83       0.1653
     11  C         -5.2720  -14.3290   -9.0900 C.2    83  ASN83       0.2266
     12  O         -4.7730  -13.2900   -9.5400 O.2    83  ASN83      -0.2867
     13  CB        -5.9970  -15.0140  -11.3640 C.3    83  ASN83       0.1155
     14  CG        -4.8910  -14.4320  -12.2290 C.2    83  ASN83       0.2627
     15  OD1       -3.8150  -15.0190  -12.3370 O.2    83  ASN83      -0.2716
     16  ND2       -5.1360  -13.2590  -12.8240 N.am   83  ASN83      -0.0877
     17  N         -3.4220  -12.7920   -5.7260 N.3    85  SER85      -0.1217
     18  CA        -2.2070  -13.0290   -4.9560 C.3    85  SER85       0.1889
     19  C         -2.4020  -12.8520   -3.4540 C.2    85  SER85       0.2288
     20  O         -1.5970  -13.3690   -2.6730 O.2    85  SER85      -0.2866
     21  CB        -1.1110  -12.0800   -5.4550 C.3    85  SER85       0.2089
     22  OG         0.1320  -12.2960   -4.8140 O.3    85  SER85      -0.2183
     23  N         -0.8240  -18.3270  -10.3200 N.3   107  HIS107     -0.1226
     24  CA         0.4820  -18.4300  -10.9070 C.3   107  HIS107      0.1752
     25  C          1.4270  -17.3360  -10.4110 C.2   107  HIS107      0.2596
     26  O          2.5360  -17.2980  -10.8050 O.2   107  HIS107     -0.2718
     27  CB         0.4150  -18.3670  -12.4440 C.3   107  HIS107      0.0759
     28  CG         0.2080  -16.9910  -12.9850 C.ar  107  HIS107      0.0818
     29  ND1       -1.0260  -16.4220  -13.1200 N.ar  107  HIS107     -0.2268
     30  CD2        1.0860  -16.0700  -13.4070 C.ar  107  HIS107      0.1154
     31  CE1       -0.9020  -15.2090  -13.6010 C.ar  107  HIS107      0.1986
     32  NE2        0.3730  -14.9680  -13.7700 N.ar  107  HIS107     -0.2212
     33  N          0.9630  -16.4640   -9.5420 N.am  108  HIS108     -0.1975
     34  CA         1.7980  -15.3600   -9.0790 C.3   108  HIS108      0.1656
     35  C          2.7500  -15.8430   -7.9940 C.2   108  HIS108      0.2291
     36  O          2.3200  -16.4480   -7.0070 O.2   108  HIS108     -0.2864
     37  CB         0.9310  -14.2160   -8.5510 C.3   108  HIS108      0.0771
     38  CG         0.1530  -13.5170   -9.6180 C.ar  108  HIS108      0.0820
     39  ND1       -1.1290  -13.8860   -9.9700 N.ar  108  HIS108     -0.2267
     40  CD2        0.4840  -12.4830  -10.4270 C.ar  108  HIS108      0.1154
     41  CE1       -1.5530  -13.1030  -10.9490 C.ar  108  HIS108      0.1986
     42  NE2       -0.5990  -12.2350  -11.2320 N.ar  108  HIS108     -0.2212
     43  N          4.1430  -14.0740   -5.8560 N.3   110  THR110     -0.1218
     44  CA         3.8720  -13.2850   -4.6590 C.3   110  THR110      0.1862
     45  C          2.6680  -13.7800   -3.8610 C.2   110  THR110      0.2287
     46  O          2.3240  -13.1640   -2.8430 O.2   110  THR110     -0.2866
     47  CB         3.6390  -11.8270   -5.0400 C.3   110  THR110      0.1770
     48  OG1        2.6730  -11.7730   -6.0950 O.3   110  THR110     -0.2211
     49  CG2        4.9400  -11.1660   -5.4850 C.3   110  THR110      0.0375
     50  N          2.3780  -19.3280  -17.4300 N.3   125  ALA125     -0.1245
     51  CA         2.1460  -17.9530  -17.8620 C.3   125  ALA125      0.1562
     52  C          0.8120  -17.4320  -17.3540 C.2   125  ALA125      0.2260
     53  O          0.6640  -16.2260  -17.1040 O.2   125  ALA125     -0.2867
     54  CB         2.1890  -17.8770  -19.3920 C.3   125  ALA125      0.0290
     55  N         -3.9350  -13.5200  -23.3460 N.3   156  THR156     -0.1203
     56  CA        -3.6480  -12.1860  -22.8080 C.3   156  THR156      0.1994
     57  C         -2.3530  -12.1680  -22.0040 C.2   156  THR156      0.2617
     58  O         -1.5680  -11.2140  -22.1100 O.2   156  THR156     -0.2717
     59  CB        -4.8150  -11.6410  -21.9710 C.3   156  THR156      0.1784
     60  OG1       -5.1470  -12.5430  -20.9050 O.3   156  THR156     -0.2211
     61  CG2       -6.0490  -11.3940  -22.8370 C.3   156  THR156      0.0376
     62  N         -2.0830  -13.2190  -21.2150 N.am  157  ASN157     -0.1974
     63  CA        -0.8910  -13.1480  -20.3770 C.3   157  ASN157      0.1688
     64  C          0.4020  -13.4210  -21.1380 C.2   157  ASN157      0.2292
     65  O          1.4800  -13.1810  -20.5880 O.2   157  ASN157     -0.2864
     66  CB        -1.0080  -14.1070  -19.1880 C.3   157  ASN157      0.1181
     67  CG        -1.5650  -13.4210  -17.9610 C.2   157  ASN157      0.2629
     68  OD1       -2.1520  -12.3330  -18.0550 O.2   157  ASN157     -0.2716
     69  ND2       -1.3750  -14.0300  -16.8050 N.am  157  ASN157     -0.0877
     70  N          0.7470  -11.8780  -24.1400 N.3   159  GLY159     -0.1225
     71  CA         0.7320  -10.8130  -25.1300 C.3   159  GLY159      0.1811
     72  C          0.3580  -11.3550  -26.4870 C.2   159  GLY159      0.2280
     73  O          0.8940  -10.8960  -27.5050 O.2   159  GLY159     -0.2866
     74  N          5.4810  -12.6540  -25.6700 N.3   163  HIS163     -0.1226
     75  CA         6.4100  -12.4080  -24.5770 C.3   163  HIS163      0.1752
     76  C          7.3320  -13.6060  -24.3560 C.2   163  HIS163      0.2597
     77  O          7.1980  -14.6620  -24.9830 O.2   163  HIS163     -0.2718
     78  CB         5.6450  -12.0550  -23.3040 C.3   163  HIS163      0.0759
     79  CG         4.7810  -10.8400  -23.4460 C.ar  163  HIS163      0.0818
     80  ND1        5.1410   -9.7620  -24.2270 N.ar  163  HIS163     -0.2268
     81  CD2        3.5650  -10.5440  -22.9300 C.ar  163  HIS163      0.1154
     82  CE1        4.1860   -8.8490  -24.1740 C.ar  163  HIS163      0.1986
     83  NE2        3.2220   -9.2990  -23.3920 N.ar  163  HIS163     -0.2212
     84  N          8.2890  -13.4390  -23.4290 N.am  164  SER164     -0.1938
     85  CA         9.2890  -14.4740  -23.1820 C.3   164  SER164      0.2055
     86  C          8.6760  -15.7670  -22.6650 C.2   164  SER164      0.2643
     87  O          9.3060  -16.8290  -22.7750 O.2   164  SER164     -0.2714
     88  CB        10.3330  -13.9710  -22.1800 C.3   164  SER164      0.2130
     89  OG        10.9520  -12.7870  -22.6430 O.3   164  SER164     -0.2179
     90  N          7.4660  -15.7040  -22.1120 N.am  165  ASN165     -0.1971
     91  CA         6.7850  -16.8780  -21.5880 C.3   165  ASN165      0.1688
     92  C          5.9970  -17.6380  -22.6450 C.2   165  ASN165      0.2292
     93  O          5.3390  -18.6320  -22.3110 O.2   165  ASN165     -0.2864
     94  CB         5.8630  -16.4990  -20.4090 C.3   165  ASN165      0.1181
     95  CG         4.8000  -15.4470  -20.7570 C.2   165  ASN165      0.2629
     96  OD1        4.0580  -14.9900  -19.8710 O.2   165  ASN165     -0.2716
     97  ND2        4.7240  -15.0540  -22.0120 N.am  165  ASN165     -0.0877
     98  N          4.0100   -1.2560  -22.5980 N.3   243  GLY243     -0.1225
     99  CA         4.5920   -2.0870  -23.6410 C.3   243  GLY243      0.1811
    100  C          4.8990   -1.3160  -24.9070 C.2   243  GLY243      0.2280
    101  O          5.8650   -1.6260  -25.6090 O.2   243  GLY243     -0.2866
    102  N          8.2740    0.1560  -24.2940 N.3   246  ARG246     -0.1245
    103  CA         9.3350   -0.8290  -24.4790 C.3   246  ARG246      0.1563
    104  C          9.5610   -1.1010  -25.9580 C.2   246  ARG246      0.2260
    105  O         10.6750   -1.4430  -26.3670 O.2   246  ARG246     -0.2867
    106  CB         9.0000   -2.1420  -23.7570 C.3   246  ARG246      0.0307
    107  CG         9.9770   -3.2930  -24.0740 C.3   246  ARG246      0.0489
    108  CD         9.6610   -4.5920  -23.2980 C.3   246  ARG246      0.2205
    109  NE         8.2940   -5.0590  -23.5180 N.pl3 246  ARG246     -0.0865
    110  CZ         7.7080   -6.0260  -22.8190 C.cat 246  ARG246      0.5346
    111  NH1        8.3710   -6.6620  -21.8400 N.pl3 246  ARG246      0.1354
    112  NH2        6.4460   -6.3610  -23.0970 N.pl3 246  ARG246      0.1354
    113  N          0.4190    3.4610   -9.3310 N.3   266  HIS266     -0.1241
    114  CA         0.8870    2.1730   -9.8070 C.3   266  HIS266      0.1621
    115  C          2.0690    2.3810  -10.7390 C.2   266  HIS266      0.2264
    116  O          2.0470    3.2660  -11.5960 O.2   266  HIS266     -0.2867
    117  CB        -0.2090    1.3950  -10.5340 C.3   266  HIS266      0.0745
    118  CG         0.2120    0.0120  -10.9190 C.ar  266  HIS266      0.0817
    119  ND1        0.5890   -0.9340   -9.9860 N.ar  266  HIS266     -0.2268
    120  CD2        0.3490   -0.5760  -12.1290 C.ar  266  HIS266      0.1154
    121  CE1        0.9230   -2.0510  -10.6080 C.ar  266  HIS266      0.1986
    122  NE2        0.7910   -1.8590  -11.9100 N.ar  266  HIS266     -0.2212
    123  N          4.3230    0.4410  -13.5100 N.3   268  SER268     -0.1217
    124  CA         4.4300   -0.7050  -14.4040 C.3   268  SER268      0.1889
    125  C          5.7840   -0.6660  -15.0910 C.2   268  SER268      0.2288
    126  O          6.1640    0.3600  -15.6600 O.2   268  SER268     -0.2866
    127  CB         3.3160   -0.7050  -15.4550 C.3   268  SER268      0.2089
    128  OG         2.1340   -1.2880  -14.9540 O.3   268  SER268     -0.2183
    129  N          8.6270   -2.7670  -17.7290 N.3   270  ARG270     -0.1245
    130  CA         8.7880   -3.7690  -18.7880 C.3   270  ARG270      0.1563
    131  C         10.2390   -3.7550  -19.2410 C.2   270  ARG270      0.2260
    132  O         10.8350   -2.6820  -19.3550 O.2   270  ARG270     -0.2867
    133  CB         7.8940   -3.4870  -20.0140 C.3   270  ARG270      0.0307
    134  CG         6.3950   -3.4590  -19.7670 C.3   270  ARG270      0.0489
    135  CD         5.8440   -4.8440  -19.3910 C.3   270  ARG270      0.2205
    136  NE         4.3930   -4.7790  -19.2350 N.pl3 270  ARG270     -0.0865
    137  CZ         3.7730   -4.6000  -18.0750 C.cat 270  ARG270      0.5346
    138  NH1        4.4750   -4.4760  -16.9470 N.pl3 270  ARG270      0.1354
    139  NH2        2.4490   -4.5340  -18.0390 N.pl3 270  ARG270      0.1354
    140  N          8.9070   -2.9900   -3.0850 N.3   285  GLY285     -0.1210
    141  CA         7.6780   -3.3960   -2.4360 C.3   285  GLY285      0.1956
    142  C          6.6650   -4.0830   -3.3230 C.2   285  GLY285      0.2612
    143  O          5.5360   -4.3190   -2.8720 O.2   285  GLY285     -0.2717
    144  N          7.0270   -4.4080   -4.5600 N.am  286  GLY286     -0.1942
    145  CA         6.1310   -5.0720   -5.4860 C.3   286  GLY286      0.2014
    146  C          6.6730   -6.4150   -5.9320 C.2   286  GLY286      0.2639
    147  O          7.1900   -7.1810   -5.1130 O.2   286  GLY286     -0.2714
    148  N          6.5860   -6.7070   -7.2230 N.am  287  GLY287     -0.1939
    149  CA         7.0580   -7.9840   -7.7140 C.3   287  GLY287      0.2014
    150  C          6.6080   -8.1970   -9.1420 C.2   287  GLY287      0.2639
    151  O          6.0920   -7.2860   -9.7930 O.2   287  GLY287     -0.2714
    152  N          6.8160   -9.4240   -9.6150 N.am  288  GLY288     -0.1939
    153  CA         6.4400   -9.7750  -10.9640 C.3   288  GLY288      0.2014
    154  C          7.4330  -10.6980  -11.6370 C.2   288  GLY288      0.2638
    155  O          8.0310  -11.5630  -10.9870 O.2   288  GLY288     -0.2714
    156  N          7.6190  -10.5100  -12.9370 N.am  289  HIS289     -0.1973
    157  CA         8.4370  -11.3650  -13.7790 C.3   289  HIS289      0.1656
    158  C          9.6860  -10.6300  -14.2440 C.2   289  HIS289      0.2291
    159  O          9.7260   -9.3960  -14.2370 O.2   289  HIS289     -0.2864
    160  CB         7.6300  -11.8210  -15.0020 C.3   289  HIS289      0.0771
    161  CG         6.2740  -12.3450  -14.6650 C.ar  289  HIS289      0.0820
    162  ND1        6.0780  -13.5960  -14.1220 N.ar  289  HIS289     -0.2267
    163  CD2        5.0450  -11.7920  -14.7940 C.ar  289  HIS289      0.1154
    164  CE1        4.7870  -13.7890  -13.9220 C.ar  289  HIS289      0.1986
    165  NE2        4.1370  -12.7100  -14.3210 N.ar  289  HIS289     -0.2212
    166  N         10.7170   -9.7810  -17.0720 N.3   291  ARG291     -0.1231
    167  CA        10.4690   -8.8160  -18.1340 C.3   291  ARG291      0.1694
    168  C          9.2310   -7.9570  -17.9170 C.2   291  ARG291      0.2592
    169  O          8.9740   -7.0600  -18.7310 O.2   291  ARG291     -0.2718
    170  CB        10.3440   -9.5300  -19.4870 C.3   291  ARG291      0.0321
    171  CG        11.5920  -10.2960  -19.9000 C.3   291  ARG291      0.0489
    172  CD        12.8440   -9.4190  -19.9040 C.3   291  ARG291      0.2205
    173  NE        14.0320  -10.2500  -20.0520 N.pl3 291  ARG291     -0.0865
    174  CZ        14.9380  -10.4520  -19.1030 C.cat 291  ARG291      0.5346
    175  NH1       14.8260   -9.8500  -17.9230 N.pl3 291  ARG291      0.1354
    176  NH2       15.9730  -11.2440  -19.3460 N.pl3 291  ARG291      0.1354
    177  N          8.4460   -8.2100  -16.8680 N.am  292  ALA292     -0.1966
    178  CA         7.2540   -7.3930  -16.6110 C.3   292  ALA292      0.1728
    179  C          6.8960   -7.4720  -15.1350 C.2   292  ALA292      0.2616
    180  O          6.6280   -8.5600  -14.6120 O.2   292  ALA292     -0.2715
    181  CB         6.0840   -7.8590  -17.4740 C.3   292  ALA292      0.0334
    182  N          6.8790   -6.3220  -14.4670 N.am  293  ALA293     -0.1963
    183  CA         6.6810   -6.3100  -13.0250 C.3   293  ALA293      0.1728
    184  C          6.1180   -4.9590  -12.6220 C.2   293  ALA293      0.2617
    185  O          6.0490   -4.0270  -13.4230 O.2   293  ALA293     -0.2715
    186  CB         7.9870   -6.5980  -12.2730 C.3   293  ALA293      0.0334
    187  N          5.7200   -4.8590  -11.3630 N.am  294  GLY294     -0.1940
    188  CA         5.1380   -3.5980  -10.9400 C.3   294  GLY294      0.2014
    189  C          5.1800   -3.4230   -9.4410 C.2   294  GLY294      0.2639
    190  O          5.5430   -4.3260   -8.6870 O.2   294  GLY294     -0.2714
    191  N          4.7900   -2.2250   -9.0150 N.am  295  VAL295     -0.1963
    192  CA         4.6790   -1.9210   -7.5960 C.3   295  VAL295      0.1727
    193  C          3.6420   -0.8160   -7.4500 C.2   295  VAL295      0.2616
    194  O          3.4460   -0.0020   -8.3570 O.2   295  VAL295     -0.2715
    195  CB         6.0590   -1.5400   -7.0010 C.3   295  VAL295      0.0290
    196  CG1        6.6930   -0.4220   -7.7680 C.3   295  VAL295      0.0023
    197  CG2        5.9510   -1.1810   -5.5140 C.3   295  VAL295      0.0023
    198  N          2.9340   -0.8210   -6.3230 N.am  296  THR296     -0.1951
    199  CA         1.8430    0.1180   -6.1020 C.3   296  THR296      0.1897
    200  C          2.0630    0.8330   -4.7820 C.2   296  THR296      0.2313
    201  O          2.4000    0.1930   -3.7810 O.2   296  THR296     -0.2863
    202  CB         0.4920   -0.5990   -6.0980 C.3   296  THR296      0.1794
    203  OG1        0.3490   -1.3300   -7.3260 O.3   296  THR296     -0.2208
    204  CG2       -0.6440    0.4020   -5.9810 C.3   296  THR296      0.0378
@<TRIPOS>BOND
     1    73    72    2
     2    72    71    1
     3   105   104    2
     4   104   103    1
     5    74    75    1
     6   101   100    2
     7    71    70    1
     8    77    76    2
     9   100    99    1
    10    75    76    1
    11    75    78    1
    12   103   102    1
    13   103   106    1
    14    76    84   am
    15    80    82   ar
    16    80    79   ar
    17    82    83   ar
    18   107   106    1
    19   107   108    1
    20    99    98    1
    21   109   108    1
    22   109   110    2
    23    79    78    1
    24    79    81   ar
    25    84    85    1
    26    83    81   ar
    27    55    56    1
    28    85    86    1
    29    85    88    1
    30   112   110    1
    31    61    59    1
    32   110   111    1
    33    56    57    1
    34    56    59    1
    35    87    86    2
    36    86    90   am
    37    92    93    2
    38    92    91    1
    39    89    88    1
    40    90    91    1
    41    58    57    2
    42    97    95   am
    43    57    62   am
    44    59    60    1
    45    91    94    1
    46    62    63    1
    47    64    65    2
    48    64    63    1
    49    95    94    1
    50    95    96    2
    51    63    66    1
    52   173   172    1
    53   173   174    2
    54   133   134    1
    55   133   130    1
    56   172   171    1
    57   171   170    1
    58   134   135    1
    59   170   167    1
    60    54    51    1
    61   135   136    1
    62   132   131    2
    63   176   174    1
    64   131   130    1
    65   136   137    2
    66    66    67    1
    67   174   175    1
    68   130   129    1
    69   169   168    2
    70   167   168    1
    71   167   166    1
    72   137   139    1
    73   137   138    1
    74    68    67    2
    75    67    69   am
    76   168   177   am
    77    51    50    1
    78    51    52    1
    79   181   178    1
    80    52    53    2
    81     3     4    2
    82     3     2    1
    83   177   178    1
    84   178   179    1
    85     2     5    1
    86     2     1    1
    87     5     6    1
    88     6     8   ar
    89     6     7   ar
    90   126   125    2
    91   127   128    1
    92   127   124    1
    93   179   180    2
    94   179   182   am
    95   125   124    1
    96   160   161    1
    97   160   157    1
    98   163   161   ar
    99   163   165   ar
   100   161   162   ar
   101   182   183    1
   102   124   123    1
   103   165   164   ar
   104   158   159    2
   105   158   157    1
   106   162   164   ar
   107   157   156    1
   108    32    31   ar
   109    32    30   ar
   110    31    29   ar
   111   185   184    2
   112    30    28   ar
   113    29    28   ar
   114   183   184    1
   115   183   186    1
   116    28    27    1
   117   156   154   am
   118    16    14   am
   119   184   187   am
   120    27    24    1
   121    15    14    2
   122    14    13    1
   123   120   122   ar
   124   120   118   ar
   125   122   121   ar
   126   154   155    2
   127   154   153    1
   128   116   115    2
   129    13    10    1
   130   187   188    1
   131    42    41   ar
   132    42    40   ar
   133   153   152    1
   134    41    39   ar
   135   188   189    1
   136   118   117    1
   137   118   119   ar
   138    24    25    1
   139    24    23    1
   140    26    25    2
   141   115   114    1
   142   121   119   ar
   143   117   114    1
   144    40    38   ar
   145    25    33   am
   146    10     9    1
   147    10    11    1
   148    39    38   ar
   149   114   113    1
   150   151   150    2
   151    38    37    1
   152   152   150   am
   153    33    34    1
   154    12    11    2
   155   189   191   am
   156   189   190    2
   157   150   149    1
   158    34    37    1
   159    34    35    1
   160   191   192    1
   161   194   193    2
   162    35    36    2
   163   196   195    1
   164   149   148    1
   165   192   193    1
   166   192   195    1
   167   193   198   am
   168   203   202    1
   169   148   146   am
   170   195   197    1
   171   198   199    1
   172   199   202    1
   173   199   200    1
   174   202   204    1
   175    48    47    1
   176   146   145    1
   177   146   147    2
   178    43    44    1
   179    17    18    1
   180   145   144    1
   181    49    47    1
   182    21    18    1
   183    21    22    1
   184    47    44    1
   185    18    19    1
   186   200   201    2
   187    44    45    1
   188   144   142   am
   189    45    46    2
   190    19    20    2
   191   142   143    2
   192   142   141    1
   193   140   141    1
