@<TRIPOS>MOLECULE
tmp/5o59B04.pdb
 146 146 0 0 0
SMALL
GASTEIGER

@<TRIPOS>ATOM
      1  N         -0.9540   12.6120   11.3370 N.3    36  ASN36      -0.1225
      2  CA        -0.1250   11.5560   10.7070 C.3    36  ASN36       0.1785
      3  C         -0.3670   10.1400   11.2250 C.2    36  ASN36       0.2597
      4  O         -0.1830    9.1620   10.4770 O.2    36  ASN36      -0.2718
      5  CB         1.3820   11.8620   10.7920 C.3    36  ASN36       0.1169
      6  CG         1.9930   12.1480    9.4420 C.2    36  ASN36       0.2627
      7  OD1        1.3530   12.7730    8.6010 O.2    36  ASN36      -0.2716
      8  ND2        3.2450   11.7070    9.2310 N.am   36  ASN36      -0.0877
      9  N         -0.7530   10.0220   12.4940 N.am   37  TRP37      -0.1962
     10  CA        -0.9880    8.7260   13.1050 C.3    37  TRP37       0.1771
     11  C         -2.3610    8.1520   12.7290 C.2    37  TRP37       0.2619
     12  O         -2.6360    7.0070   13.0510 O.2    37  TRP37      -0.2715
     13  CB        -0.8790    8.8260   14.6360 C.3    37  TRP37       0.0590
     14  CG         0.5050    8.6870   15.1760 C.ar   37  TRP37       0.0006
     15  CD1        1.0060    7.6130   15.8390 C.ar   37  TRP37       0.0946
     16  CD2        1.5550    9.6700   15.1510 C.ar   37  TRP37       0.0152
     17  NE1        2.2990    7.8460   16.2110 N.ar   37  TRP37      -0.2442
     18  CE2        2.6650    9.1020   15.8050 C.ar   37  TRP37       0.0810
     19  CE3        1.6700   10.9670   14.6180 C.ar   37  TRP37       0.0012
     20  CZ2        3.8790    9.7770   15.9520 C.ar   37  TRP37       0.0191
     21  CZ3        2.8810   11.6430   14.7700 C.ar   37  TRP37       0.0001
     22  CH2        3.9710   11.0420   15.4290 C.ar   37  TRP37       0.0015
     23  N         -3.2160    8.9320   12.0720 N.am   38  ARG38      -0.1963
     24  CA        -4.6020    8.5380   11.8310 C.3    38  ARG38       0.1729
     25  C         -4.7770    7.7350   10.5590 C.2    38  ARG38       0.2616
     26  O         -4.0650    7.9370    9.5660 O.2    38  ARG38      -0.2715
     27  CB        -5.5070    9.7660   11.7540 C.3    38  ARG38       0.0348
     28  CG        -5.5700   10.5390   13.0480 C.3    38  ARG38       0.0492
     29  CD        -6.3750   11.8090   12.9260 C.3    38  ARG38       0.2205
     30  NE        -6.2830   12.5600   14.1750 N.pl3  38  ARG38      -0.0865
     31  CZ        -6.9720   12.3040   15.2910 C.cat  38  ARG38       0.5346
     32  NH1       -7.8590   11.3100   15.3440 N.pl3  38  ARG38       0.1354
     33  NH2       -6.7610   13.0540   16.3730 N.pl3  38  ARG38       0.1354
     34  N         -5.7390    6.8160   10.6230 N.am   39  TRP39      -0.1960
     35  CA        -6.2740    6.1130    9.4660 C.3    39  TRP39       0.1771
     36  C         -6.8790    7.1350    8.5180 C.2    39  TRP39       0.2620
     37  O         -7.6650    7.9850    8.9520 O.2    39  TRP39      -0.2715
     38  CB        -7.3390    5.1170    9.9530 C.3    39  TRP39       0.0590
     39  CG        -8.0430    4.3130    8.9030 C.ar   39  TRP39       0.0006
     40  CD1       -7.5960    4.0060    7.6450 C.ar   39  TRP39       0.0946
     41  CD2       -9.3240    3.6770    9.0400 C.ar   39  TRP39       0.0152
     42  NE1       -8.5290    3.2300    6.9870 N.ar   39  TRP39      -0.2442
     43  CE2       -9.5960    3.0110    7.8200 C.ar   39  TRP39       0.0810
     44  CE3      -10.2710    3.6110   10.0750 C.ar   39  TRP39       0.0012
     45  CZ2      -10.7850    2.2860    7.6040 C.ar   39  TRP39       0.0191
     46  CZ3      -11.4570    2.8960    9.8550 C.ar   39  TRP39       0.0001
     47  CH2      -11.6930    2.2370    8.6260 C.ar   39  TRP39       0.0015
     48  N         -6.5010    7.0780    7.2400 N.am   40  THR40      -0.1951
     49  CA        -7.0790    7.9690    6.2240 C.3    40  THR40       0.1897
     50  C         -7.6570    7.1560    5.0670 C.2    40  THR40       0.2313
     51  O         -6.9410    6.3820    4.4420 O.2    40  THR40      -0.2863
     52  CB        -6.0590    9.0120    5.7100 C.3    40  THR40       0.1794
     53  OG1       -6.6530    9.8170    4.6790 O.3    40  THR40      -0.2208
     54  CG2       -4.8050    8.3340    5.1760 C.3    40  THR40       0.0378
     55  N         -4.1360    6.0140    2.0710 N.3    50  TYR50      -0.1227
     56  CA        -2.7520    5.7200    2.3870 C.3    50  TYR50       0.1736
     57  C         -2.7220    4.3920    3.1050 C.2    50  TYR50       0.2595
     58  O         -3.4840    4.1730    4.0430 O.2    50  TYR50      -0.2718
     59  CB        -2.1980    6.8220    3.2840 C.3    50  TYR50       0.0548
     60  CG        -0.7370    6.7270    3.6330 C.ar   50  TYR50      -0.0200
     61  CD1        0.2340    7.3030    2.8070 C.ar   50  TYR50      -0.0009
     62  CD2       -0.3200    6.1150    4.8140 C.ar   50  TYR50      -0.0009
     63  CE1        1.5840    7.2500    3.1430 C.ar   50  TYR50       0.0417
     64  CE2        1.0260    6.0510    5.1570 C.ar   50  TYR50       0.0417
     65  CZ         1.9730    6.6200    4.3220 C.ar   50  TYR50       0.1957
     66  OH         3.3050    6.5690    4.6580 O.3    50  TYR50      -0.2866
     67  N         -1.8410    3.5150    2.6560 N.am   51  ASN51      -0.1960
     68  CA        -1.6560    2.2130    3.2650 C.3    51  ASN51       0.1819
     69  C         -0.1860    1.8240    3.1920 C.2    51  ASN51       0.2621
     70  O          0.4340    1.9330    2.1270 O.2    51  ASN51      -0.2715
     71  CB        -2.5070    1.1770    2.5430 C.3    51  ASN51       0.1195
     72  CG        -2.5570   -0.1440    3.2850 C.2    51  ASN51       0.2630
     73  OD1       -3.3140   -0.3070    4.2440 O.2    51  ASN51      -0.2716
     74  ND2       -1.7350   -1.0870    2.8570 N.am   51  ASN51      -0.0877
     75  N          0.3570    1.3550    4.3170 N.am   52  GLY52      -0.1954
     76  CA         1.7870    1.0900    4.4430 C.3    52  GLY52       0.1869
     77  C          2.5370    2.4130    4.3640 C.2    52  GLY52       0.2309
     78  O          2.4450    3.2450    5.2730 O.2    52  GLY52      -0.2863
     79  N         -4.8260    1.6110   20.6240 N.3    80  THR80      -0.1203
     80  CA        -3.9960    1.6480   19.4270 C.3    80  THR80       0.1994
     81  C         -2.7040    2.4400   19.6580 C.2    80  THR80       0.2617
     82  O         -1.6480    2.0440   19.1860 O.2    80  THR80      -0.2717
     83  CB        -4.7970    2.2410   18.2470 C.3    80  THR80       0.1784
     84  OG1       -5.9580    1.4280   18.0190 O.3    80  THR80      -0.2211
     85  CG2       -3.9890    2.2830   16.9840 C.3    80  THR80       0.0376
     86  N         -2.7960    3.5510   20.3870 N.am   81  TYR81      -0.1975
     87  CA        -1.6940    4.5150   20.4440 C.3    81  TYR81       0.1639
     88  C         -0.9660    4.6020   21.7820 C.2    81  TYR81       0.2290
     89  O          0.0110    5.3450   21.8920 O.2    81  TYR81      -0.2864
     90  CB        -2.2150    5.8830   20.0100 C.3    81  TYR81       0.0560
     91  CG        -2.7290    5.8740   18.5880 C.ar   81  TYR81      -0.0198
     92  CD1       -1.8450    5.7430   17.5010 C.ar   81  TYR81      -0.0009
     93  CD2       -4.0920    5.9520   18.3170 C.ar   81  TYR81      -0.0009
     94  CE1       -2.3200    5.7080   16.1970 C.ar   81  TYR81       0.0417
     95  CE2       -4.5660    5.9270   17.0210 C.ar   81  TYR81       0.0417
     96  CZ        -3.6810    5.8130   15.9660 C.ar   81  TYR81       0.1957
     97  OH        -4.1870    5.7860   14.6900 O.3    81  TYR81      -0.2866
     98  N         -1.9100   -3.2010   14.3870 N.3   100  ASN100     -0.1225
     99  CA        -0.5340   -3.0180   13.9210 C.3   100  ASN100      0.1785
    100  C          0.3750   -2.6450   15.0820 C.2   100  ASN100      0.2597
    101  O         -0.1020   -2.2990   16.1640 O.2   100  ASN100     -0.2718
    102  CB        -0.5040   -1.8890   12.8960 C.3   100  ASN100      0.1169
    103  CG        -1.3200   -2.2140   11.6720 C.2   100  ASN100      0.2627
    104  OD1       -0.9780   -3.1350   10.9340 O.2   100  ASN100     -0.2716
    105  ND2       -2.4290   -1.4950   11.4700 N.am  100  ASN100     -0.0877
    106  N          1.6800   -2.7090   14.8410 N.am  101  LYS101     -0.1966
    107  CA         2.6680   -2.1560   15.7570 C.3   101  LYS101      0.1728
    108  C          2.6850   -0.6360   15.5690 C.2   101  LYS101      0.2616
    109  O          2.9800   -0.1710   14.4760 O.2   101  LYS101     -0.2715
    110  CB         4.0460   -2.7310   15.4450 C.3   101  LYS101      0.0311
    111  CG         5.1620   -2.2700   16.3630 C.3   101  LYS101      0.0038
    112  CD         6.4410   -3.0440   16.0850 C.3   101  LYS101      0.0206
    113  CE         7.6440   -2.1340   16.0320 C.3   101  LYS101      0.1093
    114  NZ         8.9040   -2.8550   15.6870 N.3   101  LYS101     -0.1314
    115  N          2.3120    0.1160   16.6040 N.am  102  ASN102     -0.1972
    116  CA         2.4720    1.5810   16.6130 C.3   102  ASN102      0.1688
    117  C          3.6460    1.9130   17.5110 C.2   102  ASN102      0.2292
    118  O          3.7590    1.3440   18.5990 O.2   102  ASN102     -0.2864
    119  CB         1.2260    2.2790   17.1430 C.3   102  ASN102      0.1181
    120  CG         1.4090    3.7870   17.2650 C.2   102  ASN102      0.2629
    121  OD1        1.4520    4.4940   16.2640 O.2   102  ASN102     -0.2716
    122  ND2        1.5160    4.2800   18.4990 N.am  102  ASN102     -0.0877
    123  N          1.7040   13.7390    6.0060 N.3   180  LYS180     -0.1245
    124  CA         0.8160   13.3390    4.9250 C.3   180  LYS180      0.1561
    125  C         -0.1060   14.4610    4.4600 C.2   180  LYS180      0.2260
    126  O         -0.4460   14.5300    3.2790 O.2   180  LYS180     -0.2867
    127  CB         0.0310   12.0880    5.3240 C.3   180  LYS180      0.0271
    128  CG         0.8940   10.8340    5.2680 C.3   180  LYS180      0.0035
    129  CD         0.1740    9.6050    5.8070 C.3   180  LYS180      0.0206
    130  CE         0.2260    9.5220    7.3200 C.3   180  LYS180      0.1093
    131  NZ        -0.0820    8.1510    7.8230 N.3   180  LYS180     -0.1314
    132  N          6.0360    2.2460    7.3760 N.3   199  ASN199     -0.1225
    133  CA         4.8800    3.1020    7.6150 C.3   199  ASN199      0.1785
    134  C          5.0640    4.5580    7.2350 C.2   199  ASN199      0.2597
    135  O          4.0800    5.2940    7.2220 O.2   199  ASN199     -0.2718
    136  CB         4.4950    3.0210    9.0890 C.3   199  ASN199      0.1169
    137  CG         3.8510    1.7010    9.4370 C.2   199  ASN199      0.2627
    138  OD1        2.8120    1.3380    8.8820 O.2   199  ASN199     -0.2716
    139  ND2        4.4680    0.9730   10.3500 N.am  199  ASN199     -0.0877
    140  N          6.2970    4.9680    6.9330 N.am  200  THR200     -0.1953
    141  CA         6.6190    6.3830    6.7140 C.3   200  THR200      0.1897
    142  C          7.2030    6.6330    5.3290 C.2   200  THR200      0.2313
    143  O          7.6130    5.7080    4.6260 O.2   200  THR200     -0.2863
    144  CB         7.5870    6.9130    7.7950 C.3   200  THR200      0.1794
    145  OG1        8.8720    6.3110    7.6490 O.3   200  THR200     -0.2208
    146  CG2        7.0530    6.6060    9.1800 C.3   200  THR200      0.0378
@<TRIPOS>BOND
     1    55    56    1
     2    70    69    2
     3    56    57    1
     4    56    59    1
     5    71    68    1
     6    71    72    1
     7    67    57   am
     8    67    68    1
     9    61    63   ar
    10    61    60   ar
    11    74    72   am
    12    57    58    2
    13    63    65   ar
    14    69    68    1
    15    69    75   am
    16   126   125    2
    17    59    60    1
    18    72    73    2
    19    60    62   ar
    20    75    76    1
    21    65    66    1
    22    65    64   ar
    23    77    76    1
    24    77    78    2
    25    51    50    2
    26   125   124    1
    27   143   142    2
    28    53    52    1
    29    62    64   ar
    30   124   127    1
    31   124   123    1
    32    50    49    1
    33    54    52    1
    34   128   127    1
    35   128   129    1
    36   142   141    1
    37    52    49    1
    38   129   130    1
    39    49    48    1
    40   141   140    1
    41   141   144    1
    42   140   134   am
    43    42    40   ar
    44    42    43   ar
    45   135   134    2
    46   134   133    1
    47    48    36   am
    48   130   131    1
    49   132   133    1
    50    45    43   ar
    51    45    47   ar
    52   133   136    1
    53    40    39   ar
    54   145   144    1
    55   144   146    1
    56    43    41   ar
    57    36    37    2
    58    36    35    1
    59     7     6    2
    60    47    46   ar
    61   138   137    2
    62    39    41   ar
    63    39    38    1
    64    41    44   ar
    65   136   137    1
    66     8     6   am
    67   137   139   am
    68     6     5    1
    69    35    38    1
    70    35    34    1
    71    26    25    2
    72    46    44   ar
    73     4     3    2
    74    25    34   am
    75    25    24    1
    76     2     5    1
    77     2     3    1
    78     2     1    1
    79   104   103    2
    80     3     9   am
    81   105   103   am
    82   103   102    1
    83    27    24    1
    84    27    28    1
    85    24    23    1
    86    23    11   am
    87     9    10    1
    88    11    12    2
    89    11    10    1
    90   102    99    1
    91    29    28    1
    92    29    30    1
    93    10    13    1
    94    99    98    1
    95    99   100    1
    96    30    31    2
    97   109   108    2
    98    19    21   ar
    99    19    16   ar
   100    13    14    1
   101    97    96    1
   102    21    22   ar
   103   106   100   am
   104   106   107    1
   105   100   101    2
   106    16    14   ar
   107    16    18   ar
   108    14    15   ar
   109    31    32    1
   110    31    33    1
   111    22    20   ar
   112   110   107    1
   113   110   111    1
   114   108   107    1
   115   108   115   am
   116   114   113    1
   117    18    20   ar
   118    18    17   ar
   119    15    17   ar
   120    96    94   ar
   121    96    95   ar
   122   113   112    1
   123   112   111    1
   124    94    92   ar
   125   121   120    2
   126   115   116    1
   127   116   119    1
   128   116   117    1
   129    85    83    1
   130    95    93   ar
   131   119   120    1
   132   120   122   am
   133    92    91   ar
   134   117   118    2
   135    84    83    1
   136    83    80    1
   137    93    91   ar
   138    91    90    1
   139    82    81    2
   140    80    81    1
   141    80    79    1
   142    81    86   am
   143    90    87    1
   144    86    87    1
   145    87    88    1
   146    88    89    2
