@<TRIPOS>MOLECULE
tmp/5o59B07.pdb
 108 106 0 0 0
SMALL
GASTEIGER

@<TRIPOS>ATOM
      1  N         17.1450   17.0010    8.3360 N.3   245  THR245     -0.1218
      2  CA        17.8720   15.7380    8.1860 C.3   245  THR245      0.1862
      3  C         17.6100   15.0530    6.8390 C.2   245  THR245      0.2287
      4  O         18.5330   14.4790    6.2590 O.2   245  THR245     -0.2866
      5  CB        17.5720   14.7830    9.3660 C.3   245  THR245      0.1770
      6  OG1       18.0260   15.3960   10.5810 O.3   245  THR245     -0.2211
      7  CG2       18.2700   13.4300    9.1930 C.3   245  THR245      0.0375
      8  N         21.1820   20.2260    4.6470 N.3   250  ARG250     -0.1231
      9  CA        20.6680   20.5200    5.9890 C.3   250  ARG250      0.1694
     10  C         20.2890   22.0020    6.2650 C.2   250  ARG250      0.2592
     11  O         19.2800   22.2850    6.9300 O.2   250  ARG250     -0.2718
     12  CB        21.7440   20.0830    6.9930 C.3   250  ARG250      0.0321
     13  CG        21.2020   19.8710    8.3690 C.3   250  ARG250      0.0489
     14  CD        22.1990   19.2810    9.3580 C.3   250  ARG250      0.2205
     15  NE        21.6090   19.4470   10.6780 N.pl3 250  ARG250     -0.0865
     16  CZ        20.5810   18.7510   11.1620 C.cat 250  ARG250      0.5346
     17  NH1       20.0400   17.7420   10.4800 N.pl3 250  ARG250      0.1354
     18  NH2       20.0950   19.0570   12.3660 N.pl3 250  ARG250      0.1354
     19  N         21.1110   22.9170    5.7510 N.am  251  TYR251     -0.1976
     20  CA        21.0540   24.3470    6.0620 C.3   251  TYR251      0.1639
     21  C         20.5380   25.2190    4.9270 C.2   251  TYR251      0.2290
     22  O         20.5910   26.4590    5.0180 O.2   251  TYR251     -0.2864
     23  CB        22.4510   24.8090    6.4470 C.3   251  TYR251      0.0560
     24  CG        23.0010   23.9940    7.5640 C.ar  251  TYR251     -0.0198
     25  CD1       22.3940   24.0240    8.8190 C.ar  251  TYR251     -0.0009
     26  CD2       24.1130   23.1580    7.3820 C.ar  251  TYR251     -0.0009
     27  CE1       22.8770   23.2660    9.8590 C.ar  251  TYR251      0.0417
     28  CE2       24.6050   22.3950    8.4290 C.ar  251  TYR251      0.0417
     29  CZ        23.9850   22.4500    9.6720 C.ar  251  TYR251      0.1957
     30  OH        24.4490   21.6880   10.7290 O.3   251  TYR251     -0.2866
     31  N         17.6480   23.9150   11.8310 N.3   257  PRO257     -0.2102
     32  CA        17.3810   22.5770   12.3630 C.3   257  PRO257      0.1504
     33  C         18.3320   22.0940   13.4630 C.2   257  PRO257      0.2575
     34  O         18.0780   21.0360   14.0450 O.2   257  PRO257     -0.2718
     35  CB        17.5540   21.7090   11.1360 C.3   257  PRO257      0.0282
     36  CG        18.6850   22.3700   10.4330 C.3   257  PRO257      0.0208
     37  CD        18.4120   23.8400   10.5740 C.3   257  PRO257      0.0893
     38  N         19.4290   22.8120   13.7190 N.am  258  ASP258     -0.1974
     39  CA        20.3620   22.4410   14.7880 C.3   258  ASP258      0.1708
     40  C         19.9230   23.0120   16.1340 C.2   258  ASP258      0.2293
     41  O         19.8000   22.2840   17.1280 O.2   258  ASP258     -0.2864
     42  CB        21.7780   22.9350   14.4830 C.3   258  ASP258      0.1436
     43  CG        22.4420   22.1980   13.3110 C.2   258  ASP258      0.3671
     44  OD1       21.8610   21.2300   12.7560 O.co2 258  ASP258     -0.2456
     45  OD2       23.5730   22.5920   12.9720 O.co2 258  ASP258     -0.2456
     46  N         21.5610   24.3590   21.3590 N.3   261  ASP261     -0.1239
     47  CA        21.1930   23.3020   22.3330 C.3   261  ASP261      0.1674
     48  C         22.0090   23.3910   23.6140 C.2   261  ASP261      0.2266
     49  O         23.2040   23.7020   23.5720 O.2   261  ASP261     -0.2867
     50  CB        21.3940   21.9210   21.7180 C.3   261  ASP261      0.1410
     51  CG        22.8330   21.6510   21.3930 C.2   261  ASP261      0.3668
     52  OD1       23.3910   22.3970   20.5470 O.co2 261  ASP261     -0.2456
     53  OD2       23.4170   20.7220   21.9940 O.co2 261  ASP261     -0.2456
     54  N         26.9550   17.2940   27.3370 N.3   266  ARG266     -0.1245
     55  CA        27.6850   17.8150   26.2010 C.3   266  ARG266      0.1563
     56  C         28.5410   19.0240   26.6060 C.2   266  ARG266      0.2260
     57  O         29.5850   19.2560   26.0150 O.2   266  ARG266     -0.2867
     58  CB        26.7350   18.1990   25.0650 C.3   266  ARG266      0.0307
     59  CG        27.4350   18.3620   23.7260 C.3   266  ARG266      0.0489
     60  CD        26.4780   18.7580   22.6100 C.3   266  ARG266      0.2205
     61  NE        27.1870   18.8030   21.3300 N.pl3 266  ARG266     -0.0865
     62  CZ        26.8470   19.5430   20.2770 C.cat 266  ARG266      0.5346
     63  NH1       25.7720   20.3300   20.2940 N.pl3 266  ARG266      0.1354
     64  NH2       27.5990   19.4930   19.1780 N.pl3 266  ARG266      0.1354
     65  N         22.8880   11.6680   18.6970 N.3   375  TRP375     -0.1241
     66  CA        23.0320   13.1150   18.8870 C.3   375  TRP375      0.1605
     67  C         22.6300   13.5710   20.3010 C.2   375  TRP375      0.2264
     68  O         23.1440   14.5830   20.7940 O.2   375  TRP375     -0.2867
     69  CB        22.2060   13.8800   17.8330 C.3   375  TRP375      0.0550
     70  CG        20.7320   13.6040   17.9360 C.ar  375  TRP375      0.0003
     71  CD1       20.0440   12.6010   17.3220 C.ar  375  TRP375      0.0946
     72  CD2       19.7890   14.2910   18.7600 C.ar  375  TRP375      0.0152
     73  NE1       18.7260   12.6340   17.6890 N.ar  375  TRP375     -0.2442
     74  CE2       18.5370   13.6550   18.5790 C.ar  375  TRP375      0.0810
     75  CE3       19.8760   15.3820   19.6250 C.ar  375  TRP375      0.0012
     76  CZ2       17.3770   14.0900   19.2200 C.ar  375  TRP375      0.0191
     77  CZ3       18.7280   15.8060   20.2820 C.ar  375  TRP375      0.0001
     78  CH2       17.4910   15.1620   20.0720 C.ar  375  TRP375      0.0015
     79  N         28.6390   11.5660   18.8020 N.3   380  TYR380     -0.1228
     80  CA        28.0750   11.8800   17.4860 C.3   380  TYR380      0.1721
     81  C         28.6840   13.1960   16.9570 C.2   380  TYR380      0.2437
     82  O         28.9010   14.1000   17.7580 O.2   380  TYR380     -0.2733
     83  CB        26.5600   12.0220   17.6030 C.3   380  TYR380      0.0547
     84  CG        25.8460   11.9980   16.2860 C.ar  380  TYR380     -0.0200
     85  CD1       25.5480   10.7860   15.6600 C.ar  380  TYR380     -0.0009
     86  CD2       25.4760   13.1790   15.6530 C.ar  380  TYR380     -0.0009
     87  CE1       24.8880   10.7580   14.4480 C.ar  380  TYR380      0.0417
     88  CE2       24.8140   13.1620   14.4420 C.ar  380  TYR380      0.0417
     89  CZ        24.5230   11.9480   13.8470 C.ar  380  TYR380      0.1957
     90  OH        23.8730   11.9330   12.6440 O.3   380  TYR380     -0.2866
     91  N         28.9840   13.3280   15.6540 N.am  381  PRO381     -0.2729
     92  CA        28.8160   12.2970   14.6200 C.3   381  PRO381      0.1401
     93  C         29.7000   11.0870   14.8300 C.2   381  PRO381      0.2269
     94  O         30.6190   11.1210   15.6480 O.2   381  PRO381     -0.2865
     95  CB        29.2390   13.0180   13.3250 C.3   381  PRO381      0.0296
     96  CG        29.1650   14.4690   13.6400 C.3   381  PRO381      0.0237
     97  CD        29.5330   14.5720   15.0870 C.3   381  PRO381      0.0939
     98  N         27.7360   13.4420   23.9840 N.3   393  ARG393     -0.1245
     99  CA        26.4670   13.9700   24.5160 C.3   393  ARG393      0.1563
    100  C         25.8420   13.1090   25.6170 C.2   393  ARG393      0.2260
    101  O         24.8960   13.5410   26.2840 O.2   393  ARG393     -0.2867
    102  CB        25.4570   14.1960   23.3920 C.3   393  ARG393      0.0307
    103  CG        25.9760   15.0490   22.2390 C.3   393  ARG393      0.0489
    104  CD        26.2970   14.1890   21.0240 C.3   393  ARG393      0.2205
    105  NE        26.9720   14.9110   19.9440 N.pl3 393  ARG393     -0.0865
    106  CZ        26.3900   15.7840   19.1170 C.cat 393  ARG393      0.5346
    107  NH1       25.0900   16.0990   19.2180 N.pl3 393  ARG393      0.1354
    108  NH2       27.1240   16.3590   18.1630 N.pl3 393  ARG393      0.1354
@<TRIPOS>BOND
     1     8     9    1
     2    21    22    2
     3    21    20    1
     4    19    20    1
     5    19    10   am
     6     9    10    1
     7     9    12    1
     8    20    23    1
     9     4     3    2
    10    10    11    2
    11    23    24    1
    12     3     2    1
    13    12    13    1
    14    26    24   ar
    15    26    28   ar
    16    24    25   ar
    17     2     1    1
    18     2     5    1
    19    13    14    1
    20    28    29   ar
    21    25    27   ar
    22     7     5    1
    23    14    15    1
    24     5     6    1
    25    29    27   ar
    26    29    30    1
    27    36    37    1
    28    36    35    1
    29    17    16    1
    30    37    31    1
    31    15    16    2
    32    35    32    1
    33    16    18    1
    34    31    32    1
    35    32    33    1
    36    90    89    1
    37    44    43   ar
    38    45    43   ar
    39    43    42    1
    40    95    96    1
    41    95    92    1
    42    33    38   am
    43    33    34    2
    44    96    97    1
    45    38    39    1
    46    89    88   ar
    47    89    87   ar
    48    88    86   ar
    49    87    85   ar
    50    42    39    1
    51    92    93    1
    52    92    91    1
    53    39    40    1
    54    93    94    2
    55    97    91    1
    56    86    84   ar
    57    91    81   am
    58    85    84   ar
    59    40    41    2
    60    84    83    1
    61    81    80    1
    62    81    82    2
    63    71    73   ar
    64    71    70   ar
    65    80    83    1
    66    80    79    1
    67    73    74   ar
    68    69    70    1
    69    69    66    1
    70    70    72   ar
    71   108   106    1
    72    74    72   ar
    73    74    76   ar
    74    65    66    1
    75    72    75   ar
    76    66    67    1
    77   106   107    1
    78   106   105    2
    79    64    62    1
    80    76    78   ar
    81    75    77   ar
    82   105   104    1
    83    78    77   ar
    84    62    63    1
    85    62    61    2
    86    67    68    2
    87    52    51   ar
    88   104   103    1
    89    61    60    1
    90    46    47    1
    91    51    50    1
    92    51    53   ar
    93    50    47    1
    94   103   102    1
    95    47    48    1
    96    60    59    1
    97   102    99    1
    98    49    48    2
    99    59    58    1
   100    98    99    1
   101    99   100    1
   102    58    55    1
   103   100   101    2
   104    57    56    2
   105    55    56    1
   106    55    54    1
