@<TRIPOS>MOLECULE
tmp/5o59B08.pdb
 129 122 0 0 0
SMALL
GASTEIGER

@<TRIPOS>ATOM
      1  N         12.5090   21.4790   11.8290 N.3   174  GLN174     -0.1245
      2  CA        13.0370   20.5140   10.8620 C.3   174  GLN174      0.1566
      3  C         12.3430   20.6060    9.5050 C.2   174  GLN174      0.2260
      4  O         12.8080   19.9860    8.5400 O.2   174  GLN174     -0.2867
      5  CB        12.9120   19.0690   11.3860 C.3   174  GLN174      0.0367
      6  CG        13.5920   18.8190   12.7240 C.3   174  GLN174      0.0905
      7  CD        15.0810   19.1280   12.6980 C.2   174  GLN174      0.2608
      8  OE1       15.7760   18.7220   11.7830 O.2   174  GLN174     -0.2717
      9  NE2       15.5680   19.8530   13.7060 N.am  174  GLN174     -0.0878
     10  N         10.4180   26.6960   16.7420 N.3   211  GLU211     -0.1245
     11  CA        10.3730   25.5860   17.6690 C.3   211  GLU211      0.1567
     12  C         11.2140   25.8770   18.9060 C.2   211  GLU211      0.2260
     13  O         12.3900   26.2170   18.7900 O.2   211  GLU211     -0.2867
     14  CB        10.8690   24.3170   16.9850 C.3   211  GLU211      0.0388
     15  CG        10.9860   23.0930   17.8880 C.3   211  GLU211      0.1160
     16  CD        11.2960   21.8160   17.1190 C.2   211  GLU211      0.3649
     17  OE1       11.6160   21.8760   15.8980 O.co2 211  GLU211     -0.2457
     18  OE2       11.2110   20.7330   17.7290 O.co2 211  GLU211     -0.2457
     19  N         12.3810   23.7470   21.9210 N.3   213  ASP213     -0.1239
     20  CA        12.5020   22.4170   22.5260 C.3   213  ASP213      0.1674
     21  C         12.8920   22.5220   23.9840 C.2   213  ASP213      0.2266
     22  O         14.0790   22.5620   24.3360 O.2   213  ASP213     -0.2867
     23  CB        13.4620   21.5220   21.7470 C.3   213  ASP213      0.1410
     24  CG        12.9560   21.1980   20.3580 C.2   213  ASP213      0.3668
     25  OD1       11.7580   20.8670   20.2030 O.co2 213  ASP213     -0.2456
     26  OD2       13.7650   21.2340   19.4180 O.co2 213  ASP213     -0.2456
     27  N         13.9660   17.3880   25.5770 N.3   216  GLU216     -0.1245
     28  CA        14.1790   16.1960   24.7570 C.3   216  GLU216      0.1567
     29  C         15.0700   15.3450   25.6010 C.2   216  GLU216      0.2260
     30  O         16.1800   15.7480   25.8970 O.2   216  GLU216     -0.2867
     31  CB        14.8570   16.5380   23.4210 C.3   216  GLU216      0.0388
     32  CG        13.9460   17.3170   22.4710 C.3   216  GLU216      0.1160
     33  CD        14.5780   17.5510   21.1180 C.2   216  GLU216      0.3649
     34  OE1       14.4830   16.6450   20.2560 O.co2 216  GLU216     -0.2457
     35  OE2       15.1760   18.6390   20.9230 O.co2 216  GLU216     -0.2457
     36  N         16.6300   23.3140   23.7450 N.3   225  THR225     -0.1218
     37  CA        17.0870   23.8400   22.4270 C.3   225  THR225      0.1862
     38  C         16.0850   24.7990   21.7430 C.2   225  THR225      0.2287
     39  O         15.0550   24.3520   21.2140 O.2   225  THR225     -0.2866
     40  CB        17.3950   22.6830   21.4480 C.3   225  THR225      0.1770
     41  OG1       18.2230   21.6850   22.0770 O.3   225  THR225     -0.2211
     42  CG2       18.0950   23.1940   20.2080 C.3   225  THR225      0.0375
     43  N         15.0500   26.8770   18.4280 N.3   227  HIS227     -0.1241
     44  CA        15.2740   26.8170   16.9610 C.3   227  HIS227      0.1621
     45  C         14.4780   27.9550   16.2890 C.2   227  HIS227      0.2264
     46  O         13.2390   27.8420   16.1580 O.2   227  HIS227     -0.2867
     47  CB        14.7140   25.5210   16.3610 C.3   227  HIS227      0.0745
     48  CG        15.3850   24.2520   16.8000 C.ar  227  HIS227      0.0817
     49  ND1       16.2830   23.5740   16.0030 N.ar  227  HIS227     -0.2268
     50  CD2       15.1900   23.4710   17.8890 C.ar  227  HIS227      0.1154
     51  CE1       16.6470   22.4540   16.6050 C.ar  227  HIS227      0.1986
     52  NE2       15.9930   22.3620   17.7500 N.ar  227  HIS227     -0.2212
     53  N         17.1450   17.0010    8.3360 N.3   245  THR245     -0.1218
     54  CA        17.8720   15.7380    8.1860 C.3   245  THR245      0.1862
     55  C         17.6100   15.0530    6.8390 C.2   245  THR245      0.2287
     56  O         18.5330   14.4790    6.2590 O.2   245  THR245     -0.2866
     57  CB        17.5720   14.7830    9.3660 C.3   245  THR245      0.1770
     58  OG1       18.0260   15.3960   10.5810 O.3   245  THR245     -0.2211
     59  CG2       18.2700   13.4300    9.1930 C.3   245  THR245      0.0375
     60  N         21.1820   20.2260    4.6470 N.3   250  ARG250     -0.1245
     61  CA        20.6680   20.5200    5.9890 C.3   250  ARG250      0.1563
     62  C         20.2890   22.0020    6.2650 C.2   250  ARG250      0.2260
     63  O         19.2800   22.2850    6.9300 O.2   250  ARG250     -0.2867
     64  CB        21.7440   20.0830    6.9930 C.3   250  ARG250      0.0307
     65  CG        21.2020   19.8710    8.3690 C.3   250  ARG250      0.0489
     66  CD        22.1990   19.2810    9.3580 C.3   250  ARG250      0.2205
     67  NE        21.6090   19.4470   10.6780 N.pl3 250  ARG250     -0.0865
     68  CZ        20.5810   18.7510   11.1620 C.cat 250  ARG250      0.5346
     69  NH1       20.0400   17.7420   10.4800 N.pl3 250  ARG250      0.1354
     70  NH2       20.0950   19.0570   12.3660 N.pl3 250  ARG250      0.1354
     71  N         17.6480   23.9150   11.8310 N.3   257  PRO257     -0.2102
     72  CA        17.3810   22.5770   12.3630 C.3   257  PRO257      0.1504
     73  C         18.3320   22.0940   13.4630 C.2   257  PRO257      0.2575
     74  O         18.0780   21.0360   14.0450 O.2   257  PRO257     -0.2718
     75  CB        17.5540   21.7090   11.1360 C.3   257  PRO257      0.0282
     76  CG        18.6850   22.3700   10.4330 C.3   257  PRO257      0.0208
     77  CD        18.4120   23.8400   10.5740 C.3   257  PRO257      0.0893
     78  N         19.4290   22.8120   13.7190 N.am  258  ASP258     -0.1974
     79  CA        20.3620   22.4410   14.7880 C.3   258  ASP258      0.1708
     80  C         19.9230   23.0120   16.1340 C.2   258  ASP258      0.2293
     81  O         19.8000   22.2840   17.1280 O.2   258  ASP258     -0.2864
     82  CB        21.7780   22.9350   14.4830 C.3   258  ASP258      0.1436
     83  CG        22.4420   22.1980   13.3110 C.2   258  ASP258      0.3671
     84  OD1       21.8610   21.2300   12.7560 O.co2 258  ASP258     -0.2456
     85  OD2       23.5730   22.5920   12.9720 O.co2 258  ASP258     -0.2456
     86  N         21.5610   24.3590   21.3590 N.3   261  ASP261     -0.1239
     87  CA        21.1930   23.3020   22.3330 C.3   261  ASP261      0.1674
     88  C         22.0090   23.3910   23.6140 C.2   261  ASP261      0.2266
     89  O         23.2040   23.7020   23.5720 O.2   261  ASP261     -0.2867
     90  CB        21.3940   21.9210   21.7180 C.3   261  ASP261      0.1410
     91  CG        22.8330   21.6510   21.3930 C.2   261  ASP261      0.3668
     92  OD1       23.3910   22.3970   20.5470 O.co2 261  ASP261     -0.2456
     93  OD2       23.4170   20.7220   21.9940 O.co2 261  ASP261     -0.2456
     94  N          9.3510    9.3240   20.6750 N.3   366  TRP366     -0.1241
     95  CA         9.8130    8.8090   19.3990 C.3   366  TRP366      0.1605
     96  C         11.1660    8.1440   19.4990 C.2   366  TRP366      0.2264
     97  O         11.9110    8.3860   20.4560 O.2   366  TRP366     -0.2867
     98  CB         9.8350    9.9140   18.3290 C.3   366  TRP366      0.0550
     99  CG        10.7020   11.1330   18.6110 C.ar  366  TRP366      0.0003
    100  CD1       10.4680   12.1190   19.5220 C.ar  366  TRP366      0.0946
    101  CD2       11.9140   11.4910   17.9350 C.ar  366  TRP366      0.0152
    102  NE1       11.4630   13.0770   19.4620 N.ar  366  TRP366     -0.2442
    103  CE2       12.3580   12.7220   18.4860 C.ar  366  TRP366      0.0810
    104  CE3       12.6550   10.9060   16.9010 C.ar  366  TRP366      0.0012
    105  CZ2       13.5360   13.3500   18.0620 C.ar  366  TRP366      0.0191
    106  CZ3       13.8200   11.5330   16.4620 C.ar  366  TRP366      0.0001
    107  CH2       14.2460   12.7510   17.0410 C.ar  366  TRP366      0.0015
    108  N         14.4830    7.1590   16.5160 N.3   368  ASP368     -0.1239
    109  CA        15.1280    7.9690   15.4960 C.3   368  ASP368      0.1674
    110  C         15.7140    7.1200   14.3650 C.2   368  ASP368      0.2266
    111  O         16.8310    6.5980   14.4680 O.2   368  ASP368     -0.2867
    112  CB        16.1990    8.7990   16.1980 C.3   368  ASP368      0.1410
    113  CG        17.0140    9.6740   15.2580 C.2   368  ASP368      0.3668
    114  OD1       16.6920    9.8350   14.0490 O.co2 368  ASP368     -0.2456
    115  OD2       18.0320   10.1990   15.7520 O.co2 368  ASP368     -0.2456
    116  N         22.8880   11.6680   18.6970 N.3   375  TRP375     -0.1241
    117  CA        23.0320   13.1150   18.8870 C.3   375  TRP375      0.1605
    118  C         22.6300   13.5710   20.3010 C.2   375  TRP375      0.2264
    119  O         23.1440   14.5830   20.7940 O.2   375  TRP375     -0.2867
    120  CB        22.2060   13.8800   17.8330 C.3   375  TRP375      0.0550
    121  CG        20.7320   13.6040   17.9360 C.ar  375  TRP375      0.0003
    122  CD1       20.0440   12.6010   17.3220 C.ar  375  TRP375      0.0946
    123  CD2       19.7890   14.2910   18.7600 C.ar  375  TRP375      0.0152
    124  NE1       18.7260   12.6340   17.6890 N.ar  375  TRP375     -0.2442
    125  CE2       18.5370   13.6550   18.5790 C.ar  375  TRP375      0.0810
    126  CE3       19.8760   15.3820   19.6250 C.ar  375  TRP375      0.0012
    127  CZ2       17.3770   14.0900   19.2200 C.ar  375  TRP375      0.0191
    128  CZ3       18.7280   15.8060   20.2820 C.ar  375  TRP375      0.0001
    129  CH2       17.4910   15.1620   20.0720 C.ar  375  TRP375      0.0015
@<TRIPOS>BOND
     1    60    61    1
     2    61    62    1
     3    61    64    1
     4    56    55    2
     5    62    63    2
     6    55    54    1
     7    64    65    1
     8    54    53    1
     9    54    57    1
    10    65    66    1
    11     4     3    2
    12    59    57    1
    13    66    67    1
    14    57    58    1
    15     3     2    1
    16    76    77    1
    17    76    75    1
    18    69    68    1
    19    77    71    1
    20    67    68    2
    21     2     5    1
    22     2     1    1
    23    75    72    1
    24    68    70    1
    25     5     6    1
    26     8     7    2
    27    71    72    1
    28    72    73    1
    29     7     6    1
    30     7     9   am
    31    84    83   ar
    32    85    83   ar
    33    83    82    1
    34    73    78   am
    35    73    74    2
    36    78    79    1
    37   114   113   ar
    38   110   111    2
    39   110   109    1
    40    82    79    1
    41    79    80    1
    42   113   115   ar
    43   113   112    1
    44   109   112    1
    45   109   108    1
    46    17    16   ar
    47    49    51   ar
    48    49    48   ar
    49    80    81    2
    50    46    45    2
    51    45    44    1
    52    47    48    1
    53    47    44    1
    54   106   104   ar
    55   106   107   ar
    56    51    52   ar
    57    10    11    1
    58    48    50   ar
    59   104   101   ar
    60    44    43    1
    61    14    11    1
    62    14    15    1
    63   107   105   ar
    64    16    18   ar
    65    16    15    1
    66   122   124   ar
    67   122   121   ar
    68    11    12    1
    69   124   125   ar
    70    52    50   ar
    71   120   121    1
    72   120   117    1
    73   101   103   ar
    74   101    99   ar
    75   121   123   ar
    76   105   103   ar
    77    98    99    1
    78    98    95    1
    79   103   102   ar
    80   125   123   ar
    81   125   127   ar
    82    99   100   ar
    83   116   117    1
    84   123   126   ar
    85    13    12    2
    86   117   118    1
    87   127   129   ar
    88    95    96    1
    89    95    94    1
    90    26    24   ar
    91   102   100   ar
    92    96    97    2
    93   126   128   ar
    94   129   128   ar
    95    25    24   ar
    96    42    40    1
    97    34    33   ar
    98   118   119    2
    99    24    23    1
   100    92    91   ar
   101    35    33   ar
   102    33    32    1
   103    39    38    2
   104    86    87    1
   105    91    90    1
   106    91    93   ar
   107    40    41    1
   108    40    37    1
   109    90    87    1
   110    38    37    1
   111    23    20    1
   112    19    20    1
   113    87    88    1
   114    37    36    1
   115    32    31    1
   116    20    21    1
   117    31    28    1
   118    89    88    2
   119    21    22    2
   120    28    27    1
   121    28    29    1
   122    29    30    2
