@<TRIPOS>MOLECULE
tmp/5o59B06.pdb
 110 106 0 0 0
SMALL
GASTEIGER

@<TRIPOS>ATOM
      1  N         -0.9540   12.6120   11.3370 N.3    36  ASN36      -0.1225
      2  CA        -0.1250   11.5560   10.7070 C.3    36  ASN36       0.1785
      3  C         -0.3670   10.1400   11.2250 C.2    36  ASN36       0.2597
      4  O         -0.1830    9.1620   10.4770 O.2    36  ASN36      -0.2718
      5  CB         1.3820   11.8620   10.7920 C.3    36  ASN36       0.1169
      6  CG         1.9930   12.1480    9.4420 C.2    36  ASN36       0.2627
      7  OD1        1.3530   12.7730    8.6010 O.2    36  ASN36      -0.2716
      8  ND2        3.2450   11.7070    9.2310 N.am   36  ASN36      -0.0877
      9  N         -0.7530   10.0220   12.4940 N.am   37  TRP37      -0.1976
     10  CA        -0.9880    8.7260   13.1050 C.3    37  TRP37       0.1640
     11  C         -2.3610    8.1520   12.7290 C.2    37  TRP37       0.2290
     12  O         -2.6360    7.0070   13.0510 O.2    37  TRP37      -0.2864
     13  CB        -0.8790    8.8260   14.6360 C.3    37  TRP37       0.0576
     14  CG         0.5050    8.6870   15.1760 C.ar   37  TRP37       0.0006
     15  CD1        1.0060    7.6130   15.8390 C.ar   37  TRP37       0.0946
     16  CD2        1.5550    9.6700   15.1510 C.ar   37  TRP37       0.0152
     17  NE1        2.2990    7.8460   16.2110 N.ar   37  TRP37      -0.2442
     18  CE2        2.6650    9.1020   15.8050 C.ar   37  TRP37       0.0810
     19  CE3        1.6700   10.9670   14.6180 C.ar   37  TRP37       0.0012
     20  CZ2        3.8790    9.7770   15.9520 C.ar   37  TRP37       0.0191
     21  CZ3        2.8810   11.6430   14.7700 C.ar   37  TRP37       0.0001
     22  CH2        3.9710   11.0420   15.4290 C.ar   37  TRP37       0.0015
     23  N         -2.7960    3.5510   20.3870 N.3    81  TYR81      -0.1241
     24  CA        -1.6940    4.5150   20.4440 C.3    81  TYR81       0.1605
     25  C         -0.9660    4.6020   21.7820 C.2    81  TYR81       0.2264
     26  O          0.0110    5.3450   21.8920 O.2    81  TYR81      -0.2867
     27  CB        -2.2150    5.8830   20.0100 C.3    81  TYR81       0.0534
     28  CG        -2.7290    5.8740   18.5880 C.ar   81  TYR81      -0.0201
     29  CD1       -1.8450    5.7430   17.5010 C.ar   81  TYR81      -0.0009
     30  CD2       -4.0920    5.9520   18.3170 C.ar   81  TYR81      -0.0009
     31  CE1       -2.3200    5.7080   16.1970 C.ar   81  TYR81       0.0417
     32  CE2       -4.5660    5.9270   17.0210 C.ar   81  TYR81       0.0417
     33  CZ        -3.6810    5.8130   15.9660 C.ar   81  TYR81       0.1957
     34  OH        -4.1870    5.7860   14.6900 O.3    81  TYR81      -0.2866
     35  N          1.6800   -2.7090   14.8410 N.3   101  LYS101     -0.1231
     36  CA         2.6680   -2.1560   15.7570 C.3   101  LYS101      0.1693
     37  C          2.6850   -0.6360   15.5690 C.2   101  LYS101      0.2592
     38  O          2.9800   -0.1710   14.4760 O.2   101  LYS101     -0.2718
     39  CB         4.0460   -2.7310   15.4450 C.3   101  LYS101      0.0285
     40  CG         5.1620   -2.2700   16.3630 C.3   101  LYS101      0.0035
     41  CD         6.4410   -3.0440   16.0850 C.3   101  LYS101      0.0206
     42  CE         7.6440   -2.1340   16.0320 C.3   101  LYS101      0.1093
     43  NZ         8.9040   -2.8550   15.6870 N.3   101  LYS101     -0.1314
     44  N          2.3120    0.1160   16.6040 N.am  102  ASN102     -0.1960
     45  CA         2.4720    1.5810   16.6130 C.3   102  ASN102      0.1819
     46  C          3.6460    1.9130   17.5110 C.2   102  ASN102      0.2621
     47  O          3.7590    1.3440   18.5990 O.2   102  ASN102     -0.2715
     48  CB         1.2260    2.2790   17.1430 C.3   102  ASN102      0.1195
     49  CG         1.4090    3.7870   17.2650 C.2   102  ASN102      0.2630
     50  OD1        1.4520    4.4940   16.2640 O.2   102  ASN102     -0.2716
     51  ND2        1.5160    4.2800   18.4990 N.am  102  ASN102     -0.0877
     52  N          4.4990    2.8500   17.0770 N.am  103  VAL103     -0.1977
     53  CA         5.6850    3.2270   17.8490 C.3   103  VAL103      0.1596
     54  C          5.6210    4.7110   18.2000 C.2   103  VAL103      0.2287
     55  O          5.8290    5.5650   17.3380 O.2   103  VAL103     -0.2864
     56  CB         6.9990    2.8700   17.1240 C.3   103  VAL103      0.0276
     57  CG1        8.2040    3.2320   17.9860 C.3   103  VAL103      0.0022
     58  CG2        7.0270    1.3850   16.7830 C.3   103  VAL103      0.0022
     59  N          7.6920   14.3370    6.2070 N.3   178  ASP178     -0.1239
     60  CA         7.0150   13.0670    6.4390 C.3   178  ASP178      0.1674
     61  C          5.5140   13.2040    6.6690 C.2   178  ASP178      0.2266
     62  O          4.8090   12.1990    6.7560 O.2   178  ASP178     -0.2867
     63  CB         7.6410   12.3380    7.6280 C.3   178  ASP178      0.1410
     64  CG         7.3710   13.0420    8.9490 C.2   178  ASP178      0.3668
     65  OD1        7.9050   14.1600    9.1440 O.co2 178  ASP178     -0.2456
     66  OD2        6.6230   12.4860    9.7730 O.co2 178  ASP178     -0.2456
     67  N          1.7040   13.7390    6.0060 N.3   180  LYS180     -0.1245
     68  CA         0.8160   13.3390    4.9250 C.3   180  LYS180      0.1561
     69  C         -0.1060   14.4610    4.4600 C.2   180  LYS180      0.2260
     70  O         -0.4460   14.5300    3.2790 O.2   180  LYS180     -0.2867
     71  CB         0.0310   12.0880    5.3240 C.3   180  LYS180      0.0271
     72  CG         0.8940   10.8340    5.2680 C.3   180  LYS180      0.0035
     73  CD         0.1740    9.6050    5.8070 C.3   180  LYS180      0.0206
     74  CE         0.2260    9.5220    7.3200 C.3   180  LYS180      0.1093
     75  NZ        -0.0820    8.1510    7.8230 N.3   180  LYS180     -0.1314
     76  N         11.6030    2.0490    6.8660 N.3   197  ASN197     -0.1240
     77  CA        10.3680    2.1320    7.6660 C.3   197  ASN197      0.1653
     78  C          9.1310    1.8850    6.7990 C.2   197  ASN197      0.2266
     79  O          8.8230    2.6630    5.8940 O.2   197  ASN197     -0.2867
     80  CB        10.2770    3.5010    8.3570 C.3   197  ASN197      0.1155
     81  CG         9.2170    3.5490    9.4550 C.2   197  ASN197      0.2627
     82  OD1        8.1200    3.0120    9.3160 O.2   197  ASN197     -0.2716
     83  ND2        9.5440    4.2160   10.5500 N.am  197  ASN197     -0.0877
     84  N          6.0360    2.2460    7.3760 N.3   199  ASN199     -0.1225
     85  CA         4.8800    3.1020    7.6150 C.3   199  ASN199      0.1785
     86  C          5.0640    4.5580    7.2350 C.2   199  ASN199      0.2597
     87  O          4.0800    5.2940    7.2220 O.2   199  ASN199     -0.2718
     88  CB         4.4950    3.0210    9.0890 C.3   199  ASN199      0.1169
     89  CG         3.8510    1.7010    9.4370 C.2   199  ASN199      0.2627
     90  OD1        2.8120    1.3380    8.8820 O.2   199  ASN199     -0.2716
     91  ND2        4.4680    0.9730   10.3500 N.am  199  ASN199     -0.0877
     92  N          6.2970    4.9680    6.9330 N.am  200  THR200     -0.1953
     93  CA         6.6190    6.3830    6.7140 C.3   200  THR200      0.1897
     94  C          7.2030    6.6330    5.3290 C.2   200  THR200      0.2313
     95  O          7.6130    5.7080    4.6260 O.2   200  THR200     -0.2863
     96  CB         7.5870    6.9130    7.7950 C.3   200  THR200      0.1794
     97  OG1        8.8720    6.3110    7.6490 O.3   200  THR200     -0.2208
     98  CG2        7.0530    6.6060    9.1800 C.3   200  THR200      0.0378
     99  N         14.9540    7.0110   13.2790 N.3   369  TYR369     -0.1241
    100  CA        15.4070    6.2720   12.1010 C.3   369  TYR369      0.1605
    101  C         16.6390    6.8840   11.4380 C.2   369  TYR369      0.2264
    102  O         17.4630    6.1520   10.9110 O.2   369  TYR369     -0.2867
    103  CB        14.2610    6.0710   11.0990 C.3   369  TYR369      0.0534
    104  CG        13.3590    4.9320   11.5180 C.ar  369  TYR369     -0.0201
    105  CD1       12.3330    5.1300   12.4380 C.ar  369  TYR369     -0.0009
    106  CD2       13.5670    3.6410   11.0330 C.ar  369  TYR369     -0.0009
    107  CE1       11.5190    4.0780   12.8390 C.ar  369  TYR369      0.0417
    108  CE2       12.7560    2.5880   11.4200 C.ar  369  TYR369      0.0417
    109  CZ        11.7380    2.8090   12.3250 C.ar  369  TYR369      0.1957
    110  OH        10.9390    1.7680   12.7180 O.3   369  TYR369     -0.2866
@<TRIPOS>BOND
     1    70    69    2
     2    69    68    1
     3    95    94    2
     4    68    71    1
     5    68    67    1
     6    72    71    1
     7    72    73    1
     8    94    93    1
     9    73    74    1
    10    79    78    2
    11    59    60    1
    12    60    61    1
    13    60    63    1
    14    61    62    2
    15    93    92    1
    16    93    96    1
    17    78    77    1
    18    76    77    1
    19    92    86   am
    20    87    86    2
    21    86    85    1
    22    74    75    1
    23    84    85    1
    24    85    88    1
    25    63    64    1
    26    97    96    1
    27    77    80    1
    28    96    98    1
    29    80    81    1
    30     7     6    2
    31    90    89    2
    32    64    65   ar
    33    64    66   ar
    34    88    89    1
    35     8     6   am
    36    82    81    2
    37    89    91   am
    38     6     5    1
    39    81    83   am
    40     4     3    2
    41     2     5    1
    42     2     3    1
    43     2     1    1
    44   102   101    2
    45   106   108   ar
    46   106   104   ar
    47   103   104    1
    48   103   100    1
    49     3     9   am
    50   108   109   ar
    51   101   100    1
    52   104   105   ar
    53   100    99    1
    54   109   110    1
    55   109   107   ar
    56   105   107   ar
    57     9    10    1
    58    11    12    2
    59    11    10    1
    60    10    13    1
    61    38    37    2
    62    19    21   ar
    63    19    16   ar
    64    13    14    1
    65    34    33    1
    66    21    22   ar
    67    35    36    1
    68    16    14   ar
    69    16    18   ar
    70    14    15   ar
    71    22    20   ar
    72    39    36    1
    73    39    40    1
    74    37    36    1
    75    37    44   am
    76    43    42    1
    77    18    20   ar
    78    18    17   ar
    79    15    17   ar
    80    33    31   ar
    81    33    32   ar
    82    42    41    1
    83    41    40    1
    84    31    29   ar
    85    50    49    2
    86    44    45    1
    87    45    48    1
    88    45    46    1
    89    58    56    1
    90    32    30   ar
    91    52    46   am
    92    52    53    1
    93    56    53    1
    94    56    57    1
    95    48    49    1
    96    49    51   am
    97    55    54    2
    98    29    28   ar
    99    46    47    2
   100    53    54    1
   101    30    28   ar
   102    28    27    1
   103    27    24    1
   104    23    24    1
   105    24    25    1
   106    25    26    2
