@<TRIPOS>MOLECULE
tmp/5o59B00.pdb
 110 107 0 0 0
SMALL
GASTEIGER

@<TRIPOS>ATOM
      1  N         21.1820   20.2260    4.6470 N.3   250  ARG250     -0.1231
      2  CA        20.6680   20.5200    5.9890 C.3   250  ARG250      0.1694
      3  C         20.2890   22.0020    6.2650 C.2   250  ARG250      0.2592
      4  O         19.2800   22.2850    6.9300 O.2   250  ARG250     -0.2718
      5  CB        21.7440   20.0830    6.9930 C.3   250  ARG250      0.0321
      6  CG        21.2020   19.8710    8.3690 C.3   250  ARG250      0.0489
      7  CD        22.1990   19.2810    9.3580 C.3   250  ARG250      0.2205
      8  NE        21.6090   19.4470   10.6780 N.pl3 250  ARG250     -0.0865
      9  CZ        20.5810   18.7510   11.1620 C.cat 250  ARG250      0.5346
     10  NH1       20.0400   17.7420   10.4800 N.pl3 250  ARG250      0.1354
     11  NH2       20.0950   19.0570   12.3660 N.pl3 250  ARG250      0.1354
     12  N         21.1110   22.9170    5.7510 N.am  251  TYR251     -0.1976
     13  CA        21.0540   24.3470    6.0620 C.3   251  TYR251      0.1639
     14  C         20.5380   25.2190    4.9270 C.2   251  TYR251      0.2290
     15  O         20.5910   26.4590    5.0180 O.2   251  TYR251     -0.2864
     16  CB        22.4510   24.8090    6.4470 C.3   251  TYR251      0.0560
     17  CG        23.0010   23.9940    7.5640 C.ar  251  TYR251     -0.0198
     18  CD1       22.3940   24.0240    8.8190 C.ar  251  TYR251     -0.0009
     19  CD2       24.1130   23.1580    7.3820 C.ar  251  TYR251     -0.0009
     20  CE1       22.8770   23.2660    9.8590 C.ar  251  TYR251      0.0417
     21  CE2       24.6050   22.3950    8.4290 C.ar  251  TYR251      0.0417
     22  CZ        23.9850   22.4500    9.6720 C.ar  251  TYR251      0.1957
     23  OH        24.4490   21.6880   10.7290 O.3   251  TYR251     -0.2866
     24  N         19.4290   22.8120   13.7190 N.3   258  ASP258     -0.1239
     25  CA        20.3620   22.4410   14.7880 C.3   258  ASP258      0.1674
     26  C         19.9230   23.0120   16.1340 C.2   258  ASP258      0.2266
     27  O         19.8000   22.2840   17.1280 O.2   258  ASP258     -0.2867
     28  CB        21.7780   22.9350   14.4830 C.3   258  ASP258      0.1410
     29  CG        22.4420   22.1980   13.3110 C.2   258  ASP258      0.3668
     30  OD1       21.8610   21.2300   12.7560 O.co2 258  ASP258     -0.2456
     31  OD2       23.5730   22.5920   12.9720 O.co2 258  ASP258     -0.2456
     32  N         26.9550   17.2940   27.3370 N.3   266  ARG266     -0.1245
     33  CA        27.6850   17.8150   26.2010 C.3   266  ARG266      0.1563
     34  C         28.5410   19.0240   26.6060 C.2   266  ARG266      0.2260
     35  O         29.5850   19.2560   26.0150 O.2   266  ARG266     -0.2867
     36  CB        26.7350   18.1990   25.0650 C.3   266  ARG266      0.0307
     37  CG        27.4350   18.3620   23.7260 C.3   266  ARG266      0.0489
     38  CD        26.4780   18.7580   22.6100 C.3   266  ARG266      0.2205
     39  NE        27.1870   18.8030   21.3300 N.pl3 266  ARG266     -0.0865
     40  CZ        26.8470   19.5430   20.2770 C.cat 266  ARG266      0.5346
     41  NH1       25.7720   20.3300   20.2940 N.pl3 266  ARG266      0.1354
     42  NH2       27.5990   19.4930   19.1780 N.pl3 266  ARG266      0.1354
     43  N         32.1470   24.2650   18.8410 N.3   337  PHE337     -0.1227
     44  CA        31.6420   23.0140   18.2520 C.3   337  PHE337      0.1736
     45  C         31.5060   23.0390   16.7330 C.2   337  PHE337      0.2596
     46  O         31.4240   21.9710   16.1180 O.2   337  PHE337     -0.2718
     47  CB        30.2890   22.6120   18.8530 C.3   337  PHE337      0.0547
     48  CG        30.3020   22.3480   20.3350 C.ar  337  PHE337     -0.0202
     49  CD1       31.4920   22.2380   21.0800 C.ar  337  PHE337     -0.0042
     50  CD2       29.0930   22.1540   20.9910 C.ar  337  PHE337     -0.0042
     51  CE1       31.4520   21.9870   22.4370 C.ar  337  PHE337     -0.0003
     52  CE2       29.0530   21.8960   22.3490 C.ar  337  PHE337     -0.0003
     53  CZ        30.2300   21.8130   23.0730 C.ar  337  PHE337     -0.0000
     54  N         31.4630   24.2320   16.1460 N.am  338  GLY338     -0.1942
     55  CA        31.2850   24.4120   14.7140 C.3   338  GLY338      0.2014
     56  C         29.8450   24.7640   14.4290 C.2   338  GLY338      0.2639
     57  O         28.9650   24.5630   15.2710 O.2   338  GLY338     -0.2714
     58  N         29.6150   25.2990   13.2380 N.am  339  GLY339     -0.1954
     59  CA        28.2790   25.6150   12.7640 C.3   339  GLY339      0.1869
     60  C         27.9580   27.0880   12.8570 C.2   339  GLY339      0.2309
     61  O         28.5540   27.8230   13.6480 O.2   339  GLY339     -0.2863
     62  N         28.6390   11.5660   18.8020 N.3   380  TYR380     -0.1228
     63  CA        28.0750   11.8800   17.4860 C.3   380  TYR380      0.1721
     64  C         28.6840   13.1960   16.9570 C.2   380  TYR380      0.2437
     65  O         28.9010   14.1000   17.7580 O.2   380  TYR380     -0.2733
     66  CB        26.5600   12.0220   17.6030 C.3   380  TYR380      0.0547
     67  CG        25.8460   11.9980   16.2860 C.ar  380  TYR380     -0.0200
     68  CD1       25.5480   10.7860   15.6600 C.ar  380  TYR380     -0.0009
     69  CD2       25.4760   13.1790   15.6530 C.ar  380  TYR380     -0.0009
     70  CE1       24.8880   10.7580   14.4480 C.ar  380  TYR380      0.0417
     71  CE2       24.8140   13.1620   14.4420 C.ar  380  TYR380      0.0417
     72  CZ        24.5230   11.9480   13.8470 C.ar  380  TYR380      0.1957
     73  OH        23.8730   11.9330   12.6440 O.3   380  TYR380     -0.2866
     74  N         28.9840   13.3280   15.6540 N.am  381  PRO381     -0.2729
     75  CA        28.8160   12.2970   14.6200 C.3   381  PRO381      0.1401
     76  C         29.7000   11.0870   14.8300 C.2   381  PRO381      0.2269
     77  O         30.6190   11.1210   15.6480 O.2   381  PRO381     -0.2865
     78  CB        29.2390   13.0180   13.3250 C.3   381  PRO381      0.0296
     79  CG        29.1650   14.4690   13.6400 C.3   381  PRO381      0.0237
     80  CD        29.5330   14.5720   15.0870 C.3   381  PRO381      0.0939
     81  N         33.6170   11.1910   14.6780 N.3   384  ASP384     -0.1239
     82  CA        34.3070   11.8510   15.8000 C.3   384  ASP384      0.1674
     83  C         34.3810   10.9430   17.0270 C.2   384  ASP384      0.2266
     84  O         33.8160    9.8490   17.0330 O.2   384  ASP384     -0.2867
     85  CB        33.5880   13.1600   16.1600 C.3   384  ASP384      0.1410
     86  CG        33.6550   14.1940   15.0470 C.2   384  ASP384      0.3668
     87  OD1       34.4150   14.0050   14.0730 O.co2 384  ASP384     -0.2456
     88  OD2       32.9490   15.2130   15.1510 O.co2 384  ASP384     -0.2456
     89  N         35.4700   18.4190   20.2660 N.3   389  PRO389     -0.2102
     90  CA        34.5660   19.3090   21.0310 C.3   389  PRO389      0.1504
     91  C         33.1030   19.1480   20.6480 C.2   389  PRO389      0.2576
     92  O         32.7610   19.1880   19.4630 O.2   389  PRO389     -0.2718
     93  CB        35.0650   20.7130   20.6810 C.3   389  PRO389      0.0282
     94  CG        36.4900   20.5070   20.2990 C.3   389  PRO389      0.0208
     95  CD        36.5290   19.1900   19.5890 C.3   389  PRO389      0.0893
     96  N         32.2690   18.8940   21.6510 N.am  390  GLY390     -0.1957
     97  CA        30.8510   18.6980   21.4430 C.3   390  GLY390      0.1869
     98  C         30.4150   17.3060   21.0280 C.2   390  GLY390      0.2309
     99  O         29.2200   17.0730   20.8960 O.2   390  GLY390     -0.2863
    100  N         27.7360   13.4420   23.9840 N.3   393  ARG393     -0.1245
    101  CA        26.4670   13.9700   24.5160 C.3   393  ARG393      0.1563
    102  C         25.8420   13.1090   25.6170 C.2   393  ARG393      0.2260
    103  O         24.8960   13.5410   26.2840 O.2   393  ARG393     -0.2867
    104  CB        25.4570   14.1960   23.3920 C.3   393  ARG393      0.0307
    105  CG        25.9760   15.0490   22.2390 C.3   393  ARG393      0.0489
    106  CD        26.2970   14.1890   21.0240 C.3   393  ARG393      0.2205
    107  NE        26.9720   14.9110   19.9440 N.pl3 393  ARG393     -0.0865
    108  CZ        26.3900   15.7840   19.1170 C.cat 393  ARG393      0.5346
    109  NH1       25.0900   16.0990   19.2180 N.pl3 393  ARG393      0.1354
    110  NH2       27.1240   16.3590   18.1630 N.pl3 393  ARG393      0.1354
@<TRIPOS>BOND
     1     1     2    1
     2    14    15    2
     3    14    13    1
     4    12    13    1
     5    12     3   am
     6     2     3    1
     7     2     5    1
     8    13    16    1
     9     3     4    2
    10    16    17    1
    11     5     6    1
    12    19    17   ar
    13    19    21   ar
    14    17    18   ar
    15     6     7    1
    16    21    22   ar
    17    18    20   ar
    18     7     8    1
    19    22    20   ar
    20    22    23    1
    21    10     9    1
    22     8     9    2
    23     9    11    1
    24    73    72    1
    25    30    29   ar
    26    59    60    1
    27    59    58    1
    28    60    61    2
    29    31    29   ar
    30    58    56   am
    31    29    28    1
    32    78    79    1
    33    78    75    1
    34    79    80    1
    35    24    25    1
    36    72    71   ar
    37    72    70   ar
    38    87    86   ar
    39    56    55    1
    40    56    57    2
    41    71    69   ar
    42    70    68   ar
    43    28    25    1
    44    75    76    1
    45    75    74    1
    46    81    82    1
    47    55    54    1
    48    25    26    1
    49    76    77    2
    50    86    88   ar
    51    86    85    1
    52    80    74    1
    53    69    67   ar
    54    74    64   am
    55    68    67   ar
    56    82    85    1
    57    82    83    1
    58    46    45    2
    59    26    27    2
    60    54    45   am
    61    67    66    1
    62    45    44    1
    63    64    63    1
    64    64    65    2
    65    83    84    2
    66    63    66    1
    67    63    62    1
    68   110   108    1
    69    44    43    1
    70    44    47    1
    71    47    48    1
    72   108   109    1
    73   108   107    2
    74    42    40    1
    75    92    91    2
    76    95    89    1
    77    95    94    1
    78   107   106    1
    79    89    90    1
    80    40    41    1
    81    40    39    2
    82    94    93    1
    83    48    50   ar
    84    48    49   ar
    85    91    90    1
    86    91    96   am
    87    93    90    1
    88    99    98    2
    89    50    52   ar
    90   106   105    1
    91    98    97    1
    92    49    51   ar
    93    39    38    1
    94    97    96    1
    95   105   104    1
    96    52    53   ar
    97    51    53   ar
    98    38    37    1
    99   104   101    1
   100    37    36    1
   101   100   101    1
   102   101   102    1
   103    36    33    1
   104   102   103    2
   105    35    34    2
   106    33    34    1
   107    33    32    1
