@<TRIPOS>MOLECULE
tmp/5o5aA00.pdb
 136 134 0 0 0
SMALL
GASTEIGER

@<TRIPOS>ATOM
      1  N         18.4840  -11.7360    5.6420 N.3    25  ASN25      -0.1225
      2  CA        17.8250  -12.6180    6.6010 C.3    25  ASN25       0.1785
      3  C         16.3110  -12.4270    6.5520 C.2    25  ASN25       0.2597
      4  O         15.6450  -12.2400    7.5730 O.2    25  ASN25      -0.2718
      5  CB        18.3680  -12.3960    8.0120 C.3    25  ASN25       0.1169
      6  CG        19.7830  -12.9180    8.1760 C.2    25  ASN25       0.2627
      7  OD1       19.9890  -14.0780    8.5190 O.2    25  ASN25      -0.2716
      8  ND2       20.7650  -12.0610    7.9150 N.am   25  ASN25      -0.0877
      9  N         15.7690  -12.4260    5.3330 N.am   26  ILE26      -0.1966
     10  CA        14.3270  -12.3860    5.1640 C.3    26  ILE26       0.1727
     11  C         13.7580  -13.7540    4.8690 C.2    26  ILE26       0.2616
     12  O         12.5310  -13.9000    4.7600 O.2    26  ILE26      -0.2715
     13  CB        13.9120  -11.3900    4.0710 C.3    26  ILE26       0.0290
     14  CG1       14.4430  -11.8300    2.7150 C.3    26  ILE26       0.0022
     15  CG2       14.4150  -10.0020    4.4260 C.3    26  ILE26       0.0023
     16  CD1       14.2230  -10.8050    1.6380 C.3    26  ILE26       0.0001
     17  N         14.6110  -14.7750    4.7760 N.am   27  PHE27      -0.1974
     18  CA        14.1670  -16.1260    4.4550 C.3    27  PHE27       0.1639
     19  C         14.5630  -17.1270    5.5270 C.2    27  PHE27       0.2290
     20  O         14.3980  -18.3410    5.3220 O.2    27  PHE27      -0.2864
     21  CB        14.7540  -16.5860    3.1110 C.3    27  PHE27       0.0560
     22  CG        14.3830  -15.7060    1.9420 C.ar   27  PHE27      -0.0200
     23  CD1       13.0470  -15.5650    1.5610 C.ar   27  PHE27      -0.0042
     24  CD2       15.3630  -15.0500    1.2160 C.ar   27  PHE27      -0.0042
     25  CE1       12.6970  -14.7690    0.4790 C.ar   27  PHE27      -0.0003
     26  CE2       15.0270  -14.2360    0.1350 C.ar   27  PHE27      -0.0003
     27  CZ        13.6860  -14.1110   -0.2390 C.ar   27  PHE27      -0.0000
     28  N         13.6380  -17.3240    8.8770 N.3    29  GLU29      -0.1231
     29  CA        12.6130  -17.6660    9.8490 C.3    29  GLU29       0.1684
     30  C         11.2630  -17.6080    9.1590 C.2    29  GLU29       0.2434
     31  O         11.1130  -16.9280    8.1370 O.2    29  GLU29      -0.2733
     32  CB        12.6240  -16.6990   11.0430 C.3    29  GLU29       0.0402
     33  CG        13.8900  -16.7310   11.8690 C.3    29  GLU29       0.1161
     34  CD        13.7880  -15.8530   13.1040 C.2    29  GLU29       0.3649
     35  OE1       14.0200  -16.3640   14.2220 O.co2  29  GLU29      -0.2457
     36  OE2       13.4720  -14.6520   12.9540 O.co2  29  GLU29      -0.2457
     37  N         10.2520  -18.3090    9.6850 N.am   30  PRO30      -0.2718
     38  CA         8.9150  -18.2220    9.0830 C.3    30  PRO30       0.1535
     39  C          8.4230  -16.7820    9.0190 C.2    30  PRO30       0.2598
     40  O          8.6700  -15.9800    9.9220 O.2    30  PRO30      -0.2715
     41  CB         8.0410  -19.0660   10.0230 C.3    30  PRO30       0.0310
     42  CG         8.9960  -20.0090   10.6700 C.3    30  PRO30       0.0237
     43  CD        10.2990  -19.2690   10.8000 C.3    30  PRO30       0.0939
     44  N          7.7240  -16.4610    7.9350 N.am   31  VAL31      -0.1964
     45  CA         7.0840  -15.1450    7.8400 C.3    31  VAL31       0.1712
     46  C          6.1980  -14.9410    9.0660 C.2    31  VAL31       0.2458
     47  O          5.3570  -15.8100    9.3710 O.2    31  VAL31      -0.2730
     48  CB         6.2630  -15.0390    6.5410 C.3    31  VAL31       0.0289
     49  CG1        5.4800  -13.7420    6.5270 C.3    31  VAL31       0.0023
     50  CG2        7.1750  -15.1170    5.3000 C.3    31  VAL31       0.0023
     51  N          6.3550  -13.8400    9.8160 N.am   32  PRO32      -0.2727
     52  CA         5.5540  -13.6510   11.0340 C.3    32  PRO32       0.1402
     53  C          4.1180  -13.2540   10.7230 C.2    32  PRO32       0.2269
     54  O          3.8370  -12.1070   10.3540 O.2    32  PRO32      -0.2865
     55  CB         6.3090  -12.5400   11.7720 C.3    32  PRO32       0.0296
     56  CG         6.9060  -11.7340   10.6800 C.3    32  PRO32       0.0237
     57  CD         7.2930  -12.7250    9.6000 C.3    32  PRO32       0.0939
     58  N          1.5920  -12.6180   12.4990 N.3    34  SER34      -0.1202
     59  CA         0.9870  -11.5390   13.2680 C.3    34  SER34       0.2020
     60  C          1.2230  -10.1930   12.6040 C.2    34  SER34       0.2619
     61  O          0.3700   -9.3050   12.6940 O.2    34  SER34      -0.2717
     62  CB         1.5300  -11.5460   14.6980 C.3    34  SER34       0.2103
     63  OG         2.9070  -11.2370   14.7200 O.3    34  SER34      -0.2182
     64  N          2.3580  -10.0320   11.9230 N.am   35  GLU35      -0.1965
     65  CA         2.6420   -8.8170   11.1780 C.3    35  GLU35       0.1733
     66  C          2.1050   -8.8610    9.7560 C.2    35  GLU35       0.2616
     67  O          1.8900   -7.8020    9.1560 O.2    35  GLU35      -0.2715
     68  CB         4.1520   -8.5580   11.1280 C.3    35  GLU35       0.0429
     69  CG         4.9350   -9.1150   12.2980 C.3    35  GLU35       0.1163
     70  CD         4.5640   -8.4630   13.6080 C.2    35  GLU35       0.3649
     71  OE1        4.3120   -9.2000   14.5850 O.co2  35  GLU35      -0.2457
     72  OE2        4.5170   -7.2160   13.6630 O.co2  35  GLU35      -0.2457
     73  N          1.8950  -10.0520    9.2070 N.am   36  VAL36      -0.1977
     74  CA         1.3860  -10.2210    7.8480 C.3    36  VAL36       0.1596
     75  C          0.1210  -11.0680    7.9240 C.2    36  VAL36       0.2287
     76  O          0.1530  -12.2550    7.5690 O.2    36  VAL36      -0.2864
     77  CB         2.4410  -10.8680    6.9360 C.3    36  VAL36       0.0276
     78  CG1        1.9840  -10.8440    5.4910 C.3    36  VAL36       0.0022
     79  CG2        3.7890  -10.1620    7.0900 C.3    36  VAL36       0.0022
     80  N         -1.1160  -13.3990    4.9940 N.3    39  TYR39      -0.1241
     81  CA        -0.0970  -14.1780    4.2990 C.3    39  TYR39       0.1605
     82  C         -0.6290  -15.5350    3.8370 C.2    39  TYR39       0.2264
     83  O         -0.3410  -15.9680    2.7160 O.2    39  TYR39      -0.2867
     84  CB         1.1290  -14.3560    5.1900 C.3    39  TYR39       0.0534
     85  CG         2.2990  -14.9790    4.4570 C.ar   39  TYR39      -0.0201
     86  CD1        2.9930  -14.2700    3.4730 C.ar   39  TYR39      -0.0009
     87  CD2        2.7010  -16.2790    4.7360 C.ar   39  TYR39      -0.0009
     88  CE1        4.0740  -14.8510    2.7900 C.ar   39  TYR39       0.0417
     89  CE2        3.7770  -16.8640    4.0650 C.ar   39  TYR39       0.0417
     90  CZ         4.4560  -16.1430    3.0980 C.ar   39  TYR39       0.1957
     91  OH         5.5110  -16.7350    2.4280 O.3    39  TYR39      -0.2866
     92  N         10.5390  -21.4840   -0.8910 N.3    74  ILE74      -0.1245
     93  CA        10.9540  -20.2110   -0.3010 C.3    74  ILE74       0.1561
     94  C         10.9320  -19.1350   -1.3700 C.2    74  ILE74       0.2260
     95  O         10.3750  -18.0460   -1.1750 O.2    74  ILE74      -0.2867
     96  CB        12.3460  -20.3270    0.3440 C.3    74  ILE74       0.0252
     97  CG1       12.2820  -21.2610    1.5560 C.3    74  ILE74       0.0019
     98  CG2       12.8770  -18.9450    0.8020 C.3    74  ILE74       0.0019
     99  CD1       13.6730  -21.5710    2.1250 C.3    74  ILE74       0.0001
    100  N          7.7490  -16.1240   -2.0900 N.3    78  CYS78      -0.1235
    101  CA         8.1080  -14.7080   -2.0080 C.3    78  CYS78       0.1677
    102  C          7.7590  -13.9840   -3.3050 C.2    78  CYS78       0.2270
    103  O          7.2390  -12.8590   -3.2820 O.2    78  CYS78      -0.2867
    104  CB         9.5970  -14.5930   -1.6920 C.3    78  CYS78       0.0956
    105  SG        10.1440  -12.9140   -1.3740 S.3    78  CYS78      -0.0801
    106  N          3.8370  -13.5900   -3.2200 N.3    81  TYR81      -0.1227
    107  CA         3.2080  -12.6870   -2.2590 C.3    81  TYR81       0.1736
    108  C          3.5210  -11.2250   -2.5540 C.2    81  TYR81       0.2595
    109  O          2.6630  -10.3510   -2.3610 O.2    81  TYR81      -0.2718
    110  CB         3.6310  -13.0510   -0.8360 C.3    81  TYR81       0.0548
    111  CG         2.8940  -12.2050    0.1700 C.ar   81  TYR81      -0.0200
    112  CD1        1.5690  -12.4860    0.5000 C.ar   81  TYR81      -0.0009
    113  CD2        3.4890  -11.0930    0.7210 C.ar   81  TYR81      -0.0009
    114  CE1        0.8760  -11.6860    1.3940 C.ar   81  TYR81       0.0417
    115  CE2        2.8050  -10.2850    1.6080 C.ar   81  TYR81       0.0417
    116  CZ         1.5090  -10.5860    1.9410 C.ar   81  TYR81       0.1957
    117  OH         0.8310   -9.7670    2.8240 O.3    81  TYR81      -0.2866
    118  N          4.7300  -10.9300   -3.0220 N.am   82  ASN82      -0.1974
    119  CA         5.2300   -9.5610   -3.0410 C.3    82  ASN82       0.1688
    120  C          5.1740   -8.9760   -4.4370 C.2    82  ASN82       0.2292
    121  O          5.3980   -9.6740   -5.4260 O.2    82  ASN82      -0.2864
    122  CB         6.6570   -9.5260   -2.5120 C.3    82  ASN82       0.1181
    123  CG         6.7270   -9.9660   -1.0740 C.2    82  ASN82       0.2629
    124  OD1        6.3730   -9.2030   -0.1690 O.2    82  ASN82      -0.2716
    125  ND2        7.1640  -11.1960   -0.8480 N.am   82  ASN82      -0.0877
    126  N         11.6700   -7.3380   -1.4880 N.3    88  PHE88      -0.1241
    127  CA        11.4330   -8.7620   -1.2610 C.3    88  PHE88       0.1605
    128  C         11.4300   -9.5300   -2.5760 C.2    88  PHE88       0.2264
    129  O         12.0770  -10.5740   -2.6890 O.2    88  PHE88      -0.2867
    130  CB        10.0920   -9.0100   -0.5510 C.3    88  PHE88       0.0534
    131  CG        10.0880   -8.7260    0.9320 C.ar   88  PHE88      -0.0203
    132  CD1       10.9250   -9.4150    1.7930 C.ar   88  PHE88      -0.0042
    133  CD2        9.1940   -7.8200    1.4640 C.ar   88  PHE88      -0.0042
    134  CE1       10.8940   -9.1730    3.1500 C.ar   88  PHE88      -0.0003
    135  CE2        9.1620   -7.5730    2.8260 C.ar   88  PHE88      -0.0003
    136  CZ        10.0110   -8.2490    3.6660 C.ar   88  PHE88      -0.0000
@<TRIPOS>BOND
     1   121   120    2
     2   120   119    1
     3   102   103    2
     4   102   101    1
     5   106   107    1
     6   119   118    1
     7   119   122    1
     8   118   108   am
     9   129   128    2
    10   128   127    1
    11   108   109    2
    12   108   107    1
    13   122   123    1
    14   107   110    1
    15   100   101    1
    16   101   104    1
    17   104   105    1
    18   126   127    1
    19    94    95    2
    20    94    93    1
    21   127   130    1
    22   123   125   am
    23   123   124    2
    24    92    93    1
    25   110   111    1
    26   130   131    1
    27    93    96    1
    28    27    26   ar
    29    27    25   ar
    30    26    24   ar
    31   111   112   ar
    32   111   113   ar
    33    96    98    1
    34    96    97    1
    35    25    23   ar
    36   112   114   ar
    37   113   115   ar
    38   131   133   ar
    39   131   132   ar
    40    24    22   ar
    41   114   116   ar
    42   133   135   ar
    43    97    99    1
    44    23    22   ar
    45   115   116   ar
    46    16    14    1
    47   132   134   ar
    48   116   117    1
    49    22    21    1
    50    91    90    1
    51    14    13    1
    52    83    82    2
    53    88    90   ar
    54    88    86   ar
    55   135   136   ar
    56    90    89   ar
    57    21    18    1
    58   134   136   ar
    59    86    85   ar
    60    82    81    1
    61    89    87   ar
    62    13    15    1
    63    13    10    1
    64    81    80    1
    65    81    84    1
    66    18    17    1
    67    18    19    1
    68    85    87   ar
    69    85    84    1
    70    12    11    2
    71    17    11   am
    72    11    10    1
    73    10     9    1
    74    50    48    1
    75    20    19    2
    76     9     3   am
    77    78    77    1
    78     1     2    1
    79    49    48    1
    80    48    45    1
    81     3     2    1
    82     3     4    2
    83     2     5    1
    84    77    79    1
    85    77    74    1
    86    76    75    2
    87    45    44    1
    88    45    46    1
    89    74    75    1
    90    74    73    1
    91     8     6   am
    92    44    39   am
    93     5     6    1
    94    31    30    2
    95     6     7    2
    96    28    29    1
    97    39    38    1
    98    39    40    2
    99    46    47    2
   100    46    51   am
   101    38    37    1
   102    38    41    1
   103    67    66    2
   104    30    37   am
   105    30    29    1
   106    73    66   am
   107    57    51    1
   108    57    56    1
   109    37    43    1
   110    66    65    1
   111    51    52    1
   112    29    32    1
   113    41    42    1
   114    54    53    2
   115    42    43    1
   116    56    55    1
   117    53    52    1
   118    52    55    1
   119    32    33    1
   120    68    65    1
   121    68    69    1
   122    65    64    1
   123    33    34    1
   124    64    60   am
   125    69    70    1
   126    58    59    1
   127    60    61    2
   128    60    59    1
   129    36    34   ar
   130    34    35   ar
   131    59    62    1
   132    70    72   ar
   133    70    71   ar
   134    62    63    1
