@<TRIPOS>MOLECULE
tmp/5o5cB00.pdb
 111 103 0 0 0
SMALL
GASTEIGER

@<TRIPOS>ATOM
      1  N         67.7470  172.6590   -0.2740 N.3    85  LEU85      -0.1245
      2  CA        66.9990  172.9700    0.9360 C.3    85  LEU85       0.1561
      3  C         65.5660  173.4260    0.6990 C.2    85  LEU85       0.2260
      4  O         65.1210  174.4630    1.2680 O.2    85  LEU85      -0.2867
      5  CB        67.7790  173.9870    1.7560 C.3    85  LEU85       0.0270
      6  CG        69.0320  173.3800    2.4080 C.3    85  LEU85       0.0019
      7  CD1       69.9850  174.4470    2.8910 C.3    85  LEU85       0.0001
      8  CD2       68.6630  172.5210    3.5850 C.3    85  LEU85       0.0001
      9  N         64.0780  186.5550    3.4100 N.3   144  GLY144     -0.1210
     10  CA        64.7600  185.3270    3.6430 C.3   144  GLY144      0.1956
     11  C         66.1630  185.6020    4.0980 C.2   144  GLY144      0.2612
     12  O         66.5860  186.7600    4.4030 O.2   144  GLY144     -0.2717
     13  N         66.8760  184.4910    4.1020 N.am  145  GLY145     -0.1942
     14  CA        68.1680  184.3190    4.6840 C.3   145  GLY145      0.2014
     15  C         69.2130  185.2320    4.2000 C.2   145  GLY145      0.2639
     16  O         69.9810  185.7140    5.0050 O.2   145  GLY145     -0.2714
     17  N         69.2580  185.4200    2.8790 N.am  146  THR146     -0.1950
     18  CA        70.0500  186.4250    2.2740 C.3   146  THR146      0.1897
     19  C         69.8730  187.8650    2.8310 C.2   146  THR146      0.2313
     20  O         70.8460  188.5060    3.0830 O.2   146  THR146     -0.2863
     21  CB        69.8700  186.3930    0.7540 C.3   146  THR146      0.1794
     22  OG1       70.0540  185.0460    0.2860 O.3   146  THR146     -0.2208
     23  CG2       70.8230  187.3710    0.0820 C.3   146  THR146      0.0378
     24  N         71.0700  188.0400    6.4910 N.3   149  ASN149     -0.1240
     25  CA        72.5420  188.1000    6.5280 C.3   149  ASN149      0.1653
     26  C         73.0370  189.4610    6.1300 C.2   149  ASN149      0.2266
     27  O         74.0130  189.9260    6.6880 O.2   149  ASN149     -0.2867
     28  CB        73.2310  187.0190    5.7030 C.3   149  ASN149      0.1155
     29  CG        73.2010  185.6500    6.3680 C.2   149  ASN149      0.2627
     30  OD1       72.9440  185.5310    7.5750 O.2   149  ASN149     -0.2716
     31  ND2       73.4970  184.6150    5.5970 N.am  149  ASN149     -0.0877
     32  N         77.6870  180.3170    3.8590 N.3   191  HIS191     -0.1241
     33  CA        76.8640  180.6190    2.6890 C.3   191  HIS191      0.1621
     34  C         77.4250  181.8850    1.9660 C.2   191  HIS191      0.2264
     35  O         77.8990  182.7950    2.6180 O.2   191  HIS191     -0.2867
     36  CB        75.4290  180.8170    3.1330 C.3   191  HIS191      0.0745
     37  CG        74.4720  180.9480    1.9830 C.ar  191  HIS191      0.0817
     38  ND1       74.1140  182.1680    1.4530 N.ar  191  HIS191     -0.2268
     39  CD2       73.8180  180.0130    1.2590 C.ar  191  HIS191      0.1154
     40  CE1       73.3130  181.9760    0.4100 C.ar  191  HIS191      0.1986
     41  NE2       73.0920  180.6770    0.3000 N.ar  191  HIS191     -0.2212
     42  N         78.1730  179.6130   11.3940 N.3   244  THR244     -0.1218
     43  CA        77.1150  178.9280   10.7100 C.3   244  THR244      0.1862
     44  C         76.7070  177.6490   11.4680 C.2   244  THR244      0.2287
     45  O         77.4930  176.6710   11.5910 O.2   244  THR244     -0.2866
     46  CB        77.5490  178.6870    9.2520 C.3   244  THR244      0.1770
     47  OG1       77.8860  179.9510    8.7170 O.3   244  THR244     -0.2211
     48  CG2       76.4470  178.0710    8.4350 C.3   244  THR244      0.0375
     49  N         74.8340  175.1290   10.8660 N.3   246  GLY246     -0.1225
     50  CA        74.2270  174.3600    9.7850 C.3   246  GLY246      0.1811
     51  C         74.6810  174.8610    8.4430 C.2   246  GLY246      0.2280
     52  O         73.9870  175.6990    7.8160 O.2   246  GLY246     -0.2866
     53  N         75.2750  174.9350    4.5440 N.3   248  THR248     -0.1218
     54  CA        74.3700  174.5460    3.4540 C.3   248  THR248      0.1862
     55  C         74.6830  173.1730    2.8580 C.2   248  THR248      0.2287
     56  O         73.7790  172.4160    2.6130 O.2   248  THR248     -0.2866
     57  CB        74.4330  175.5780    2.3380 C.3   248  THR248      0.1770
     58  OG1       74.2310  176.8800    2.9260 O.3   248  THR248     -0.2211
     59  CG2       73.4620  175.3080    1.2290 C.3   248  THR248      0.0375
     60  N         74.4970  182.3400   11.6990 N.3   273  ASP273     -0.1239
     61  CA        73.6750  182.0110   10.5170 C.3   273  ASP273      0.1674
     62  C         73.0330  180.6620   10.7480 C.2   273  ASP273      0.2266
     63  O         73.6750  179.6310   10.6200 O.2   273  ASP273     -0.2867
     64  CB        74.4790  182.0940    9.2380 C.3   273  ASP273      0.1410
     65  CG        73.6620  181.8730    7.9890 C.2   273  ASP273      0.3668
     66  OD1       72.4870  181.4690    8.0420 O.co2 273  ASP273     -0.2456
     67  OD2       74.2060  182.0570    6.9190 O.co2 273  ASP273     -0.2456
     68  N         70.1580  179.4770    9.1260 N.3   275  ALA275     -0.1231
     69  CA        69.0820  179.4890    8.1840 C.3   275  ALA275      0.1694
     70  C         68.5220  178.0830    8.0580 C.2   275  ALA275      0.2592
     71  O         67.2920  177.8710    8.0150 O.2   275  ALA275     -0.2718
     72  CB        69.5630  180.0370    6.8380 C.3   275  ALA275      0.0304
     73  N         69.4310  177.1230    8.0480 N.am  276  TYR276     -0.1976
     74  CA        69.1020  175.7170    7.9810 C.3   276  TYR276      0.1639
     75  C         68.9460  175.1780    9.3900 C.2   276  TYR276      0.2290
     76  O         67.9610  174.5000    9.7110 O.2   276  TYR276     -0.2864
     77  CB        70.2170  175.0220    7.1950 C.3   276  TYR276      0.0560
     78  CG        70.2030  173.5130    7.0410 C.ar  276  TYR276     -0.0198
     79  CD1       69.0480  172.7400    7.1970 C.ar  276  TYR276     -0.0009
     80  CD2       71.3700  172.8680    6.6660 C.ar  276  TYR276     -0.0009
     81  CE1       69.0900  171.3620    7.0100 C.ar  276  TYR276      0.0417
     82  CE2       71.4410  171.4980    6.5190 C.ar  276  TYR276      0.0417
     83  CZ        70.3130  170.7520    6.6810 C.ar  276  TYR276      0.1957
     84  OH        70.4520  169.4000    6.4990 O.3   276  TYR276     -0.2866
     85  N         65.5770  180.5800    8.8900 N.3   302  ASP302     -0.1239
     86  CA        64.6730  180.3530    7.7140 C.3   302  ASP302      0.1674
     87  C         63.6080  179.3280    8.0040 C.2   302  ASP302      0.2266
     88  O         63.8960  178.1470    8.0610 O.2   302  ASP302     -0.2867
     89  CB        65.3710  179.8940    6.4230 C.3   302  ASP302      0.1410
     90  CG        65.8740  181.0130    5.5580 C.2   302  ASP302      0.3668
     91  OD1       65.7420  182.1880    5.8550 O.co2 302  ASP302     -0.2456
     92  OD2       66.4640  180.6670    4.5370 O.co2 302  ASP302     -0.2456
     93  N         61.1760  178.9060    6.0390 N.3   304  HIS304     -0.1226
     94  CA        60.9680  178.3230    4.7240 C.3   304  HIS304      0.1752
     95  C         61.9950  177.2460    4.2320 C.2   304  HIS304      0.2595
     96  O         61.8380  176.7730    3.1050 O.2   304  HIS304     -0.2718
     97  CB        60.7470  179.4100    3.6590 C.3   304  HIS304      0.0759
     98  CG        61.9580  180.2110    3.3080 C.ar  304  HIS304      0.0818
     99  ND1       61.9410  181.5960    3.2110 N.ar  304  HIS304     -0.2268
    100  CD2       63.2190  179.8310    2.9940 C.ar  304  HIS304      0.1154
    101  CE1       63.1410  182.0230    2.8810 C.ar  304  HIS304      0.1986
    102  NE2       63.9260  180.9800    2.7270 N.ar  304  HIS304     -0.2212
    103  N         63.0510  176.9550    5.0180 N.am  305  LYS305     -0.1980
    104  CA        63.8380  175.6910    4.9150 C.3   305  LYS305      0.1596
    105  C         63.5290  174.5930    5.9620 C.2   305  LYS305      0.2287
    106  O         63.3930  173.4380    5.6200 O.2   305  LYS305     -0.2864
    107  CB        65.3150  176.0050    5.0340 C.3   305  LYS305      0.0298
    108  CG        65.7890  176.9570    3.9630 C.3   305  LYS305      0.0038
    109  CD        67.2540  177.2790    4.0840 C.3   305  LYS305      0.0206
    110  CE        67.6720  177.6380    2.6830 C.3   305  LYS305      0.1093
    111  NZ        69.0580  178.0310    2.7250 N.3   305  LYS305     -0.1314
@<TRIPOS>BOND
     1     1     2    1
     2    23    21    1
     3    22    21    1
     4    41    40   ar
     5    41    39   ar
     6    40    38   ar
     7     3     2    1
     8     3     4    2
     9    21    18    1
    10     2     5    1
    11    59    57    1
    12    39    37   ar
    13    38    37   ar
    14     5     6    1
    15    34    35    2
    16    34    33    1
    17    37    36    1
    18    18    19    1
    19    18    17    1
    20    57    58    1
    21    57    54    1
    22     6     7    1
    23     6     8    1
    24    56    55    2
    25   110   111    1
    26   110   109    1
    27    33    36    1
    28    33    32    1
    29   102   101   ar
    30   102   100   ar
    31    19    20    2
    32    55    54    1
    33    17    15   am
    34   101    99   ar
    35   100    98   ar
    36    96    95    2
    37    99    98   ar
    38    98    97    1
    39     9    10    1
    40    54    53    1
    41    10    11    1
    42    97    94    1
    43   108   109    1
    44   108   107    1
    45    11    13   am
    46    11    12    2
    47    13    14    1
    48    15    14    1
    49    15    16    2
    50    95    94    1
    51    95   103   am
    52    92    90   ar
    53    94    93    1
    54   104   103    1
    55   104   107    1
    56   104   105    1
    57    90    91   ar
    58    90    89    1
    59    31    29   am
    60   106   105    2
    61    28    29    1
    62    28    25    1
    63    26    25    1
    64    26    27    2
    65    29    30    2
    66    89    86    1
    67    24    25    1
    68    84    83    1
    69    82    80   ar
    70    82    83   ar
    71    80    78   ar
    72    83    81   ar
    73    72    69    1
    74    67    65   ar
    75    81    79   ar
    76    78    77    1
    77    78    79   ar
    78    77    74    1
    79    86    87    1
    80    86    85    1
    81    52    51    2
    82    74    73    1
    83    74    75    1
    84    65    66   ar
    85    65    64    1
    86    87    88    2
    87    71    70    2
    88    73    70   am
    89    70    69    1
    90    69    68    1
    91    48    46    1
    92    51    50    1
    93    47    46    1
    94    64    61    1
    95    46    43    1
    96    75    76    2
    97    50    49    1
    98    61    62    1
    99    61    60    1
   100    63    62    2
   101    43    42    1
   102    43    44    1
   103    44    45    2
