@<TRIPOS>MOLECULE
tmp/5o5dB01.pdb
 136 130 0 0 0
SMALL
GASTEIGER

@<TRIPOS>ATOM
      1  N          2.8800   11.8080   19.2170 N.3   106  ARG106     -0.1245
      2  CA         3.0730   13.2490   19.3600 C.3   106  ARG106      0.1563
      3  C          1.7030   13.8420   19.6490 C.2   106  ARG106      0.2260
      4  O          0.7480   13.5690   18.9240 O.2   106  ARG106     -0.2867
      5  CB         3.6910   13.8570   18.0900 C.3   106  ARG106      0.0307
      6  CG         3.8830   15.3640   18.1960 C.3   106  ARG106      0.0489
      7  CD         4.8210   15.9210   17.1460 C.3   106  ARG106      0.2205
      8  NE         4.2610   15.8420   15.7920 N.pl3 106  ARG106     -0.0865
      9  CZ         4.7800   15.2020   14.7430 C.cat 106  ARG106      0.5346
     10  NH1        5.9280   14.5320   14.8080 N.pl3 106  ARG106      0.1354
     11  NH2        4.1330   15.2410   13.5890 N.pl3 106  ARG106      0.1354
     12  N         13.5950    9.3220   23.2510 N.3   140  ASN140     -0.1240
     13  CA        13.4900   10.7480   23.5400 C.3   140  ASN140      0.1653
     14  C         12.0460   11.0370   23.9650 C.2   140  ASN140      0.2266
     15  O         11.1410   10.9530   23.1510 O.2   140  ASN140     -0.2867
     16  CB        13.8800   11.5350   22.2900 C.3   140  ASN140      0.1155
     17  CG        13.9770   13.0370   22.5200 C.2   140  ASN140      0.2627
     18  OD1       13.3920   13.5770   23.4550 O.2   140  ASN140     -0.2716
     19  ND2       14.7410   13.7150   21.6590 N.am  140  ASN140     -0.0877
     20  N          9.9530   13.9960   24.8290 N.3   142  ALA142     -0.1245
     21  CA        10.1340   15.4130   24.5110 C.3   142  ALA142      0.1562
     22  C          8.9570   16.2540   24.9460 C.2   142  ALA142      0.2260
     23  O          7.8040   15.8500   24.7920 O.2   142  ALA142     -0.2867
     24  CB        10.3910   15.5890   23.0260 C.3   142  ALA142      0.0290
     25  N          7.9970   20.3060   24.3620 N.3   144  TYR144     -0.1241
     26  CA         8.4920   21.4570   23.6180 C.3   144  TYR144      0.1605
     27  C          7.3920   22.3210   23.0520 C.2   144  TYR144      0.2264
     28  O          6.2230   21.9910   23.1550 O.2   144  TYR144     -0.2867
     29  CB         9.4500   20.9910   22.5170 C.3   144  TYR144      0.0534
     30  CG         8.9250   20.0780   21.4270 C.ar  144  TYR144     -0.0201
     31  CD1        8.6830   18.7280   21.6690 C.ar  144  TYR144     -0.0009
     32  CD2        8.7550   20.5470   20.1120 C.ar  144  TYR144     -0.0009
     33  CE1        8.2490   17.8770   20.6570 C.ar  144  TYR144      0.0417
     34  CE2        8.3120   19.7120   19.0930 C.ar  144  TYR144      0.0417
     35  CZ         8.0690   18.3720   19.3610 C.ar  144  TYR144      0.1957
     36  OH         7.6610   17.5370   18.3500 O.3   144  TYR144     -0.2866
     37  N          0.9620   20.6690   12.2920 N.3   170  TYR170     -0.1241
     38  CA         2.3020   20.5900   12.8540 C.3   170  TYR170      0.1605
     39  C          3.3480   21.2590   11.9610 C.2   170  TYR170      0.2264
     40  O          3.2730   21.2310   10.7100 O.2   170  TYR170     -0.2867
     41  CB         2.7230   19.1480   13.1260 C.3   170  TYR170      0.0534
     42  CG         4.0360   19.0350   13.8770 C.ar  170  TYR170     -0.0201
     43  CD1        4.1630   19.5130   15.1900 C.ar  170  TYR170     -0.0009
     44  CD2        5.1480   18.4550   13.2960 C.ar  170  TYR170     -0.0009
     45  CE1        5.3570   19.4070   15.8790 C.ar  170  TYR170      0.0417
     46  CE2        6.3490   18.3350   13.9880 C.ar  170  TYR170      0.0417
     47  CZ         6.4430   18.8150   15.2800 C.ar  170  TYR170      0.1957
     48  OH         7.6370   18.7040   15.9580 O.3   170  TYR170     -0.2866
     49  N          7.8170   22.4160   12.7230 N.3   172  ASP172     -0.1239
     50  CA         8.9060   22.6140   13.6730 C.3   172  ASP172      0.1674
     51  C         10.1480   23.0740   12.9170 C.2   172  ASP172      0.2266
     52  O         10.0800   23.3120   11.6980 O.2   172  ASP172     -0.2867
     53  CB         9.1210   21.3760   14.5980 C.3   172  ASP172      0.1410
     54  CG         9.7660   20.1730   13.9080 C.2   172  ASP172      0.3668
     55  OD1       10.5290   20.3240   12.9390 O.co2 172  ASP172     -0.2456
     56  OD2        9.5230   19.0400   14.3880 O.co2 172  ASP172     -0.2456
     57  N         12.8520   21.6470   12.0060 N.3   174  GLN174     -0.1245
     58  CA        13.3850   20.7590   10.9760 C.3   174  GLN174      0.1566
     59  C         12.7420   20.9670    9.6220 C.2   174  GLN174      0.2260
     60  O         13.2510   20.4190    8.6350 O.2   174  GLN174     -0.2867
     61  CB        13.1900   19.2880   11.3370 C.3   174  GLN174      0.0367
     62  CG        13.8400   18.8380   12.6150 C.3   174  GLN174      0.0905
     63  CD        15.3010   19.2220   12.7180 C.2   174  GLN174      0.2608
     64  OE1       16.1490   18.7490   11.9430 O.2   174  GLN174     -0.2717
     65  NE2       15.6040   20.1000   13.6710 N.am  174  GLN174     -0.0878
     66  N         10.7410   26.9330   17.1180 N.3   211  GLU211     -0.1245
     67  CA        10.6850   25.8240   18.0450 C.3   211  GLU211      0.1567
     68  C         11.5510   26.0850   19.2700 C.2   211  GLU211      0.2260
     69  O         12.7110   26.4850   19.1440 O.2   211  GLU211     -0.2867
     70  CB        11.1510   24.5680   17.3430 C.3   211  GLU211      0.0388
     71  CG        11.2350   23.3320   18.2360 C.3   211  GLU211      0.1160
     72  CD        11.5740   22.0770   17.4710 C.2   211  GLU211      0.3649
     73  OE1       11.9180   22.1370   16.2670 O.co2 211  GLU211     -0.2457
     74  OE2       11.4980   21.0040   18.0830 O.co2 211  GLU211     -0.2457
     75  N         12.7150   23.8510   22.3120 N.3   213  ASP213     -0.1239
     76  CA        12.8120   22.5220   22.9190 C.3   213  ASP213      0.1674
     77  C         13.1840   22.6260   24.3830 C.2   213  ASP213      0.2266
     78  O         14.3640   22.6600   24.7450 O.2   213  ASP213     -0.2867
     79  CB        13.7820   21.6290   22.1380 C.3   213  ASP213      0.1410
     80  CG        13.2930   21.3580   20.7320 C.2   213  ASP213      0.3668
     81  OD1       12.0690   21.1290   20.5780 O.co2 213  ASP213     -0.2456
     82  OD2       14.1050   21.3920   19.7910 O.co2 213  ASP213     -0.2456
     83  N         14.2820   17.4730   26.0010 N.3   216  GLU216     -0.1245
     84  CA        14.4650   16.2660   25.2130 C.3   216  GLU216      0.1567
     85  C         15.3440   15.3820   26.0560 C.2   216  GLU216      0.2260
     86  O         16.4590   15.7830   26.3940 O.2   216  GLU216     -0.2867
     87  CB        15.1570   16.5870   23.8980 C.3   216  GLU216      0.0388
     88  CG        14.3310   17.4720   22.9890 C.3   216  GLU216      0.1160
     89  CD        14.9690   17.6270   21.6330 C.2   216  GLU216      0.3649
     90  OE1       14.9420   16.6470   20.8590 O.co2 216  GLU216     -0.2457
     91  OE2       15.5110   18.7100   21.3360 O.co2 216  GLU216     -0.2457
     92  N         15.4460   26.9490   18.7840 N.3   227  HIS227     -0.1241
     93  CA        15.6590   26.8880   17.3300 C.3   227  HIS227      0.1621
     94  C         14.8690   28.0040   16.6240 C.2   227  HIS227      0.2264
     95  O         13.6480   27.8770   16.4520 O.2   227  HIS227     -0.2867
     96  CB        15.1020   25.5860   16.7350 C.3   227  HIS227      0.0745
     97  CG        15.7790   24.3230   17.1660 C.ar  227  HIS227      0.0817
     98  ND1       16.5810   23.5940   16.3140 N.ar  227  HIS227     -0.2268
     99  CD2       15.6440   23.5720   18.2860 C.ar  227  HIS227      0.1154
    100  CE1       16.9690   22.4860   16.9210 C.ar  227  HIS227      0.1986
    101  NE2       16.4090   22.4430   18.1150 N.ar  227  HIS227     -0.2212
    102  N         18.0150   24.0110   12.0740 N.3   257  PRO257     -0.2116
    103  CA        17.7550   22.6460   12.5430 C.3   257  PRO257      0.1372
    104  C         18.6390   22.1610   13.7080 C.2   257  PRO257      0.2244
    105  O         18.3290   21.1220   14.3070 O.2   257  PRO257     -0.2868
    106  CB        18.0480   21.8090   11.3060 C.3   257  PRO257      0.0268
    107  CG        19.1210   22.5640   10.6160 C.3   257  PRO257      0.0207
    108  CD        18.7930   24.0080   10.8190 C.3   257  PRO257      0.0892
    109  N          9.6390    9.3440   21.0180 N.3   366  TRP366     -0.1241
    110  CA        10.0930    8.8540   19.7340 C.3   366  TRP366      0.1605
    111  C         11.4710    8.1800   19.8070 C.2   366  TRP366      0.2264
    112  O         12.2140    8.3550   20.7740 O.2   366  TRP366     -0.2867
    113  CB        10.0820    9.9760   18.6850 C.3   366  TRP366      0.0550
    114  CG        10.9430   11.1790   18.9710 C.ar  366  TRP366      0.0003
    115  CD1       10.7120   12.1640   19.8730 C.ar  366  TRP366      0.0946
    116  CD2       12.1520   11.5310   18.3010 C.ar  366  TRP366      0.0152
    117  NE1       11.7130   13.1130   19.8230 N.ar  366  TRP366     -0.2442
    118  CE2       12.6050   12.7510   18.8540 C.ar  366  TRP366      0.0810
    119  CE3       12.8910   10.9420   17.2780 C.ar  366  TRP366      0.0012
    120  CZ2       13.7770   13.3760   18.4320 C.ar  366  TRP366      0.0191
    121  CZ3       14.0630   11.5660   16.8550 C.ar  366  TRP366      0.0001
    122  CH2       14.4830   12.7770   17.4220 C.ar  366  TRP366      0.0015
    123  N         23.1890   11.7410   19.0960 N.3   375  TRP375     -0.1241
    124  CA        23.3680   13.1950   19.3040 C.3   375  TRP375      0.1605
    125  C         22.9200   13.6690   20.6980 C.2   375  TRP375      0.2264
    126  O         23.3680   14.7110   21.1820 O.2   375  TRP375     -0.2867
    127  CB        22.6130   13.9870   18.2220 C.3   375  TRP375      0.0550
    128  CG        21.1330   13.6900   18.2280 C.ar  375  TRP375      0.0003
    129  CD1       20.4820   12.7110   17.5210 C.ar  375  TRP375      0.0946
    130  CD2       20.1350   14.3440   19.0130 C.ar  375  TRP375      0.0152
    131  NE1       19.1500   12.7190   17.8250 N.ar  375  TRP375     -0.2442
    132  CE2       18.9020   13.7140   18.7310 C.ar  375  TRP375      0.0810
    133  CE3       20.1630   15.4040   19.9260 C.ar  375  TRP375      0.0012
    134  CZ2       17.6960   14.1190   19.3220 C.ar  375  TRP375      0.0191
    135  CZ3       18.9680   15.8070   20.5190 C.ar  375  TRP375      0.0001
    136  CH2       17.7530   15.1560   20.2110 C.ar  375  TRP375      0.0015
@<TRIPOS>BOND
     1    60    59    2
     2    59    58    1
     3   107   108    1
     4   107   106    1
     5    40    39    2
     6   108   102    1
     7    58    61    1
     8    58    57    1
     9   106   103    1
    10    61    62    1
    11    52    51    2
    12    64    63    2
    13    39    38    1
    14   102   103    1
    15    37    38    1
    16   103   104    1
    17    62    63    1
    18    63    65   am
    19    49    50    1
    20    38    41    1
    21    51    50    1
    22    55    54   ar
    23    41    42    1
    24    44    42   ar
    25    44    46   ar
    26    11     9    1
    27    50    53    1
    28   104   105    2
    29    42    43   ar
    30    54    56   ar
    31    54    53    1
    32    46    47   ar
    33     9    10    1
    34     9     8    2
    35    43    45   ar
    36    47    45   ar
    37    47    48    1
    38     8     7    1
    39    73    72   ar
    40    98   100   ar
    41    98    97   ar
    42    95    94    2
    43    94    93    1
    44    96    97    1
    45    96    93    1
    46   121   119   ar
    47   121   122   ar
    48   100   101   ar
    49    66    67    1
    50     7     6    1
    51    97    99   ar
    52   119   116   ar
    53    93    92    1
    54    70    67    1
    55    70    71    1
    56   122   120   ar
    57    72    74   ar
    58    72    71    1
    59   129   131   ar
    60   129   128   ar
    61   131   132   ar
    62    67    68    1
    63     5     6    1
    64     5     2    1
    65   101    99   ar
    66   127   128    1
    67   127   124    1
    68   128   130   ar
    69   116   118   ar
    70   116   114   ar
    71    36    35    1
    72   120   118   ar
    73   113   114    1
    74   113   110    1
    75   132   130   ar
    76   132   134   ar
    77   118   117   ar
    78     4     3    2
    79   114   115   ar
    80   130   133   ar
    81    34    35   ar
    82    34    32   ar
    83   123   124    1
    84    69    68    2
    85     1     2    1
    86   124   125    1
    87   134   136   ar
    88     2     3    1
    89    35    33   ar
    90   110   111    1
    91   110   109    1
    92    82    80   ar
    93   111   112    2
    94   117   115   ar
    95   133   135   ar
    96    32    30   ar
    97   136   135   ar
    98    81    80   ar
    99    33    31   ar
   100   125   126    2
   101    80    79    1
   102    90    89   ar
   103    91    89   ar
   104    30    31   ar
   105    30    29    1
   106    89    88    1
   107    19    17   am
   108    79    76    1
   109    16    17    1
   110    16    13    1
   111    75    76    1
   112    29    26    1
   113    17    18    2
   114    76    77    1
   115    88    87    1
   116    24    21    1
   117    27    28    2
   118    27    26    1
   119    15    14    2
   120    12    13    1
   121    13    14    1
   122    26    25    1
   123    87    84    1
   124    77    78    2
   125    21    20    1
   126    21    22    1
   127    23    22    2
   128    84    83    1
   129    84    85    1
   130    85    86    2
