@<TRIPOS>MOLECULE
tmp/5o5eA00.pdb
 147 138 0 0 0
SMALL
GASTEIGER

@<TRIPOS>ATOM
      1  N         41.1250   48.3430  121.1890 N.3   175  GLY175     -0.1225
      2  CA        41.9010   48.6700  119.9980 C.3   175  GLY175      0.1811
      3  C         43.3440   49.0440  120.2510 C.2   175  GLY175      0.2280
      4  O         44.2100   48.6170  119.4860 O.2   175  GLY175     -0.2866
      5  N         45.1890   46.0290  121.2790 N.3   178  LEU178     -0.1231
      6  CA        45.3290   45.1920  120.1020 C.3   178  LEU178      0.1693
      7  C         46.5750   45.5960  119.2950 C.2   178  LEU178      0.2591
      8  O         47.2120   44.7200  118.7140 O.2   178  LEU178     -0.2718
      9  CB        44.0490   45.2890  119.2600 C.3   178  LEU178      0.0284
     10  CG        43.5630   44.0230  118.5690 C.3   178  LEU178      0.0019
     11  CD1       43.4390   42.8500  119.5310 C.3   178  LEU178      0.0001
     12  CD2       42.2380   44.2670  117.9350 C.3   178  LEU178      0.0001
     13  N         46.9440   46.9020  119.2970 N.am  179  VAL179     -0.1980
     14  CA        48.1450   47.4110  118.6140 C.3   179  VAL179      0.1595
     15  C         49.3620   47.0360  119.4720 C.2   179  VAL179      0.2287
     16  O         50.3370   46.5070  118.9320 O.2   179  VAL179     -0.2864
     17  CB        48.0850   48.9440  118.3090 C.3   179  VAL179      0.0276
     18  CG1       49.4260   49.4800  117.8090 C.3   179  VAL179      0.0022
     19  CG2       46.9840   49.2690  117.3060 C.3   179  VAL179      0.0022
     20  N         50.0450   43.1890  119.5120 N.3   182  ALA182     -0.1231
     21  CA        50.5810   42.8650  118.1930 C.3   182  ALA182      0.1694
     22  C         52.0320   43.3480  118.0720 C.2   182  ALA182      0.2592
     23  O         52.8590   42.6120  117.5330 O.2   182  ALA182     -0.2718
     24  CB        49.7240   43.4870  117.1080 C.3   182  ALA182      0.0304
     25  N         52.3510   44.5500  118.6220 N.am  183  SER183     -0.1952
     26  CA        53.7080   45.1180  118.6190 C.3   183  SER183      0.1924
     27  C         54.6620   44.2400  119.4240 C.2   183  SER183      0.2314
     28  O         55.7960   44.0230  118.9930 O.2   183  SER183     -0.2863
     29  CB        53.7110   46.5380  119.1730 C.3   183  SER183      0.2116
     30  OG        52.8610   47.3790  118.4140 O.3   183  SER183     -0.2180
     31  N         55.1400   40.8820  117.3210 N.3   186  VAL186     -0.1245
     32  CA        56.0970   41.1380  116.2270 C.3   186  VAL186      0.1561
     33  C         57.5270   41.1460  116.7860 C.2   186  VAL186      0.2260
     34  O         58.3850   40.4250  116.2710 O.2   186  VAL186     -0.2867
     35  CB        55.7700   42.4490  115.4500 C.3   186  VAL186      0.0252
     36  CG1       56.8770   42.8120  114.4640 C.3   186  VAL186      0.0019
     37  CG2       54.4310   42.3420  114.7250 C.3   186  VAL186      0.0019
     38  N         45.7210   38.6150  122.2630 N.3   211  PHE211     -0.1241
     39  CA        45.3870   39.2350  120.9860 C.3   211  PHE211      0.1605
     40  C         44.0690   38.6940  120.4100 C.2   211  PHE211      0.2264
     41  O         43.1600   39.4840  120.1380 O.2   211  PHE211     -0.2867
     42  CB        46.5290   39.0480  119.9660 C.3   211  PHE211      0.0534
     43  CG        46.2380   39.7130  118.6430 C.ar  211  PHE211     -0.0203
     44  CD1       46.4840   41.0690  118.4600 C.ar  211  PHE211     -0.0042
     45  CD2       45.6760   38.9930  117.5920 C.ar  211  PHE211     -0.0042
     46  CE1       46.1800   41.6910  117.2490 C.ar  211  PHE211     -0.0003
     47  CE2       45.3680   39.6160  116.3860 C.ar  211  PHE211     -0.0003
     48  CZ        45.6270   40.9600  116.2200 C.ar  211  PHE211     -0.0000
     49  N         40.4860   40.5770  120.0700 N.3   215  LEU215     -0.1245
     50  CA        39.9430   40.6740  118.7050 C.3   215  LEU215      0.1561
     51  C         38.4400   40.2990  118.7370 C.2   215  LEU215      0.2260
     52  O         37.6090   41.0600  118.2380 O.2   215  LEU215     -0.2867
     53  CB        40.7460   39.7410  117.7670 C.3   215  LEU215      0.0270
     54  CG        40.6660   39.9720  116.2640 C.3   215  LEU215      0.0019
     55  CD1       41.3670   41.2480  115.8610 C.3   215  LEU215      0.0001
     56  CD2       41.3120   38.8290  115.5300 C.3   215  LEU215      0.0001
     57  N         36.6730   43.1050  120.4180 N.3   218  LEU218     -0.1245
     58  CA        36.6100   44.2350  119.5080 C.3   218  LEU218      0.1561
     59  C         35.5410   43.9790  118.4300 C.2   218  LEU218      0.2260
     60  O         34.9540   44.9380  117.9210 O.2   218  LEU218     -0.2867
     61  CB        37.9870   44.5350  118.8850 C.3   218  LEU218      0.0270
     62  CG        38.0880   45.8960  118.1900 C.3   218  LEU218      0.0019
     63  CD1       38.5130   46.9840  119.1470 C.3   218  LEU218      0.0001
     64  CD2       38.9860   45.8380  116.9940 C.3   218  LEU218      0.0001
     65  N         33.6990   47.3400  118.5810 N.3   222  TRP222     -0.1227
     66  CA        33.9670   48.3210  117.5290 C.3   222  TRP222      0.1737
     67  C         32.6980   49.1010  117.1620 C.2   222  TRP222      0.2595
     68  O         31.5940   48.6140  117.4100 O.2   222  TRP222     -0.2718
     69  CB        34.5940   47.6740  116.2900 C.3   222  TRP222      0.0564
     70  CG        35.1860   48.6790  115.3520 C.ar  222  TRP222      0.0003
     71  CD1       34.6950   49.0460  114.1380 C.ar  222  TRP222      0.0946
     72  CD2       36.2980   49.5450  115.6150 C.ar  222  TRP222      0.0152
     73  NE1       35.4710   50.0410  113.5970 N.ar  222  TRP222     -0.2442
     74  CE2       36.4590   50.3720  114.4850 C.ar  222  TRP222      0.0810
     75  CE3       37.2100   49.6680  116.6780 C.ar  222  TRP222      0.0012
     76  CZ2       37.4770   51.3250  114.3940 C.ar  222  TRP222      0.0191
     77  CZ3       38.2220   50.6090  116.5840 C.ar  222  TRP222      0.0001
     78  CH2       38.3430   51.4310  115.4580 C.ar  222  TRP222      0.0015
     79  N         32.8700   50.3250  116.6230 N.am  223  TYR223     -0.1976
     80  CA        31.7940   51.2430  116.2600 C.3   223  TYR223      0.1639
     81  C         30.7700   50.6190  115.2800 C.2   223  TYR223      0.2290
     82  O         31.1670   50.1570  114.2110 O.2   223  TYR223     -0.2864
     83  CB        32.3780   52.5260  115.6630 C.3   223  TYR223      0.0560
     84  CG        31.3550   53.6150  115.4340 C.ar  223  TYR223     -0.0198
     85  CD1       30.9890   54.4800  116.4590 C.ar  223  TYR223     -0.0009
     86  CD2       30.7850   53.8120  114.1800 C.ar  223  TYR223     -0.0009
     87  CE1       30.0710   55.5050  116.2480 C.ar  223  TYR223      0.0417
     88  CE2       29.8600   54.8290  113.9600 C.ar  223  TYR223      0.0417
     89  CZ        29.5060   55.6740  114.9980 C.ar  223  TYR223      0.1957
     90  OH        28.5900   56.6780  114.8090 O.3   223  TYR223     -0.2866
     91  N         33.9850   57.3160  114.9580 N.3   356  ARG356     -0.1245
     92  CA        34.6250   56.1780  114.2860 C.3   356  ARG356      0.1563
     93  C         36.0090   56.5610  113.7720 C.2   356  ARG356      0.2260
     94  O         36.9530   55.7840  113.9380 O.2   356  ARG356     -0.2867
     95  CB        33.7590   55.6360  113.1390 C.3   356  ARG356      0.0307
     96  CG        34.2120   54.2620  112.6320 C.3   356  ARG356      0.0489
     97  CD        33.8820   54.0460  111.1680 C.3   356  ARG356      0.2205
     98  NE        34.6450   54.9320  110.2800 N.pl3 356  ARG356     -0.0865
     99  CZ        35.6180   54.5310  109.4670 C.cat 356  ARG356      0.5346
    100  NH1       35.9590   53.2490  109.4070 N.pl3 356  ARG356      0.1354
    101  NH2       36.2510   55.4070  108.6980 N.pl3 356  ARG356      0.1354
    102  N         39.9660   55.4410  115.2470 N.3   360  LEU360     -0.1245
    103  CA        40.7980   54.9300  114.1600 C.3   360  LEU360      0.1561
    104  C         42.0740   55.7550  114.0220 C.2   360  LEU360      0.2260
    105  O         43.1400   55.1810  113.8120 O.2   360  LEU360     -0.2867
    106  CB        39.9800   54.9390  112.8620 C.3   360  LEU360      0.0270
    107  CG        40.1890   53.8120  111.8460 C.3   360  LEU360      0.0019
    108  CD1       40.1420   52.4340  112.4770 C.3   360  LEU360      0.0001
    109  CD2       39.1390   53.8800  110.7710 C.3   360  LEU360      0.0001
    110  N         44.3510   54.9280  116.9620 N.3   363  LEU363     -0.1245
    111  CA        44.9230   53.5920  116.7500 C.3   363  LEU363      0.1561
    112  C         46.0820   53.6630  115.7670 C.2   363  LEU363      0.2260
    113  O         47.0590   52.9250  115.9000 O.2   363  LEU363     -0.2867
    114  CB        43.8610   52.5870  116.2630 C.3   363  LEU363      0.0270
    115  CG        42.6800   52.3000  117.2060 C.3   363  LEU363      0.0019
    116  CD1       41.8400   51.1630  116.6820 C.3   363  LEU363      0.0001
    117  CD2       43.1370   52.0260  118.6410 C.3   363  LEU363      0.0001
    118  N         49.9720   53.0240  116.1800 N.3   367  ILE367     -0.1245
    119  CA        50.7140   52.2920  115.1500 C.3   367  ILE367      0.1561
    120  C         52.0100   53.0480  114.8630 C.2   367  ILE367      0.2260
    121  O         53.0670   52.4210  114.8000 O.2   367  ILE367     -0.2867
    122  CB        49.8310   52.0690  113.8810 C.3   367  ILE367      0.0252
    123  CG1       48.9160   50.8400  114.0670 C.3   367  ILE367      0.0019
    124  CG2       50.6620   51.9400  112.5940 C.3   367  ILE367      0.0019
    125  CD1       47.6430   50.8450  113.2470 C.3   367  ILE367      0.0001
    126  N         54.6310   52.6020  117.6640 N.3   370  SER370     -0.1202
    127  CA        55.2500   51.2750  117.5620 C.3   370  SER370      0.2020
    128  C         56.3140   51.2650  116.4680 C.2   370  SER370      0.2618
    129  O         57.3690   50.6670  116.6610 O.2   370  SER370     -0.2717
    130  CB        54.2000   50.2020  117.3070 C.3   370  SER370      0.2103
    131  OG        53.4140   50.0250  118.4740 O.3   370  SER370     -0.2182
    132  N         56.0650   51.9850  115.3570 N.am  371  ALA371     -0.1979
    133  CA        57.0240   52.1330  114.2690 C.3   371  ALA371      0.1597
    134  C         58.2400   52.9170  114.7620 C.2   371  ALA371      0.2287
    135  O         59.3620   52.5080  114.4820 O.2   371  ALA371     -0.2864
    136  CB        56.3780   52.8320  113.0860 C.3   371  ALA371      0.0319
    137  N         60.1860   50.5590  117.1360 N.3   374  PHE374     -0.1241
    138  CA        60.8180   49.5420  116.2950 C.3   374  PHE374      0.1605
    139  C         61.9610   50.1360  115.4810 C.2   374  PHE374      0.2264
    140  O         62.9260   49.4270  115.2130 O.2   374  PHE374     -0.2867
    141  CB        59.8020   48.8540  115.3680 C.3   374  PHE374      0.0534
    142  CG        59.1310   47.6210  115.9370 C.ar  374  PHE374     -0.0203
    143  CD1       59.8680   46.4770  116.2280 C.ar  374  PHE374     -0.0042
    144  CD2       57.7530   47.5770  116.1150 C.ar  374  PHE374     -0.0042
    145  CE1       59.2460   45.3330  116.7350 C.ar  374  PHE374     -0.0003
    146  CE2       57.1310   46.4300  116.6150 C.ar  374  PHE374     -0.0003
    147  CZ        57.8830   45.3170  116.9200 C.ar  374  PHE374     -0.0000
@<TRIPOS>BOND
     1   101    99    1
     2   100    99    1
     3    99    98    2
     4    98    97    1
     5   109   107    1
     6    97    96    1
     7   107   108    1
     8   107   106    1
     9   124   122    1
    10    96    95    1
    11   106   103    1
    12   136   133    1
    13    95    92    1
    14   125   123    1
    15    73    71   ar
    16    73    74   ar
    17    93    94    2
    18    93    92    1
    19   105   104    2
    20   122   123    1
    21   122   119    1
    22    88    86   ar
    23    88    89   ar
    24   104   103    1
    25    71    70   ar
    26   103   102    1
    27    86    84   ar
    28    82    81    2
    29   133   134    1
    30   133   132    1
    31    92    91    1
    32    76    74   ar
    33    76    78   ar
    34    36    35    1
    35   135   134    2
    36    74    72   ar
    37    37    35    1
    38   121   120    2
    39    90    89    1
    40   120   119    1
    41    89    87   ar
    42   119   118    1
    43   140   139    2
    44    81    80    1
    45    70    72   ar
    46    70    69    1
    47   132   128   am
    48   141   142    1
    49   141   138    1
    50    84    83    1
    51    84    85   ar
    52    35    32    1
    53    78    77   ar
    54   139   138    1
    55    56    54    1
    56    72    75   ar
    57    83    80    1
    58   112   113    2
    59   112   111    1
    60    55    54    1
    61   142   144   ar
    62   142   143   ar
    63   144   146   ar
    64    48    47   ar
    65    48    46   ar
    66    32    33    1
    67    32    31    1
    68   143   145   ar
    69    87    85   ar
    70    80    79    1
    71   114   111    1
    72   114   115    1
    73    54    53    1
    74    34    33    2
    75    69    66    1
    76   138   137    1
    77    47    45   ar
    78   128   129    2
    79   128   127    1
    80    77    75   ar
    81   146   147   ar
    82    79    67   am
    83   116   115    1
    84   145   147   ar
    85   111   110    1
    86    64    62    1
    87    24    21    1
    88    67    68    2
    89    67    66    1
    90   115   117    1
    91    46    44   ar
    92    19    17    1
    93   130   127    1
    94   130   131    1
    95    66    65    1
    96    23    22    2
    97   127   126    1
    98    45    43   ar
    99    53    50    1
   100    18    17    1
   101    60    59    2
   102    12    10    1
   103    22    21    1
   104    22    25   am
   105    62    61    1
   106    62    63    1
   107    21    20    1
   108    52    51    2
   109    17    14    1
   110    30    29    1
   111    59    58    1
   112    44    43   ar
   113    10     9    1
   114    10    11    1
   115    14    13    1
   116    14    15    1
   117    26    25    1
   118    26    29    1
   119    26    27    1
   120    43    42    1
   121    50    51    1
   122    50    49    1
   123     8     7    2
   124    61    58    1
   125    16    15    2
   126    28    27    2
   127     9     6    1
   128     7    13   am
   129     7     6    1
   130     4     3    2
   131    58    57    1
   132    42    39    1
   133     2     3    1
   134     2     1    1
   135     6     5    1
   136    41    40    2
   137    40    39    1
   138    39    38    1
