@<TRIPOS>MOLECULE
tmp/5o5eA02.pdb
 98 96 0 0 0
SMALL
GASTEIGER

@<TRIPOS>ATOM
      1  N         69.6820   47.3100  136.8200 N.3   131  ILE131     -0.1231
      2  CA        69.1750   47.8730  135.5630 C.3   131  ILE131      0.1692
      3  C         70.2750   48.5820  134.7630 C.2   131  ILE131      0.2591
      4  O         71.2840   49.0030  135.3310 O.2   131  ILE131     -0.2718
      5  CB        68.0060   48.8420  135.8450 C.3   131  ILE131      0.0266
      6  CG1       67.1750   49.0880  134.5830 C.3   131  ILE131      0.0019
      7  CG2       68.4780   50.0880  136.5970 C.3   131  ILE131      0.0020
      8  CD1       65.8300   49.6660  134.8620 C.3   131  ILE131      0.0001
      9  N         70.0610   48.7170  133.4400 N.am  132  VAL132     -0.1980
     10  CA        70.9810   49.3850  132.5120 C.3   132  VAL132      0.1595
     11  C         70.3360   50.7180  132.0780 C.2   132  VAL132      0.2287
     12  O         69.1680   50.7400  131.6750 O.2   132  VAL132     -0.2864
     13  CB        71.3730   48.4850  131.3010 C.3   132  VAL132      0.0276
     14  CG1       72.4600   49.1380  130.4510 C.3   132  VAL132      0.0022
     15  CG2       71.8230   47.0980  131.7600 C.3   132  VAL132      0.0022
     16  N         69.1880   53.7020  129.9290 N.3   134  PRO134     -0.2116
     17  CA        68.9330   53.9090  128.4880 C.3   134  PRO134      0.1372
     18  C         69.2240   55.3380  127.9960 C.2   134  PRO134      0.2244
     19  O         69.6320   55.5070  126.8440 O.2   134  PRO134     -0.2868
     20  CB        67.4480   53.5640  128.3330 C.3   134  PRO134      0.0268
     21  CG        66.8530   53.7340  129.6960 C.3   134  PRO134      0.0207
     22  CD        67.9450   53.8310  130.7220 C.3   134  PRO134      0.0892
     23  N         69.0930   48.2790  141.9760 N.3   144  LEU144     -0.1245
     24  CA        68.0150   49.0510  142.5870 C.3   144  LEU144      0.1561
     25  C         67.3600   48.3010  143.7590 C.2   144  LEU144      0.2260
     26  O         66.6270   48.9170  144.5330 O.2   144  LEU144     -0.2867
     27  CB        66.9820   49.4720  141.5410 C.3   144  LEU144      0.0270
     28  CG        67.4310   50.6370  140.6600 C.3   144  LEU144      0.0019
     29  CD1       67.1930   50.3440  139.2030 C.3   144  LEU144      0.0001
     30  CD2       66.7680   51.9340  141.0790 C.3   144  LEU144      0.0001
     31  N         63.6280   48.2920  142.7210 N.3   148  TYR148     -0.1241
     32  CA        63.3430   47.5990  141.4640 C.3   148  TYR148      0.1605
     33  C         62.0460   46.7940  141.6240 C.2   148  TYR148      0.2264
     34  O         61.2770   46.6730  140.6710 O.2   148  TYR148     -0.2867
     35  CB        64.5090   46.6930  141.0300 C.3   148  TYR148      0.0534
     36  CG        64.3710   46.1920  139.6070 C.ar  148  TYR148     -0.0201
     37  CD1       64.7880   46.9680  138.5300 C.ar  148  TYR148     -0.0009
     38  CD2       63.8100   44.9460  139.3360 C.ar  148  TYR148     -0.0009
     39  CE1       64.6420   46.5230  137.2170 C.ar  148  TYR148      0.0417
     40  CE2       63.6610   44.4890  138.0280 C.ar  148  TYR148      0.0417
     41  CZ        64.0810   45.2800  136.9710 C.ar  148  TYR148      0.1957
     42  OH        63.9400   44.8380  135.6770 O.3   148  TYR148     -0.2866
     43  N         59.2530   49.2600  141.4980 N.3   151  TYR151     -0.1241
     44  CA        59.0210   49.5470  140.0820 C.3   151  TYR151      0.1605
     45  C         58.0810   48.5270  139.4600 C.2   151  TYR151      0.2264
     46  O         57.1570   48.9210  138.7540 O.2   151  TYR151     -0.2867
     47  CB        60.3540   49.5820  139.3150 C.3   151  TYR151      0.0534
     48  CG        60.2200   49.4460  137.8130 C.ar  151  TYR151     -0.0201
     49  CD1       59.8190   50.5240  137.0280 C.ar  151  TYR151     -0.0009
     50  CD2       60.5250   48.2490  137.1710 C.ar  151  TYR151     -0.0009
     51  CE1       59.6980   50.4070  135.6440 C.ar  151  TYR151      0.0417
     52  CE2       60.4150   48.1210  135.7860 C.ar  151  TYR151      0.0417
     53  CZ        60.0030   49.2050  135.0260 C.ar  151  TYR151      0.1957
     54  OH        59.8920   49.0920  133.6620 O.3   151  TYR151     -0.2866
     55  N         61.6540   40.3490  130.7080 N.3   249  HIS249     -0.1226
     56  CA        62.7560   41.3040  130.8700 C.3   249  HIS249      0.1752
     57  C         62.8230   42.3060  129.6980 C.2   249  HIS249      0.2596
     58  O         63.8990   42.5370  129.1350 O.2   249  HIS249     -0.2718
     59  CB        64.1090   40.5750  131.0550 C.3   249  HIS249      0.0759
     60  CG        64.1900   39.7190  132.2820 C.ar  249  HIS249      0.0818
     61  ND1       63.2910   38.6860  132.5080 N.ar  249  HIS249     -0.2268
     62  CD2       65.0930   39.7410  133.2920 C.ar  249  HIS249      0.1154
     63  CE1       63.6590   38.1350  133.6540 C.ar  249  HIS249      0.1986
     64  NE2       64.7410   38.7310  134.1610 N.ar  249  HIS249     -0.2212
     65  N         61.6770   42.9140  129.3470 N.am  250  PHE250     -0.1962
     66  CA        61.6180   43.9110  128.2780 C.3   250  PHE250      0.1771
     67  C         60.5510   44.9810  128.5610 C.2   250  PHE250      0.2620
     68  O         59.9580   45.5280  127.6220 O.2   250  PHE250     -0.2715
     69  CB        61.4030   43.2600  126.8970 C.3   250  PHE250      0.0574
     70  CG        60.1920   42.3770  126.7320 C.ar  250  PHE250     -0.0200
     71  CD1       58.9610   42.9170  126.3800 C.ar  250  PHE250     -0.0042
     72  CD2       60.3010   40.9980  126.8330 C.ar  250  PHE250     -0.0042
     73  CE1       57.8460   42.1000  126.2100 C.ar  250  PHE250     -0.0003
     74  CE2       59.1900   40.1790  126.6460 C.ar  250  PHE250     -0.0003
     75  CZ        57.9680   40.7370  126.3380 C.ar  250  PHE250     -0.0000
     76  N         60.3570   45.3240  129.8580 N.am  251  SER251     -0.1936
     77  CA        59.3960   46.3400  130.3080 C.3   251  SER251      0.2055
     78  C         59.7250   47.7200  129.7180 C.2   251  SER251      0.2642
     79  O         58.8080   48.5080  129.4970 O.2   251  SER251     -0.2714
     80  CB        59.3500   46.4100  131.8300 C.3   251  SER251      0.2130
     81  OG        60.5970   46.8010  132.3790 O.3   251  SER251     -0.2179
     82  N         61.0280   47.9860  129.4300 N.am  252  LYS252     -0.1977
     83  CA        61.5310   49.2210  128.8210 C.3   252  LYS252      0.1596
     84  C         60.9440   49.3800  127.4060 C.2   252  LYS252      0.2287
     85  O         60.2890   50.3920  127.1420 O.2   252  LYS252     -0.2864
     86  CB        63.0720   49.2310  128.7960 C.3   252  LYS252      0.0298
     87  CG        63.5550   49.1440  130.2700 C.3   252  LYS252      0.0038
     88  CD        65.0080   49.4900  130.3880 C.3   252  LYS252      0.0206
     89  CE        65.9030   48.5270  129.7480 C.3   252  LYS252      0.1093
     90  NZ        67.3630   48.9480  129.9240 N.3   252  LYS252     -0.1314
     91  N         57.1890   49.7440  127.5840 N.3   255  LEU255     -0.1245
     92  CA        56.7900   51.1000  127.9840 C.3   255  LEU255      0.1561
     93  C         56.9270   52.0980  126.8220 C.2   255  LEU255      0.2260
     94  O         56.2690   53.1380  126.8340 O.2   255  LEU255     -0.2867
     95  CB        57.5710   51.5890  129.2120 C.3   255  LEU255      0.0270
     96  CG        56.9900   51.1770  130.5700 C.3   255  LEU255      0.0019
     97  CD1       58.0580   51.1260  131.6250 C.3   255  LEU255      0.0001
     98  CD2       55.8760   52.1060  131.0100 C.3   255  LEU255      0.0001
@<TRIPOS>BOND
     1    73    75   ar
     2    73    71   ar
     3    75    74   ar
     4    71    70   ar
     5    74    72   ar
     6    70    72   ar
     7    70    69    1
     8    93    94    2
     9    93    92    1
    10    19    18    2
    11    69    66    1
    12    85    84    2
    13    84    83    1
    14    91    92    1
    15    68    67    2
    16    92    95    1
    17    18    17    1
    18    66    67    1
    19    66    65    1
    20    20    17    1
    21    20    21    1
    22    17    16    1
    23    67    76   am
    24    86    83    1
    25    86    87    1
    26    83    82    1
    27    58    57    2
    28    95    96    1
    29    65    57   am
    30    82    78   am
    31    79    78    2
    32    21    22    1
    33    57    56    1
    34    78    77    1
    35    89    90    1
    36    89    88    1
    37    76    77    1
    38    16    22    1
    39    87    88    1
    40    77    80    1
    41    14    13    1
    42    96    98    1
    43    96    97    1
    44    55    56    1
    45    56    59    1
    46    59    60    1
    47    13    15    1
    48    13    10    1
    49    12    11    2
    50    80    81    1
    51    11    10    1
    52    60    61   ar
    53    60    62   ar
    54    61    63   ar
    55    10     9    1
    56    62    64   ar
    57     9     3   am
    58    63    64   ar
    59    54    53    1
    60     6     8    1
    61     6     5    1
    62     3     4    2
    63     3     2    1
    64    53    51   ar
    65    53    52   ar
    66     2     5    1
    67     2     1    1
    68    51    49   ar
    69    42    41    1
    70    52    50   ar
    71     5     7    1
    72    41    39   ar
    73    41    40   ar
    74    49    48   ar
    75    50    48   ar
    76    39    37   ar
    77    48    47    1
    78    40    38   ar
    79    37    36   ar
    80    46    45    2
    81    29    28    1
    82    47    44    1
    83    38    36   ar
    84    45    44    1
    85    36    35    1
    86    44    43    1
    87    28    30    1
    88    28    27    1
    89    34    33    2
    90    35    32    1
    91    32    33    1
    92    32    31    1
    93    27    24    1
    94    23    24    1
    95    24    25    1
    96    25    26    2
