@<TRIPOS>MOLECULE
tmp/5o5fA00.pdb
 113 110 0 0 0
SMALL
GASTEIGER

@<TRIPOS>ATOM
      1  N         18.9530    7.6990   -5.0600 N.3    26  ILE26      -0.1231
      2  CA        18.1020    6.5280   -5.2300 C.3    26  ILE26       0.1692
      3  C         18.9040    5.2600   -5.4930 C.2    26  ILE26       0.2592
      4  O         18.3590    4.1600   -5.3390 O.2    26  ILE26      -0.2718
      5  CB        16.9980    6.7600   -6.2760 C.3    26  ILE26       0.0266
      6  CG1       17.6030    6.9710   -7.6630 C.3    26  ILE26       0.0019
      7  CG2       16.1250    7.9520   -5.8750 C.3    26  ILE26       0.0020
      8  CD1       16.5600    7.0550   -8.7710 C.3    26  ILE26       0.0001
      9  N         20.1800    5.3820   -5.8750 N.am   27  PHE27      -0.1976
     10  CA        21.0690    4.2420   -6.0770 C.3    27  PHE27       0.1639
     11  C         22.0850    4.0940   -4.9490 C.2    27  PHE27       0.2290
     12  O         23.0160    3.2920   -5.0630 O.2    27  PHE27      -0.2864
     13  CB        21.7700    4.3450   -7.4340 C.3    27  PHE27       0.0560
     14  CG        20.8200    4.4610   -8.5940 C.ar   27  PHE27      -0.0200
     15  CD1       19.9930    3.4060   -8.9380 C.ar   27  PHE27      -0.0042
     16  CD2       20.7400    5.6340   -9.3240 C.ar   27  PHE27      -0.0042
     17  CE1       19.1020    3.5160  -10.0080 C.ar   27  PHE27      -0.0003
     18  CE2       19.8550    5.7560  -10.3910 C.ar   27  PHE27      -0.0003
     19  CZ        19.0480    4.6910  -10.7380 C.ar   27  PHE27      -0.0000
     20  N         21.8210    2.9250   -1.7970 N.3    29  GLU29      -0.1245
     21  CA        21.7090    1.7650   -0.9260 C.3    29  GLU29       0.1567
     22  C         20.9590    0.6730   -1.6680 C.2    29  GLU29       0.2260
     23  O         20.2970    0.9460   -2.6740 O.2    29  GLU29      -0.2867
     24  CB        20.9410    2.1350    0.3520 C.3    29  GLU29       0.0388
     25  CG        21.6180    3.2170    1.1890 C.3    29  GLU29       0.1160
     26  CD        20.8160    3.6130    2.4120 C.2    29  GLU29       0.3649
     27  OE1       19.5810    3.4320    2.4040 O.co2  29  GLU29      -0.2457
     28  OE2       21.4260    4.1140    3.3790 O.co2  29  GLU29      -0.2457
     29  N         18.2250   -1.6890   -3.1170 N.3    31  VAL31      -0.1231
     30  CA        16.7760   -1.6230   -3.2740 C.3    31  VAL31       0.1678
     31  C         16.1790   -2.3600   -2.0820 C.2    31  VAL31       0.2434
     32  O         16.5530   -3.5130   -1.8230 O.2    31  VAL31      -0.2733
     33  CB        16.3420   -2.2200   -4.6210 C.3    31  VAL31       0.0265
     34  CG1       14.8200   -2.2880   -4.7170 C.3    31  VAL31       0.0020
     35  CG2       16.9290   -1.3920   -5.7660 C.3    31  VAL31       0.0020
     36  N         15.3010   -1.7290   -1.3140 N.am   32  PRO32      -0.2729
     37  CA        14.8150   -2.3410   -0.0690 C.3    32  PRO32       0.1401
     38  C         13.7800   -3.4150   -0.3570 C.2    32  PRO32       0.2269
     39  O         12.6730   -3.1280   -0.8220 O.2    32  PRO32      -0.2865
     40  CB        14.2120   -1.1490    0.6910 C.3    32  PRO32       0.0296
     41  CG        13.7980   -0.1900   -0.3830 C.3    32  PRO32       0.0237
     42  CD        14.7820   -0.3640   -1.5190 C.3    32  PRO32       0.0939
     43  N         11.9410   -4.9180    1.5850 N.3    34  SER34      -0.1202
     44  CA        10.7260   -4.7540    2.3780 C.3    34  SER34       0.2020
     45  C          9.7160   -3.8440    1.6910 C.2    34  SER34       0.2619
     46  O          8.5080   -3.9860    1.9150 O.2    34  SER34      -0.2717
     47  CB        11.0700   -4.2030    3.7630 C.3    34  SER34       0.2103
     48  OG        11.2860   -2.8030    3.7120 O.3    34  SER34      -0.2182
     49  N         10.1880   -2.9050    0.8720 N.am   35  GLU35      -0.1965
     50  CA         9.3180   -2.0630    0.0640 C.3    35  GLU35       0.1733
     51  C          9.0870   -2.6310   -1.3250 C.2    35  GLU35       0.2616
     52  O          8.0720   -2.3090   -1.9530 O.2    35  GLU35      -0.2715
     53  CB         9.9370   -0.6680   -0.0930 C.3    35  GLU35       0.0429
     54  CG        10.4130   -0.0420    1.2070 C.3    35  GLU35       0.1163
     55  CD         9.2720    0.2680    2.1530 C.2    35  GLU35       0.3649
     56  OE1        8.2820    0.8850    1.7070 O.co2  35  GLU35      -0.2457
     57  OE2        9.3650   -0.1030    3.3420 O.co2  35  GLU35      -0.2457
     58  N         10.0130   -3.4480   -1.8170 N.am   36  VAL36      -0.1977
     59  CA         9.9440   -4.0490   -3.1460 C.3    36  VAL36       0.1596
     60  C         10.0720   -5.5590   -2.9750 C.2    36  VAL36       0.2287
     61  O         11.1280   -6.1260   -3.2950 O.2    36  VAL36      -0.2864
     62  CB        11.0580   -3.5010   -4.0510 C.3    36  VAL36       0.0276
     63  CG1       10.7630   -3.8090   -5.5050 C.3    36  VAL36       0.0022
     64  CG2       11.2410   -1.9990   -3.8330 C.3    36  VAL36       0.0022
     65  N         11.5490   -8.0100   -5.8100 N.3    39  TYR39      -0.1241
     66  CA        12.6950   -7.5130   -6.5670 C.3    39  TYR39       0.1605
     67  C         13.6250   -8.6420   -7.0000 C.2    39  TYR39       0.2264
     68  O         14.0780   -8.6810   -8.1490 O.2    39  TYR39      -0.2867
     69  CB        13.4490   -6.4810   -5.7340 C.3    39  TYR39       0.0534
     70  CG        14.4880   -5.7320   -6.5220 C.ar   39  TYR39      -0.0201
     71  CD1       14.1200   -4.7970   -7.4860 C.ar   39  TYR39      -0.0009
     72  CD2       15.8380   -5.9620   -6.3090 C.ar   39  TYR39      -0.0009
     73  CE1       15.0720   -4.1090   -8.2140 C.ar   39  TYR39       0.0417
     74  CE2       16.7970   -5.2830   -7.0290 C.ar   39  TYR39       0.0417
     75  CZ        16.4100   -4.3580   -7.9770 C.ar   39  TYR39       0.1957
     76  OH        17.3870   -3.6910   -8.6780 O.3    39  TYR39      -0.2866
     77  N         17.9150   -1.4340  -12.8680 N.3    78  CYS78      -0.1235
     78  CA        16.8390   -0.4650  -12.7440 C.3    78  CYS78       0.1677
     79  C         16.0210   -0.3720  -14.0280 C.2    78  CYS78       0.2270
     80  O         14.7850   -0.3220  -13.9750 O.2    78  CYS78      -0.2867
     81  CB        17.4200    0.8840  -12.3270 C.3    78  CYS78       0.0956
     82  SG        16.2270    2.1830  -12.0180 S.3    78  CYS78      -0.0801
     83  N         13.8430   -3.6270  -14.0690 N.3    81  TYR81      -0.1227
     84  CA        12.7480   -3.7560  -13.1170 C.3    81  TYR81       0.1736
     85  C         11.6270   -2.7490  -13.3560 C.2    81  TYR81       0.2595
     86  O         10.4620   -3.0580  -13.0950 O.2    81  TYR81      -0.2718
     87  CB        13.2700   -3.6250  -11.6820 C.3    81  TYR81       0.0548
     88  CG        12.1790   -3.8870  -10.6860 C.ar   81  TYR81      -0.0200
     89  CD1       11.7260   -5.1800  -10.4490 C.ar   81  TYR81      -0.0009
     90  CD2       11.5620   -2.8440  -10.0190 C.ar   81  TYR81      -0.0009
     91  CE1       10.6980   -5.4220   -9.5610 C.ar   81  TYR81       0.0417
     92  CE2       10.5320   -3.0760   -9.1310 C.ar   81  TYR81       0.0417
     93  CZ        10.1080   -4.3680   -8.9050 C.ar   81  TYR81       0.1957
     94  OH         9.0790   -4.6080   -8.0230 O.3    81  TYR81      -0.2866
     95  N         11.9470   -1.5490  -13.8260 N.am   82  ASN82      -0.1974
     96  CA        10.9990   -0.4480  -13.8090 C.3    82  ASN82       0.1688
     97  C         10.4300   -0.1720  -15.1900 C.2    82  ASN82       0.2292
     98  O         11.1070   -0.3460  -16.2060 O.2    82  ASN82      -0.2864
     99  CB        11.6690    0.8050  -13.2610 C.3    82  ASN82       0.1181
    100  CG        11.9250    0.7030  -11.7870 C.2    82  ASN82       0.2629
    101  OD1       10.9900    0.8000  -10.9880 O.2    82  ASN82      -0.2716
    102  ND2       13.1630    0.4830  -11.4110 N.am   82  ASN82      -0.0877
    103  N         12.2250    6.4230  -12.0790 N.3    88  PHE88      -0.1241
    104  CA        13.3500    5.5110  -11.8500 C.3    88  PHE88       0.1605
    105  C         14.0060    5.1040  -13.1630 C.2    88  PHE88       0.2264
    106  O         15.2350    5.1120  -13.2840 O.2    88  PHE88      -0.2867
    107  CB        12.8980    4.2550  -11.0940 C.3    88  PHE88       0.0534
    108  CG        12.6710    4.4650   -9.6190 C.ar   88  PHE88      -0.0203
    109  CD1       11.9060    3.5540   -8.8980 C.ar   88  PHE88      -0.0042
    110  CD2       13.1960    5.5590   -8.9500 C.ar   88  PHE88      -0.0042
    111  CE1       11.6800    3.7190   -7.5420 C.ar   88  PHE88      -0.0003
    112  CE2       12.9690    5.7320   -7.5840 C.ar   88  PHE88      -0.0003
    113  CZ        12.2120    4.8140   -6.8870 C.ar   88  PHE88      -0.0000
@<TRIPOS>BOND
     1    98    97    2
     2    97    96    1
     3    83    84    1
     4    79    80    2
     5    79    78    1
     6    95    96    1
     7    95    85   am
     8    96    99    1
     9    85    84    1
    10    85    86    2
    11   106   105    2
    12    99   100    1
    13   105   104    1
    14    84    87    1
    15    77    78    1
    16    78    81    1
    17    81    82    1
    18   103   104    1
    19   104   107    1
    20   100   102   am
    21   100   101    2
    22    87    88    1
    23   107   108    1
    24    19    18   ar
    25    19    17   ar
    26    88    89   ar
    27    88    90   ar
    28    89    91   ar
    29    18    16   ar
    30    90    92   ar
    31    17    15   ar
    32   108   110   ar
    33   108   109   ar
    34    91    93   ar
    35    16    14   ar
    36    92    93   ar
    37   110   112   ar
    38    15    14   ar
    39    93    94    1
    40   109   111   ar
    41     8     6    1
    42    76    75    1
    43    14    13    1
    44    73    75   ar
    45    73    71   ar
    46    68    67    2
    47    75    74   ar
    48     6     5    1
    49   112   113   ar
    50   111   113   ar
    51    71    70   ar
    52    13    10    1
    53    74    72   ar
    54    67    66    1
    55    66    65    1
    56    66    69    1
    57    70    72   ar
    58    70    69    1
    59     5     7    1
    60     5     2    1
    61    10     9    1
    62    10    11    1
    63     9     3   am
    64    35    33    1
    65    63    62    1
    66     3     4    2
    67     3     2    1
    68     2     1    1
    69    12    11    2
    70    34    33    1
    71    33    30    1
    72    62    64    1
    73    62    59    1
    74    61    60    2
    75    30    29    1
    76    30    31    1
    77    59    60    1
    78    59    58    1
    79    23    22    2
    80    31    32    2
    81    31    36   am
    82    52    51    2
    83    58    51   am
    84    20    21    1
    85    22    21    1
    86    42    36    1
    87    42    41    1
    88    51    50    1
    89    36    37    1
    90    21    24    1
    91    39    38    2
    92    41    40    1
    93    38    37    1
    94    53    50    1
    95    53    54    1
    96    37    40    1
    97    50    49    1
    98    24    25    1
    99    49    45   am
   100    25    26    1
   101    54    55    1
   102    43    44    1
   103    45    46    2
   104    45    44    1
   105    56    55   ar
   106    55    57   ar
   107    44    47    1
   108    27    26   ar
   109    26    28   ar
   110    48    47    1
