@<TRIPOS>MOLECULE
tmp/5o5hA00.pdb
 106 103 0 0 0
SMALL
GASTEIGER

@<TRIPOS>ATOM
      1  N         16.3590  -12.7480    5.0450 N.3    25  ILE25      -0.1231
      2  CA        14.9050  -12.6520    4.9570 C.3    25  ILE25       0.1692
      3  C         14.2480  -14.0110    4.7460 C.2    25  ILE25       0.2592
      4  O         13.0250  -14.1230    4.8950 O.2    25  ILE25      -0.2718
      5  CB        14.4600  -11.6730    3.8530 C.3    25  ILE25       0.0266
      6  CG1       14.7000  -12.2630    2.4770 C.3    25  ILE25       0.0019
      7  CG2       15.1770  -10.3160    3.9980 C.3    25  ILE25       0.0020
      8  CD1       14.1390  -11.4020    1.3770 C.3    25  ILE25       0.0001
      9  N         15.0210  -15.0470    4.4380 N.am   26  PHE26      -0.1976
     10  CA        14.5040  -16.3950    4.2490 C.3    26  PHE26       0.1639
     11  C         14.9230  -17.3530    5.3630 C.2    26  PHE26       0.2290
     12  O         14.6730  -18.5590    5.2540 O.2    26  PHE26      -0.2864
     13  CB        14.9610  -16.9400    2.8910 C.3    26  PHE26       0.0560
     14  CG        14.5940  -16.0590    1.7130 C.ar   26  PHE26      -0.0200
     15  CD1       13.2710  -15.9130    1.3110 C.ar   26  PHE26      -0.0042
     16  CD2       15.5700  -15.3660    1.0210 C.ar   26  PHE26      -0.0042
     17  CE1       12.9420  -15.1210    0.2200 C.ar   26  PHE26      -0.0003
     18  CE2       15.2410  -14.5550   -0.0650 C.ar   26  PHE26      -0.0003
     19  CZ        13.9210  -14.4480   -0.4700 C.ar   26  PHE26      -0.0000
     20  N          7.9860  -16.4930    7.6090 N.3    30  VAL30      -0.1231
     21  CA         7.4260  -15.1520    7.4580 C.3    30  VAL30       0.1678
     22  C          6.5320  -14.9130    8.6650 C.2    30  VAL30       0.2434
     23  O          5.6210  -15.7130    8.9190 O.2    30  VAL30      -0.2733
     24  CB         6.6650  -15.0260    6.1280 C.3    30  VAL30       0.0265
     25  CG1        5.7660  -13.8060    6.1200 C.3    30  VAL30       0.0020
     26  CG2        7.6460  -14.9810    4.9750 C.3    30  VAL30       0.0020
     27  N          6.7580  -13.8610    9.4580 N.am   31  PRO31      -0.2729
     28  CA         5.9980  -13.7150   10.7090 C.3    31  PRO31       0.1401
     29  C          4.5490  -13.3080   10.4760 C.2    31  PRO31       0.2269
     30  O          4.2660  -12.1860   10.0470 O.2    31  PRO31      -0.2865
     31  CB         6.7770  -12.6340   11.4700 C.3    31  PRO31       0.0296
     32  CG         7.4180  -11.8160   10.4060 C.3    31  PRO31       0.0237
     33  CD         7.7620  -12.7920    9.2920 C.3    31  PRO31       0.0939
     34  N          3.1610   -9.9500   11.6430 N.3    34  GLU34      -0.1231
     35  CA         3.3430   -8.7820   10.7900 C.3    34  GLU34       0.1699
     36  C          2.6700   -8.9350    9.4350 C.2    34  GLU34       0.2592
     37  O          2.2790   -7.9320    8.8270 O.2    34  GLU34      -0.2718
     38  CB         4.8330   -8.5050   10.5720 C.3    34  GLU34       0.0402
     39  CG         5.7070   -8.8700   11.7480 C.3    34  GLU34       0.1161
     40  CD         5.4680   -7.9650   12.9330 C.2    34  GLU34       0.3649
     41  OE1        5.3410   -8.4900   14.0610 O.co2  34  GLU34      -0.2457
     42  OE2        5.4020   -6.7310   12.7330 O.co2  34  GLU34      -0.2457
     43  N          2.5440  -10.1600    8.9400 N.am   35  VAL35      -0.1980
     44  CA         1.9130  -10.4210    7.6490 C.3    35  VAL35       0.1595
     45  C          0.7090  -11.3220    7.8820 C.2    35  VAL35       0.2287
     46  O          0.7710  -12.5220    7.5850 O.2    35  VAL35      -0.2864
     47  CB         2.9010  -11.0630    6.6630 C.3    35  VAL35       0.0276
     48  CG1        2.3460  -10.9930    5.2570 C.3    35  VAL35       0.0022
     49  CG2        4.2660  -10.3940    6.7550 C.3    35  VAL35       0.0022
     50  N         -0.7790  -13.7930    5.1460 N.3    38  TYR38      -0.1241
     51  CA         0.1940  -14.5840    4.3970 C.3    38  TYR38       0.1605
     52  C         -0.3740  -15.9440    3.9910 C.2    38  TYR38       0.2264
     53  O         -0.2430  -16.3570    2.8320 O.2    38  TYR38      -0.2867
     54  CB         1.4730  -14.7530    5.2140 C.3    38  TYR38       0.0534
     55  CG         2.6220  -15.2970    4.3980 C.ar   38  TYR38      -0.0201
     56  CD1        3.1630  -14.5550    3.3510 C.ar   38  TYR38      -0.0009
     57  CD2        3.1670  -16.5500    4.6710 C.ar   38  TYR38      -0.0009
     58  CE1        4.2120  -15.0410    2.5960 C.ar   38  TYR38       0.0417
     59  CE2        4.2230  -17.0490    3.9210 C.ar   38  TYR38       0.0417
     60  CZ         4.7430  -16.2900    2.8800 C.ar   38  TYR38       0.1957
     61  OH         5.7980  -16.7850    2.1250 O.3    38  TYR38      -0.2866
     62  N         10.7220  -21.7350   -1.0860 N.3    73  ILE73      -0.1245
     63  CA        11.1270  -20.4560   -0.4890 C.3    73  ILE73       0.1561
     64  C         11.0950  -19.3630   -1.5440 C.2    73  ILE73       0.2260
     65  O         10.5680  -18.2640   -1.3240 O.2    73  ILE73      -0.2867
     66  CB        12.5220  -20.5740    0.1520 C.3    73  ILE73       0.0252
     67  CG1       12.5000  -21.5680    1.3210 C.3    73  ILE73       0.0019
     68  CG2       13.0210  -19.1960    0.6430 C.3    73  ILE73       0.0019
     69  CD1       13.8720  -21.8180    1.9090 C.3    73  ILE73       0.0001
     70  N          7.8780  -16.3830   -2.3450 N.3    77  CYS77      -0.1235
     71  CA         8.2580  -14.9780   -2.2620 C.3    77  CYS77       0.1677
     72  C          7.9350  -14.2380   -3.5540 C.2    77  CYS77       0.2270
     73  O          7.4990  -13.0780   -3.5210 O.2    77  CYS77      -0.2867
     74  CB         9.7420  -14.8710   -1.9200 C.3    77  CYS77       0.0956
     75  SG        10.2930  -13.1990   -1.5140 S.3    77  CYS77      -0.0801
     76  N          3.9270  -13.8850   -3.3880 N.3    80  TYR80      -0.1227
     77  CA         3.2450  -12.9900   -2.4510 C.3    80  TYR80       0.1736
     78  C          3.5930  -11.5220   -2.6890 C.2    80  TYR80       0.2595
     79  O          2.7360  -10.6490   -2.5240 O.2    80  TYR80      -0.2718
     80  CB         3.5670  -13.3730   -1.0050 C.3    80  TYR80       0.0548
     81  CG         2.8570  -12.4830    0.0020 C.ar   80  TYR80      -0.0200
     82  CD1        1.5480  -12.7560    0.3990 C.ar   80  TYR80      -0.0009
     83  CD2        3.4830  -11.3580    0.5310 C.ar   80  TYR80      -0.0009
     84  CE1        0.8840  -11.9360    1.3030 C.ar   80  TYR80       0.0417
     85  CE2        2.8230  -10.5280    1.4330 C.ar   80  TYR80       0.0417
     86  CZ         1.5240  -10.8300    1.8160 C.ar   80  TYR80       0.1957
     87  OH         0.8580  -10.0260    2.7110 O.3    80  TYR80      -0.2866
     88  N          4.8360  -11.2270   -3.0670 N.am   81  ASN81      -0.1974
     89  CA         5.3410   -9.8580   -3.1070 C.3    81  ASN81       0.1688
     90  C          5.2450   -9.2500   -4.5050 C.2    81  ASN81       0.2292
     91  O          5.4500   -9.9360   -5.5110 O.2    81  ASN81      -0.2864
     92  CB         6.7910   -9.8290   -2.6300 C.3    81  ASN81       0.1181
     93  CG         6.9420  -10.3420   -1.2100 C.2    81  ASN81       0.2629
     94  OD1        6.5850   -9.6560   -0.2640 O.2    81  ASN81      -0.2716
     95  ND2        7.4620  -11.5600   -1.0610 N.am   81  ASN81      -0.0877
     96  N         11.7890   -7.6100   -1.4850 N.3    87  PHE87      -0.1241
     97  CA        11.5750   -9.0420   -1.2860 C.3    87  PHE87       0.1605
     98  C         11.5700   -9.7960   -2.6130 C.2    87  PHE87       0.2264
     99  O         12.1890  -10.8600   -2.7410 O.2    87  PHE87      -0.2867
    100  CB        10.2590   -9.2830   -0.5420 C.3    87  PHE87       0.0534
    101  CG        10.3030   -8.9240    0.9160 C.ar   87  PHE87      -0.0203
    102  CD1       11.4530   -9.1230    1.6620 C.ar   87  PHE87      -0.0042
    103  CD2        9.1910   -8.3800    1.5410 C.ar   87  PHE87      -0.0042
    104  CE1       11.4950   -8.7840    3.0080 C.ar   87  PHE87      -0.0003
    105  CE2        9.2270   -8.0330    2.8860 C.ar   87  PHE87      -0.0003
    106  CZ        10.3780   -8.2380    3.6200 C.ar   87  PHE87      -0.0000
@<TRIPOS>BOND
     1    91    90    2
     2    90    89    1
     3    72    73    2
     4    72    71    1
     5    76    77    1
     6    89    88    1
     7    89    92    1
     8    88    78   am
     9    99    98    2
    10    78    79    2
    11    78    77    1
    12    92    93    1
    13    98    97    1
    14    77    80    1
    15    70    71    1
    16    71    74    1
    17    74    75    1
    18    64    65    2
    19    64    63    1
    20    96    97    1
    21    97   100    1
    22    93    95   am
    23    93    94    2
    24    62    63    1
    25    80    81    1
    26   100   101    1
    27    63    66    1
    28    19    18   ar
    29    19    17   ar
    30    18    16   ar
    31    81    82   ar
    32    81    83   ar
    33    66    68    1
    34    66    67    1
    35    17    15   ar
    36    82    84   ar
    37    83    85   ar
    38   101   103   ar
    39   101   102   ar
    40    16    14   ar
    41    84    86   ar
    42    15    14   ar
    43    67    69    1
    44     8     6    1
    45    85    86   ar
    46   103   105   ar
    47   102   104   ar
    48    14    13    1
    49    86    87    1
    50    61    60    1
    51     6     5    1
    52    58    60   ar
    53    58    56   ar
    54    53    52    2
    55    60    59   ar
    56   105   106   ar
    57    13    10    1
    58   104   106   ar
    59    56    55   ar
    60     5     7    1
    61     5     2    1
    62    59    57   ar
    63    52    51    1
    64    10     9    1
    65    10    11    1
    66    51    50    1
    67    51    54    1
    68    55    57   ar
    69    55    54    1
    70     9     3   am
    71     3     4    2
    72     3     2    1
    73     2     1    1
    74    26    24    1
    75    12    11    2
    76    48    47    1
    77    25    24    1
    78    24    21    1
    79    47    49    1
    80    47    44    1
    81    21    20    1
    82    21    22    1
    83    46    45    2
    84    44    45    1
    85    44    43    1
    86    22    23    2
    87    22    27   am
    88    37    36    2
    89    43    36   am
    90    33    27    1
    91    33    32    1
    92    36    35    1
    93    27    28    1
    94    30    29    2
    95    32    31    1
    96    29    28    1
    97    38    35    1
    98    38    39    1
    99    28    31    1
   100    35    34    1
   101    39    40    1
   102    42    40   ar
   103    40    41   ar
