@<TRIPOS>MOLECULE
tmp/5o5lF00.pdb
 133 126 0 0 0
SMALL
GASTEIGER

@<TRIPOS>ATOM
      1  N        211.9100   12.2980  384.7480 N.3    50  PHE50      -0.1241
      2  CA       211.4090   12.3630  383.3780 C.3    50  PHE50       0.1605
      3  C        211.4000   13.8150  382.9220 C.2    50  PHE50       0.2264
      4  O        210.7870   14.6550  383.5780 O.2    50  PHE50      -0.2867
      5  CB       210.0000   11.7520  383.2430 C.3    50  PHE50       0.0534
      6  CG       209.9790   10.2480  383.1070 C.ar   50  PHE50      -0.0203
      7  CD1      210.2890    9.6380  381.8970 C.ar   50  PHE50      -0.0042
      8  CD2      209.6290    9.4410  384.1820 C.ar   50  PHE50      -0.0042
      9  CE1      210.2590    8.2480  381.7730 C.ar   50  PHE50      -0.0003
     10  CE2      209.6030    8.0510  384.0560 C.ar   50  PHE50      -0.0003
     11  CZ       209.9130    7.4660  382.8540 C.ar   50  PHE50      -0.0000
     12  N        216.8290    5.8210  379.2050 N.3    92  LYS92      -0.1245
     13  CA       216.4180    5.9000  377.8060 C.3    92  LYS92       0.1561
     14  C        215.9510    7.2790  377.3720 C.2    92  LYS92       0.2260
     15  O        215.8750    8.2090  378.1770 O.2    92  LYS92      -0.2867
     16  CB       215.3370    4.8390  377.4740 C.3    92  LYS92       0.0271
     17  CG       214.0760    4.8800  378.3360 C.3    92  LYS92       0.0035
     18  CD       212.8420    4.4440  377.5500 C.3    92  LYS92       0.0206
     19  CE       212.3150    3.0640  377.8230 C.3    92  LYS92       0.1093
     20  NZ       211.5490    3.0130  379.1040 N.3    92  LYS92      -0.1314
     21  N        212.6880    8.4520  375.0030 N.3    94  SER94      -0.1217
     22  CA       211.4600    8.0950  374.2910 C.3    94  SER94       0.1889
     23  C        211.0760    9.2540  373.3800 C.2    94  SER94       0.2288
     24  O        210.0890    9.9570  373.6180 O.2    94  SER94      -0.2866
     25  CB       210.3430    7.7400  375.2680 C.3    94  SER94       0.2089
     26  OG       210.7110    6.6410  376.0850 O.3    94  SER94      -0.2183
     27  N        211.0640   12.4870  375.3410 N.3    97  SER97      -0.1217
     28  CA       211.2590   12.2250  376.7680 C.3    97  SER97       0.1889
     29  C        212.6970   11.7700  377.0830 C.2    97  SER97       0.2288
     30  O        213.3630   11.2030  376.2220 O.2    97  SER97      -0.2866
     31  CB       210.2490   11.1910  377.2590 C.3    97  SER97       0.2089
     32  OG       209.8470   11.4420  378.5980 O.3    97  SER97      -0.2183
     33  N        214.9710    9.8880  380.4050 N.3    99  MET99      -0.1245
     34  CA       214.9210    9.2120  381.7020 C.3    99  MET99       0.1570
     35  C        216.2770    9.0510  382.3670 C.2    99  MET99       0.2261
     36  O        217.2050    8.5020  381.7700 O.2    99  MET99      -0.2867
     37  CB       214.2200    7.8460  381.6010 C.3    99  MET99       0.0387
     38  CG       213.5380    7.4380  382.8930 C.3    99  MET99       0.0595
     39  SD       213.3440    5.6580  383.1760 S.3    99  MET99      -0.1393
     40  CE       212.4050    5.1710  381.7370 C.3    99  MET99       0.0692
     41  N        212.0310   -2.0690  389.9170 N.3   149  VAL149     -0.1245
     42  CA       212.5760   -3.2940  389.3340 C.3   149  VAL149      0.1561
     43  C        213.3240   -2.8530  388.0730 C.2   149  VAL149      0.2260
     44  O        212.7630   -2.1340  387.2420 O.2   149  VAL149     -0.2867
     45  CB       211.5150   -4.3980  389.0590 C.3   149  VAL149      0.0252
     46  CG1      212.1450   -5.6150  388.3860 C.3   149  VAL149      0.0019
     47  CG2      210.8300   -4.8280  390.3530 C.3   149  VAL149      0.0019
     48  N        216.0990   -1.2540  381.3350 N.3   161  ASP161     -0.1225
     49  CA       215.0160   -0.3540  381.7120 C.3   161  ASP161      0.1805
     50  C        214.6530   -0.5050  383.1970 C.2   161  ASP161      0.2598
     51  O        215.0590   -1.4780  383.8400 O.2   161  ASP161     -0.2718
     52  CB       213.7890   -0.6670  380.8340 C.3   161  ASP161      0.1424
     53  CG       212.8180    0.4740  380.5940 C.2   161  ASP161      0.3668
     54  OD1      213.0730    1.5960  381.0950 O.co2 161  ASP161     -0.2456
     55  OD2      211.8120    0.2530  379.8870 O.co2 161  ASP161     -0.2456
     56  N        213.8970    0.4780  383.7340 N.am  162  VAL162     -0.1966
     57  CA       213.4040    0.4920  385.1140 C.3   162  VAL162      0.1727
     58  C        211.8660    0.5710  385.1190 C.2   162  VAL162      0.2616
     59  O        211.2780    1.2320  384.2560 O.2   162  VAL162     -0.2715
     60  CB       214.0710    1.5610  386.0250 C.3   162  VAL162      0.0290
     61  CG1      215.5950    1.4210  386.0270 C.3   162  VAL162      0.0023
     62  CG2      213.6630    2.9760  385.6230 C.3   162  VAL162      0.0023
     63  N        211.2260   -0.1360  386.0640 N.am  163  TRP163     -0.1960
     64  CA       209.7680   -0.1970  386.2070 C.3   163  TRP163      0.1771
     65  C        209.3840   -0.0910  387.6690 C.2   163  TRP163      0.2620
     66  O        210.1690   -0.4660  388.5370 O.2   163  TRP163     -0.2715
     67  CB       209.2330   -1.5280  385.6780 C.3   163  TRP163      0.0590
     68  CG       209.5150   -1.8180  384.2400 C.ar  163  TRP163      0.0006
     69  CD1      208.7260   -1.5120  383.1700 C.ar  163  TRP163      0.0946
     70  CD2      210.6140   -2.5770  383.7280 C.ar  163  TRP163      0.0152
     71  NE1      209.2800   -2.0120  382.0180 N.ar  163  TRP163     -0.2442
     72  CE2      210.4460   -2.6650  382.3310 C.ar  163  TRP163      0.0810
     73  CE3      211.7530   -3.1660  384.3130 C.ar  163  TRP163      0.0012
     74  CZ2      211.3670   -3.3210  381.5110 C.ar  163  TRP163      0.0191
     75  CZ3      212.6650   -3.8130  383.4990 C.ar  163  TRP163      0.0001
     76  CH2      212.4710   -3.8840  382.1160 C.ar  163  TRP163      0.0015
     77  N        208.1660    0.3700  387.9240 N.am  164  GLY164     -0.1940
     78  CA       207.6420    0.4980  389.2760 C.3   164  GLY164      0.2014
     79  C        206.7200    1.6790  389.4730 C.2   164  GLY164      0.2638
     80  O        206.3970    2.3910  388.5130 O.2   164  GLY164     -0.2714
     81  N        206.2920    1.8930  390.7380 N.am  165  ASP165     -0.1971
     82  CA       205.4100    3.0020  391.1010 C.3   165  ASP165      0.1709
     83  C        206.1180    4.3440  390.9250 C.2   165  ASP165      0.2293
     84  O        205.5110    5.2840  390.4170 O.2   165  ASP165     -0.2864
     85  CB       204.8910    2.8450  392.5350 C.3   165  ASP165      0.1436
     86  CG       203.9680    3.9700  392.9810 C.2   165  ASP165      0.3671
     87  OD1      202.9410    4.2060  392.2980 O.co2 165  ASP165     -0.2456
     88  OD2      204.2740    4.6180  394.0100 O.co2 165  ASP165     -0.2456
     89  N        208.4980    5.2430  388.7670 N.3   167  VAL167     -0.1231
     90  CA       208.5970    5.6520  387.3560 C.3   167  VAL167      0.1692
     91  C        207.1880    6.0260  386.8300 C.2   167  VAL167      0.2592
     92  O        207.0690    6.8940  385.9610 O.2   167  VAL167     -0.2718
     93  CB       209.4110    4.6900  386.4150 C.3   167  VAL167      0.0266
     94  CG1      210.2840    3.7080  387.1960 C.3   167  VAL167      0.0020
     95  CG2      208.5440    3.9630  385.3910 C.3   167  VAL167      0.0020
     96  N        206.1340    5.4230  387.4120 N.am  168  ASN168     -0.1974
     97  CA       204.7570    5.7100  387.0400 C.3   168  ASN168      0.1688
     98  C        204.3280    7.1070  387.4900 C.2   168  ASN168      0.2292
     99  O        203.7480    7.8390  386.6840 O.2   168  ASN168     -0.2864
    100  CB       203.8240    4.6350  387.5820 C.3   168  ASN168      0.1181
    101  CG       202.3640    4.8430  387.2800 C.2   168  ASN168      0.2629
    102  OD1      201.9740    5.3680  386.2250 O.2   168  ASN168     -0.2716
    103  ND2      201.5180    4.3960  388.2000 N.am  168  ASN168     -0.0877
    104  N        206.4390    9.9850  385.6720 N.3   171  SER171     -0.1202
    105  CA       205.9520   10.2070  384.3060 C.3   171  SER171      0.2020
    106  C        204.7180   11.1130  384.3490 C.2   171  SER171      0.2618
    107  O        204.5600   11.9770  383.4830 O.2   171  SER171     -0.2717
    108  CB       205.6240    8.8800  383.6260 C.3   171  SER171      0.2103
    109  OG       205.4210    9.0360  382.2300 O.3   171  SER171     -0.2182
    110  N        203.8630   10.9290  385.3810 N.am  172  ARG172     -0.1979
    111  CA       202.6680   11.7470  385.6050 C.3   172  ARG172      0.1597
    112  C        203.0660   13.1310  386.0950 C.2   172  ARG172      0.2287
    113  O        202.4600   14.1050  385.6620 O.2   172  ARG172     -0.2864
    114  CB       201.6790   11.0760  386.5780 C.3   172  ARG172      0.0334
    115  CG       201.0730    9.7580  386.0780 C.3   172  ARG172      0.0492
    116  CD       200.1520    9.9210  384.8750 C.3   172  ARG172      0.2205
    117  NE       199.8200    8.6300  384.2710 N.pl3 172  ARG172     -0.0865
    118  CZ       199.3930    8.4680  383.0220 C.cat 172  ARG172      0.5346
    119  NH1      199.2480    9.5170  382.2200 N.pl3 172  ARG172      0.1354
    120  NH2      199.1140    7.2560  382.5620 N.pl3 172  ARG172      0.1354
    121  N        196.3490    9.6600  386.4850 N.3   207  LYS207     -0.1231
    122  CA       195.8520    8.3490  386.0590 C.3   207  LYS207      0.1693
    123  C        196.5130    7.2000  386.8370 C.2   207  LYS207      0.2592
    124  O        197.7410    7.1490  386.9470 O.2   207  LYS207     -0.2718
    125  CB       196.0430    8.1700  384.5390 C.3   207  LYS207      0.0285
    126  CG       195.2350    7.0190  383.9350 C.3   207  LYS207      0.0035
    127  CD       195.6350    6.7210  382.4940 C.3   207  LYS207      0.0206
    128  CE       194.7740    7.4420  381.4850 C.3   207  LYS207      0.1093
    129  NZ       195.1890    7.1320  380.0940 N.3   207  LYS207     -0.1314
    130  N        195.6840    6.3110  387.3800 N.am  208  GLY208     -0.1957
    131  CA       196.1240    5.1360  388.1290 C.3   208  GLY208      0.1869
    132  C        196.4950    5.3470  389.5860 C.2   208  GLY208      0.2309
    133  O        196.8400    4.3790  390.2710 O.2   208  GLY208     -0.2863
@<TRIPOS>BOND
     1    23    24    2
     2    23    22    1
     3    22    21    1
     4    22    25    1
     5    25    26    1
     6    27    28    1
     7    30    29    2
     8    28    29    1
     9    28    31    1
    10    31    32    1
    11    14    13    1
    12    14    15    2
    13    16    13    1
    14    16    17    1
    15    18    19    1
    16    18    17    1
    17    13    12    1
    18    19    20    1
    19    55    53   ar
    20   129   128    1
    21    33    34    1
    22    53    52    1
    23    53    54   ar
    24    52    49    1
    25    48    49    1
    26   128   127    1
    27    74    76   ar
    28    74    72   ar
    29    37    34    1
    30    37    38    1
    31    34    35    1
    32    49    50    1
    33    40    39    1
    34    36    35    2
    35     9     7   ar
    36     9    11   ar
    37     7     6   ar
    38    71    72   ar
    39    71    69   ar
    40    76    75   ar
    41   119   118    1
    42   109   108    1
    43    72    70   ar
    44   127   126    1
    45   120   118    1
    46    11    10   ar
    47    38    39    1
    48     3     2    1
    49     3     4    2
    50   118   117    2
    51     6     5    1
    52     6     8   ar
    53    69    68   ar
    54    50    56   am
    55    50    51    2
    56     5     2    1
    57     2     1    1
    58   107   106    2
    59    75    73   ar
    60   108   105    1
    61    70    68   ar
    62    70    73   ar
    63    56    57    1
    64   126   125    1
    65    10     8   ar
    66    68    67    1
    67    59    58    2
    68   117   116    1
    69   105   106    1
    70   105   104    1
    71   106   110   am
    72   125   122    1
    73   116   115    1
    74    57    58    1
    75    57    60    1
    76    58    63   am
    77   110   111    1
    78    95    93    1
    79   111   112    1
    80   111   114    1
    81    62    60    1
    82   113   112    2
    83    67    64    1
    84    92    91    2
    85    60    61    1
    86   122   121    1
    87   122   123    1
    88    63    64    1
    89   115   114    1
    90    64    65    1
    91   102   101    2
    92    93    94    1
    93    93    90    1
    94    99    98    2
    95    91    90    1
    96    91    96   am
    97   123   124    2
    98   123   130   am
    99    97    96    1
   100    97    98    1
   101    97   100    1
   102    44    43    2
   103   101   100    1
   104   101   103   am
   105    90    89    1
   106   130   131    1
   107    65    77   am
   108    65    66    2
   109    77    78    1
   110    43    42    1
   111   131   132    1
   112    46    45    1
   113    80    79    2
   114    45    42    1
   115    45    47    1
   116    78    79    1
   117    42    41    1
   118    79    81   am
   119   132   133    2
   120    84    83    2
   121    81    82    1
   122    83    82    1
   123    82    85    1
   124    87    86   ar
   125    85    86    1
   126    86    88   ar
