@<TRIPOS>MOLECULE
tmp/5o5lF01.pdb
 118 113 0 0 0
SMALL
GASTEIGER

@<TRIPOS>ATOM
      1  N        210.7440   16.3150  379.4070 N.3    52  ASP52      -0.1225
      2  CA       210.1190   16.3620  378.0750 C.3    52  ASP52       0.1805
      3  C        210.0850   17.7980  377.5470 C.2    52  ASP52       0.2598
      4  O        209.7490   18.7120  378.2980 O.2    52  ASP52      -0.2718
      5  CB       208.6870   15.7880  378.1590 C.3    52  ASP52       0.1424
      6  CG       208.0250   15.3970  376.8480 C.2    52  ASP52       0.3668
      7  OD1      207.6890   16.3040  376.0600 O.co2  52  ASP52      -0.2456
      8  OD2      207.7290   14.1960  376.6700 O.co2  52  ASP52      -0.2456
      9  N        210.4200   17.9920  376.2580 N.am   53  ILE53      -0.1966
     10  CA       210.4280   19.3020  375.5920 C.3    53  ILE53       0.1727
     11  C        208.9920   19.7570  375.3230 C.2    53  ILE53       0.2616
     12  O        208.1790   18.9830  374.8230 O.2    53  ILE53      -0.2715
     13  CB       211.2890   19.3090  374.2870 C.3    53  ILE53       0.0290
     14  CG1      212.6920   18.7030  374.5250 C.3    53  ILE53       0.0022
     15  CG2      211.3810   20.7200  373.6600 C.3    53  ILE53       0.0023
     16  CD1      213.3980   18.2590  373.2850 C.3    53  ILE53       0.0001
     17  N        208.6970   21.0140  375.6530 N.am   54  VAL54      -0.1963
     18  CA       207.3920   21.6310  375.4440 C.3    54  VAL54       0.1727
     19  C        207.2690   22.0490  373.9610 C.2    54  VAL54       0.2617
     20  O        208.1930   22.6610  373.4200 O.2    54  VAL54      -0.2715
     21  CB       207.1930   22.8200  376.4290 C.3    54  VAL54       0.0290
     22  CG1      205.8650   23.5340  376.1870 C.3    54  VAL54       0.0023
     23  CG2      207.2950   22.3570  377.8820 C.3    54  VAL54       0.0023
     24  N        206.1480   21.6850  373.3340 N.am   55  GLY55      -0.1940
     25  CA       205.8150   21.9990  371.9440 C.3    55  GLY55       0.2014
     26  C        206.8520   21.6120  370.9080 C.2    55  GLY55       0.2639
     27  O        207.2940   22.4570  370.1230 O.2    55  GLY55      -0.2714
     28  N        207.2510   20.3330  370.9060 N.am   56  PHE56      -0.1959
     29  CA       208.2580   19.8120  369.9830 C.3    56  PHE56       0.1771
     30  C        207.7270   19.6280  368.5540 C.2    56  PHE56       0.2620
     31  O        208.3990   20.0330  367.6060 O.2    56  PHE56      -0.2715
     32  CB       208.8820   18.5130  370.5240 C.3    56  PHE56       0.0574
     33  CG       210.1070   18.0660  369.7700 C.ar   56  PHE56      -0.0200
     34  CD1      211.3400   18.6590  370.0040 C.ar   56  PHE56      -0.0042
     35  CD2      210.0280   17.0560  368.8210 C.ar   56  PHE56      -0.0042
     36  CE1      212.4680   18.2630  369.2860 C.ar   56  PHE56      -0.0003
     37  CE2      211.1590   16.6570  368.1060 C.ar   56  PHE56      -0.0003
     38  CZ       212.3720   17.2570  368.3490 C.ar   56  PHE56      -0.0000
     39  N        206.5320   19.0100  368.4070 N.am   57  THR57      -0.1937
     40  CA       205.8700   18.7290  367.1210 C.3    57  THR57       0.2028
     41  C        205.6560   19.9920  366.2710 C.2    57  THR57       0.2642
     42  O        205.7510   19.9270  365.0440 O.2    57  THR57      -0.2714
     43  CB       204.5470   17.9660  367.3470 C.3    57  THR57       0.1808
     44  OG1      204.7740   16.8550  368.2170 O.3    57  THR57      -0.2208
     45  CG2      203.9190   17.4660  366.0490 C.3    57  THR57       0.0379
     46  N        205.3700   21.1260  366.9290 N.am   58  GLU58      -0.1976
     47  CA       205.1190   22.4190  366.2850 C.3    58  GLU58       0.1602
     48  C        206.3610   22.9990  365.6040 C.2    58  GLU58       0.2287
     49  O        206.2210   23.7750  364.6550 O.2    58  GLU58      -0.2864
     50  CB       204.5400   23.4270  367.2930 C.3    58  GLU58       0.0415
     51  CG       203.1570   23.0810  367.8190 C.3    58  GLU58       0.1163
     52  CD       202.9350   23.5240  369.2520 C.2    58  GLU58       0.3649
     53  OE1      202.6900   22.6510  370.1170 O.co2  58  GLU58      -0.2457
     54  OE2      202.9880   24.7490  369.5090 O.co2  58  GLU58      -0.2457
     55  N        208.3490   21.4900  363.6710 N.3    60  ALA60      -0.1245
     56  CA       208.4270   20.8720  362.3390 C.3    60  ALA60       0.1562
     57  C        207.9970   21.8230  361.2130 C.2    60  ALA60       0.2260
     58  O        208.3040   21.5730  360.0430 O.2    60  ALA60      -0.2867
     59  CB       207.5890   19.6020  362.3000 C.3    60  ALA60       0.0290
     60  N        212.5680   17.4910  359.4480 N.3    65  PRO65      -0.2116
     61  CA       212.5790   16.3720  360.4060 C.3    65  PRO65       0.1372
     62  C        213.9700   15.8820  360.8200 C.2    65  PRO65       0.2244
     63  O        214.1620   15.5500  361.9890 O.2    65  PRO65      -0.2868
     64  CB       211.7620   15.2900  359.6950 C.3    65  PRO65       0.0268
     65  CG       210.9270   16.0120  358.7130 C.3    65  PRO65       0.0207
     66  CD       211.7850   17.1440  358.2440 C.3    65  PRO65       0.0892
     67  N        215.5910   18.2490  363.3430 N.3    68  LEU68      -0.1231
     68  CA       214.8850   18.1160  364.6180 C.3    68  LEU68       0.1693
     69  C        215.5230   16.9750  365.4360 C.2    68  LEU68       0.2591
     70  O        215.6760   17.0960  366.6540 O.2    68  LEU68      -0.2718
     71  CB       213.3960   17.8400  364.3450 C.3    68  LEU68       0.0284
     72  CG       212.3470   18.7700  364.9710 C.3    68  LEU68       0.0019
     73  CD1      212.8500   20.2020  365.1320 C.3    68  LEU68       0.0001
     74  CD2      211.0810   18.7570  364.1590 C.3    68  LEU68       0.0001
     75  N        215.9290   15.8890  364.7450 N.am   69  VAL69      -0.1980
     76  CA       216.6090   14.7190  365.3180 C.3    69  VAL69       0.1595
     77  C        218.0540   15.1200  365.6990 C.2    69  VAL69       0.2287
     78  O        218.5740   14.6680  366.7240 O.2    69  VAL69      -0.2864
     79  CB       216.5340   13.5070  364.3420 C.3    69  VAL69       0.0276
     80  CG1      217.3570   12.3200  364.8330 C.3    69  VAL69       0.0022
     81  CG2      215.0880   13.0860  364.1140 C.3    69  VAL69       0.0022
     82  N        217.7510   17.0840  368.9240 N.3    72  LEU72      -0.1245
     83  CA       217.5300   16.1020  369.9820 C.3    72  LEU72       0.1561
     84  C        218.8650   15.4800  370.4310 C.2    72  LEU72       0.2260
     85  O        219.0860   15.3210  371.6280 O.2    72  LEU72      -0.2867
     86  CB       216.5910   15.0150  369.4390 C.3    72  LEU72       0.0270
     87  CG       215.3300   14.6490  370.2190 C.3    72  LEU72       0.0019
     88  CD1      214.6860   15.8480  370.8740 C.3    72  LEU72       0.0001
     89  CD2      214.3230   14.0030  369.3030 C.3    72  LEU72       0.0001
     90  N        212.6880    8.4520  375.0030 N.3    94  SER94      -0.1202
     91  CA       211.4600    8.0950  374.2910 C.3    94  SER94       0.2020
     92  C        211.0760    9.2540  373.3800 C.2    94  SER94       0.2619
     93  O        210.0890    9.9570  373.6180 O.2    94  SER94      -0.2717
     94  CB       210.3430    7.7400  375.2680 C.3    94  SER94       0.2103
     95  OG       210.7110    6.6410  376.0850 O.3    94  SER94      -0.2182
     96  N        211.8980    9.4520  372.3540 N.am   95  GLY95      -0.1942
     97  CA       211.7380   10.5210  371.3860 C.3    95  GLY95       0.2014
     98  C        212.0040   11.8630  372.0240 C.2    95  GLY95       0.2638
     99  O        213.1480   12.3210  372.0680 O.2    95  GLY95      -0.2714
    100  N        210.9440   12.4610  372.5810 N.am   96  ASP96      -0.1971
    101  CA       210.9550   13.7630  373.2410 C.3    96  ASP96       0.1709
    102  C        211.2210   13.6820  374.7460 C.2    96  ASP96       0.2293
    103  O        211.5160   14.7020  375.3630 O.2    96  ASP96      -0.2864
    104  CB       209.6090   14.4440  373.0000 C.3    96  ASP96       0.1436
    105  CG       209.6860   15.9420  372.9360 C.2    96  ASP96       0.3671
    106  OD1      210.7200   16.4600  372.4780 O.co2  96  ASP96      -0.2456
    107  OD2      208.6880   16.5960  373.2850 O.co2  96  ASP96      -0.2456
    108  N        209.4320   20.2780  380.6590 N.3   140  ARG140     -0.1245
    109  CA       208.4860   19.8100  381.6590 C.3   140  ARG140      0.1563
    110  C        209.2560   18.7010  382.3830 C.2   140  ARG140      0.2260
    111  O        209.7480   17.7740  381.7360 O.2   140  ARG140     -0.2867
    112  CB       207.2210   19.2550  380.9880 C.3   140  ARG140      0.0307
    113  CG       205.9480   19.9830  381.3710 C.3   140  ARG140      0.0489
    114  CD       204.7410   19.4060  380.6600 C.3   140  ARG140      0.2205
    115  NE       204.5990   19.9520  379.3130 N.pl3 140  ARG140     -0.0865
    116  CZ       204.8450   19.2740  378.1980 C.cat 140  ARG140      0.5346
    117  NH1      205.2270   18.0020  378.2550 N.pl3 140  ARG140      0.1354
    118  NH2      204.6960   19.8560  377.0160 N.pl3 140  ARG140      0.1354
@<TRIPOS>BOND
     1    66    65    1
     2    66    60    1
     3    65    64    1
     4    60    61    1
     5    64    61    1
     6    58    57    2
     7    61    62    1
     8    62    63    2
     9    57    56    1
    10    59    56    1
    11    56    55    1
    12    67    68    1
    13    81    79    1
    14    74    72    1
    15    79    80    1
    16    79    76    1
    17    71    68    1
    18    71    72    1
    19    68    69    1
    20    49    48    2
    21    75    76    1
    22    75    69   am
    23    72    73    1
    24    42    41    2
    25    76    77    1
    26    69    70    2
    27    48    47    1
    28    77    78    2
    29    45    43    1
    30    41    46   am
    31    41    40    1
    32    47    46    1
    33    47    50    1
    34    40    43    1
    35    40    39    1
    36    50    51    1
    37    43    44    1
    38    31    30    2
    39    51    52    1
    40    37    38   ar
    41    37    35   ar
    42    38    36   ar
    43    39    30   am
    44    30    29    1
    45    35    33   ar
    46    82    83    1
    47    52    54   ar
    48    52    53   ar
    49    36    34   ar
    50    89    87    1
    51    86    83    1
    52    86    87    1
    53    33    34   ar
    54    33    32    1
    55    83    84    1
    56    29    32    1
    57    29    28    1
    58    27    26    2
    59    87    88    1
    60    84    85    2
    61    28    26   am
    62    26    25    1
    63    97    98    1
    64    97    96    1
    65    25    24    1
    66    98    99    2
    67    98   100   am
    68    96    92   am
    69   106   105   ar
    70   100   101    1
    71   105   104    1
    72   105   107   ar
    73   104   101    1
    74   101   102    1
    75    16    14    1
    76    24    19   am
    77    92    93    2
    78    92    91    1
    79    20    19    2
    80    15    13    1
    81    19    18    1
    82    13    14    1
    83    13    10    1
    84    91    90    1
    85    91    94    1
    86   102   103    2
    87    12    11    2
    88    94    95    1
    89    11    10    1
    90    11    17   am
    91    18    17    1
    92    18    21    1
    93    10     9    1
    94     7     6   ar
    95    22    21    1
    96     9     3   am
    97    21    23    1
    98     8     6   ar
    99     6     5    1
   100   118   116    1
   101     3     2    1
   102     3     4    2
   103     2     5    1
   104     2     1    1
   105   116   117    1
   106   116   115    2
   107   115   114    1
   108   108   109    1
   109   114   113    1
   110   112   113    1
   111   112   109    1
   112   109   110    1
   113   111   110    2
