@<TRIPOS>MOLECULE
tmp/5o5pA00.pdb
 216 207 0 0 0
SMALL
GASTEIGER

@<TRIPOS>ATOM
      1  N        344.6210  388.6950  477.6130 N.3    43  ILE43      -0.1231
      2  CA       343.9020  388.6430  476.3450 C.3    43  ILE43       0.1692
      3  C        342.8690  387.5330  476.4400 C.2    43  ILE43       0.2593
      4  O        343.2200  386.3580  476.5530 O.2    43  ILE43      -0.2718
      5  CB       344.8380  388.3970  475.1640 C.3    43  ILE43       0.0266
      6  CG1      345.9820  389.3860  475.1680 C.3    43  ILE43       0.0019
      7  CG2      344.0840  388.5720  473.8710 C.3    43  ILE43       0.0020
      8  CD1      347.0230  389.0420  474.1480 C.3    43  ILE43       0.0001
      9  N        341.5960  387.8990  476.3860 N.am   44  THR44      -0.1939
     10  CA       340.5230  386.9230  476.3280 C.3    44  THR44       0.2028
     11  C        339.3210  387.5870  475.6820 C.2    44  THR44       0.2642
     12  O        339.2670  388.8100  475.5390 O.2    44  THR44      -0.2714
     13  CB       340.1660  386.3860  477.7160 C.3    44  THR44       0.1808
     14  OG1      339.2610  385.2900  477.5780 O.3    44  THR44      -0.2208
     15  CG2      339.5210  387.4680  478.5570 C.3    44  THR44       0.0379
     16  N        338.3620  386.7670  475.2730 N.am   45  TYR45      -0.1959
     17  CA       337.1050  387.2980  474.7810 C.3    45  TYR45       0.1771
     18  C        336.0750  387.4400  475.8830 C.2    45  TYR45       0.2619
     19  O        335.1700  388.2700  475.7670 O.2    45  TYR45      -0.2715
     20  CB       336.5430  386.4080  473.6640 C.3    45  TYR45       0.0574
     21  CG       336.1440  385.0190  474.1020 C.ar   45  TYR45      -0.0198
     22  CD1      337.0770  383.9960  474.1630 C.ar   45  TYR45      -0.0009
     23  CD2      334.8250  384.7150  474.4140 C.ar   45  TYR45      -0.0009
     24  CE1      336.7180  382.7240  474.5620 C.ar   45  TYR45       0.0417
     25  CE2      334.4590  383.4470  474.8120 C.ar   45  TYR45       0.0417
     26  CZ       335.4090  382.4550  474.8770 C.ar   45  TYR45       0.1957
     27  OH       335.0550  381.1870  475.2690 O.3    45  TYR45      -0.2866
     28  N        336.1970  386.6650  476.9540 N.am   46  LYS46      -0.1977
     29  CA       335.1340  386.5580  477.9510 C.3    46  LYS46       0.1596
     30  C        335.2550  387.6080  479.0520 C.2    46  LYS46       0.2287
     31  O        335.1710  387.3340  480.2490 O.2    46  LYS46      -0.2864
     32  CB       335.1200  385.1400  478.5090 C.3    46  LYS46       0.0298
     33  CG       336.4340  384.6490  479.0730 C.3    46  LYS46       0.0038
     34  CD       336.3270  383.2010  479.4700 C.3    46  LYS46       0.0206
     35  CE       336.2850  382.3240  478.2350 C.3    46  LYS46       0.1093
     36  NZ       336.3150  380.8750  478.5520 N.3    46  LYS46      -0.1314
     37  N        329.7670  384.4120  470.5730 N.3    55  LEU55      -0.1245
     38  CA       330.6980  383.3790  470.1310 C.3    55  LEU55       0.1561
     39  C        330.3530  382.0010  470.6590 C.2    55  LEU55       0.2260
     40  O        330.6330  381.0040  469.9870 O.2    55  LEU55      -0.2867
     41  CB       332.1270  383.6950  470.5690 C.3    55  LEU55       0.0270
     42  CG       332.8960  384.8200  469.8960 C.3    55  LEU55       0.0019
     43  CD1      334.2290  384.9920  470.5970 C.3    55  LEU55       0.0001
     44  CD2      333.1020  384.4960  468.4400 C.3    55  LEU55       0.0001
     45  N        339.1040  381.4050  463.0810 N.3    63  PHE63      -0.1241
     46  CA       338.8150  382.6860  462.4560 C.3    63  PHE63       0.1605
     47  C        339.9800  383.6280  462.6910 C.2    63  PHE63       0.2264
     48  O        340.6540  383.5540  463.7200 O.2    63  PHE63      -0.2867
     49  CB       337.5150  383.2930  463.0010 C.3    63  PHE63       0.0534
     50  CG       337.5690  383.6760  464.4500 C.ar   63  PHE63      -0.0203
     51  CD1      337.3680  382.7420  465.4450 C.ar   63  PHE63      -0.0042
     52  CD2      337.7420  384.9950  464.8100 C.ar   63  PHE63      -0.0042
     53  CE1      337.3990  383.1130  466.7690 C.ar   63  PHE63      -0.0003
     54  CE2      337.7650  385.3690  466.1280 C.ar   63  PHE63      -0.0003
     55  CZ       337.5950  384.4290  467.1080 C.ar   63  PHE63      -0.0000
     56  N        341.6400  387.5210  463.1510 N.3    65  MET65      -0.1245
     57  CA       341.3350  388.5220  464.1580 C.3    65  MET65       0.1570
     58  C        341.6870  389.9080  463.6430 C.2    65  MET65       0.2261
     59  O        342.6660  390.0740  462.9130 O.2    65  MET65      -0.2867
     60  CB       342.1030  388.2190  465.4380 C.3    65  MET65       0.0387
     61  CG       341.6920  389.0410  466.6160 C.3    65  MET65       0.0595
     62  SD       340.0240  388.6410  467.1150 S.3    65  MET65      -0.1393
     63  CE       340.3100  387.1180  467.9940 C.3    65  MET65       0.0692
     64  N        341.8300  393.9460  465.3650 N.3    67  LEU67      -0.1245
     65  CA       341.6970  394.8020  466.5300 C.3    67  LEU67       0.1561
     66  C        341.5340  396.2550  466.1160 C.2    67  LEU67       0.2260
     67  O        341.6910  396.6210  464.9510 O.2    67  LEU67      -0.2867
     68  CB       342.9090  394.6700  467.4530 C.3    67  LEU67       0.0270
     69  CG       342.9170  393.5820  468.5160 C.3    67  LEU67       0.0019
     70  CD1      343.1310  392.2190  467.9240 C.3    67  LEU67       0.0001
     71  CD2      343.9950  393.8940  469.5260 C.3    67  LEU67       0.0001
     72  N        341.9980  400.2210  468.3750 N.3    69  PHE69      -0.1241
     73  CA       342.2830  400.8990  469.6300 C.3    69  PHE69       0.1605
     74  C        341.6510  402.2810  469.6180 C.2    69  PHE69       0.2264
     75  O        341.7700  403.0070  468.6290 O.2    69  PHE69      -0.2867
     76  CB       343.7890  401.0060  469.8330 C.3    69  PHE69       0.0534
     77  CG       344.4740  399.6850  469.8950 C.ar   69  PHE69      -0.0203
     78  CD1      344.5140  398.9670  471.0710 C.ar   69  PHE69      -0.0042
     79  CD2      345.0630  399.1470  468.7680 C.ar   69  PHE69      -0.0042
     80  CE1      345.1440  397.7420  471.1250 C.ar   69  PHE69      -0.0003
     81  CE2      345.6930  397.9240  468.8170 C.ar   69  PHE69      -0.0003
     82  CZ       345.7310  397.2200  469.9950 C.ar   69  PHE69      -0.0000
     83  N        351.1370  400.7390  472.6290 N.3    90  ILE90      -0.1245
     84  CA       350.5230  399.4340  472.8130 C.3    90  ILE90       0.1561
     85  C        351.5290  398.3790  472.3800 C.2    90  ILE90       0.2260
     86  O        351.9170  398.3210  471.2090 O.2    90  ILE90      -0.2867
     87  CB       349.2110  399.3090  472.0290 C.3    90  ILE90       0.0252
     88  CG1      348.1100  400.1640  472.6510 C.3    90  ILE90       0.0019
     89  CG2      348.7570  397.8820  471.9980 C.3    90  ILE90       0.0019
     90  CD1      347.9420  401.5280  472.0470 C.3    90  ILE90       0.0001
     91  N        352.3810  394.3490  472.3060 N.3    92  TYR92      -0.1241
     92  CA       351.9210  392.9760  472.4270 C.3    92  TYR92       0.1605
     93  C        353.0180  392.0910  472.9930 C.2    92  TYR92       0.2264
     94  O        354.1980  392.2740  472.6920 O.2    92  TYR92      -0.2867
     95  CB       351.4860  392.4570  471.0630 C.3    92  TYR92       0.0534
     96  CG       351.0900  391.0160  471.0540 C.ar   92  TYR92      -0.0201
     97  CD1      349.8980  390.6100  471.6150 C.ar   92  TYR92      -0.0009
     98  CD2      351.9050  390.0620  470.4730 C.ar   92  TYR92      -0.0009
     99  CE1      349.5330  389.2940  471.6100 C.ar   92  TYR92       0.0417
    100  CE2      351.5430  388.7430  470.4560 C.ar   92  TYR92       0.0417
    101  CZ       350.3550  388.3650  471.0270 C.ar   92  TYR92       0.1957
    102  OH       349.9790  387.0450  471.0180 O.3    92  TYR92      -0.2866
    103  N        356.3230  392.7320  468.4880 N.3   114  PRO114     -0.2102
    104  CA       355.6960  393.7440  467.6320 C.3   114  PRO114      0.1504
    105  C        354.7920  394.6640  468.4380 C.2   114  PRO114      0.2576
    106  O        353.9850  394.2120  469.2510 O.2   114  PRO114     -0.2718
    107  CB       354.9080  392.9070  466.6250 C.3   114  PRO114      0.0282
    108  CG       354.6180  391.6460  467.3450 C.3   114  PRO114      0.0208
    109  CD       355.7750  391.3890  468.2550 C.3   114  PRO114      0.0893
    110  N        354.9440  395.9650  468.2150 N.am  115  SER115     -0.1938
    111  CA       354.2130  396.9730  468.9660 C.3   115  SER115      0.2055
    112  C        353.7740  398.0820  468.0240 C.2   115  SER115      0.2642
    113  O        354.1990  398.1480  466.8690 O.2   115  SER115     -0.2714
    114  CB       355.0670  397.5430  470.0990 C.3   115  SER115      0.2130
    115  OG       356.1760  398.2520  469.5780 O.3   115  SER115     -0.2179
    116  N        352.9130  398.9630  468.5280 N.am  116  ILE116     -0.1977
    117  CA       352.3970  400.0920  467.7620 C.3   116  ILE116      0.1596
    118  C        352.5830  401.3550  468.5810 C.2   116  ILE116      0.2287
    119  O        351.9990  401.4880  469.6620 O.2   116  ILE116     -0.2864
    120  CB       350.9170  399.9240  467.3870 C.3   116  ILE116      0.0276
    121  CG1      350.7290  398.8030  466.3750 C.3   116  ILE116      0.0022
    122  CG2      350.3530  401.2100  466.8450 C.3   116  ILE116      0.0022
    123  CD1      350.3270  397.5010  466.9880 C.3   116  ILE116      0.0001
    124  N        344.7240  397.2010  463.2470 N.3   127  ILE127     -0.1245
    125  CA       345.6810  396.1510  462.9170 C.3   127  ILE127      0.1561
    126  C        344.9570  394.8190  462.7810 C.2   127  ILE127      0.2260
    127  O        343.8290  394.6430  463.2470 O.2   127  ILE127     -0.2867
    128  CB       346.8000  396.0410  463.9620 C.3   127  ILE127      0.0252
    129  CG1      346.2220  395.5980  465.2890 C.3   127  ILE127      0.0019
    130  CG2      347.4640  397.3700  464.1550 C.3   127  ILE127      0.0019
    131  CD1      347.2650  395.3210  466.3090 C.3   127  ILE127      0.0001
    132  N        345.4480  390.3990  462.8670 N.3   129  VAL129     -0.1245
    133  CA       346.2050  389.2680  463.3810 C.3   129  VAL129      0.1561
    134  C        345.7050  388.0220  462.6680 C.2   129  VAL129      0.2260
    135  O        344.4960  387.7950  462.6220 O.2   129  VAL129     -0.2867
    136  CB       346.0450  389.0990  464.9020 C.3   129  VAL129      0.0252
    137  CG1      346.8660  387.9320  465.3930 C.3   129  VAL129      0.0019
    138  CG2      346.4350  390.3660  465.6140 C.3   129  VAL129      0.0019
    139  N        346.2380  382.1860  465.1570 N.3   132  VAL132     -0.1245
    140  CA       347.3470  381.7870  466.0150 C.3   132  VAL132      0.1561
    141  C        346.9690  380.6150  466.9170 C.2   132  VAL132      0.2260
    142  O        347.5690  380.4250  467.9700 O.2   132  VAL132     -0.2867
    143  CB       347.8690  382.9710  466.8410 C.3   132  VAL132      0.0252
    144  CG1      348.4690  384.0040  465.9300 C.3   132  VAL132      0.0019
    145  CG2      346.7480  383.5820  467.6470 C.3   132  VAL132      0.0019
    146  N        340.3050  376.9950  467.3130 N.3   138  TYR138     -0.1227
    147  CA       340.2000  377.4170  468.6960 C.3   138  TYR138      0.1736
    148  C        339.1900  376.5330  469.4120 C.2   138  TYR138      0.2596
    149  O        338.3130  375.9260  468.7980 O.2   138  TYR138     -0.2718
    150  CB       339.7640  378.8740  468.8150 C.3   138  TYR138      0.0548
    151  CG       340.7410  379.8770  468.2750 C.ar  138  TYR138     -0.0200
    152  CD1      341.9250  380.1430  468.9330 C.ar  138  TYR138     -0.0009
    153  CD2      340.4500  380.6030  467.1350 C.ar  138  TYR138     -0.0009
    154  CE1      342.8140  381.0730  468.4450 C.ar  138  TYR138      0.0417
    155  CE2      341.3260  381.5390  466.6460 C.ar  138  TYR138      0.0417
    156  CZ       342.5060  381.7690  467.3000 C.ar  138  TYR138      0.1957
    157  OH       343.3790  382.7020  466.8030 O.3   138  TYR138     -0.2866
    158  N        339.3180  376.4550  470.7260 N.am  139  SER139     -0.1938
    159  CA       338.4940  375.5370  471.4970 C.3   139  SER139      0.2055
    160  C        337.6750  376.3360  472.4990 C.2   139  SER139      0.2643
    161  O        338.1470  376.6540  473.5910 O.2   139  SER139     -0.2714
    162  CB       339.3410  374.4940  472.1820 C.3   139  SER139      0.2130
    163  OG       338.5270  373.6050  472.9230 O.3   139  SER139     -0.2179
    164  N        336.4490  376.6650  472.1220 N.am  140  HIS140     -0.1973
    165  CA       335.4810  377.1190  473.1020 C.3   140  HIS140      0.1656
    166  C        335.0420  375.9290  473.9380 C.2   140  HIS140      0.2291
    167  O        334.8320  374.8370  473.4050 O.2   140  HIS140     -0.2864
    168  CB       334.2710  377.7300  472.4130 C.3   140  HIS140      0.0771
    169  CG       334.5960  378.8600  471.4910 C.ar  140  HIS140      0.0820
    170  ND1      334.8840  380.1280  471.9390 N.ar  140  HIS140     -0.2267
    171  CD2      334.6560  378.9130  470.1400 C.ar  140  HIS140      0.1154
    172  CE1      335.1110  380.9160  470.9050 C.ar  140  HIS140      0.1986
    173  NE2      334.9800  380.2030  469.8010 N.ar  140  HIS140     -0.2212
    174  N        342.8940  375.0740  479.2350 N.3   166  MET166     -0.1245
    175  CA       343.9100  374.4620  478.3860 C.3   166  MET166      0.1570
    176  C        345.2970  374.9860  478.7180 C.2   166  MET166      0.2261
    177  O        346.2790  374.2370  478.6680 O.2   166  MET166     -0.2867
    178  CB       343.6010  374.7220  476.9150 C.3   166  MET166      0.0387
    179  CG       342.3850  374.0040  476.3900 C.3   166  MET166      0.0595
    180  SD       342.0680  374.4280  474.6690 S.3   166  MET166     -0.1393
    181  CE       343.4550  373.6290  473.8610 C.3   166  MET166      0.0692
    182  N        346.5770  382.2930  478.7050 N.3   170  ASP170     -0.1225
    183  CA       345.9430  382.1500  477.3970 C.3   170  ASP170      0.1805
    184  C        346.4360  383.2490  476.4670 C.2   170  ASP170      0.2597
    185  O        346.0570  384.4130  476.6050 O.2   170  ASP170     -0.2718
    186  CB       344.4270  382.1900  477.5340 C.3   170  ASP170      0.1424
    187  CG       343.8730  380.9580  478.2070 C.2   170  ASP170      0.3668
    188  OD1      344.4930  379.8830  478.0730 O.co2 170  ASP170     -0.2456
    189  OD2      342.8200  381.0610  478.8730 O.co2 170  ASP170     -0.2456
    190  N        347.3210  382.8730  475.5460 N.am  171  PHE171     -0.1976
    191  CA       347.6440  383.6080  474.3240 C.3   171  PHE171      0.1639
    192  C        348.3460  384.9370  474.5780 C.2   171  PHE171      0.2290
    193  O        348.3380  385.8110  473.7100 O.2   171  PHE171     -0.2864
    194  CB       346.3940  383.8520  473.4680 C.3   171  PHE171      0.0560
    195  CG       345.7520  382.6010  472.9350 C.ar  171  PHE171     -0.0200
    196  CD1      346.4340  381.3950  472.8880 C.ar  171  PHE171     -0.0042
    197  CD2      344.4500  382.6410  472.4800 C.ar  171  PHE171     -0.0042
    198  CE1      345.8240  380.2560  472.4040 C.ar  171  PHE171     -0.0003
    199  CE2      343.8320  381.5080  471.9950 C.ar  171  PHE171     -0.0003
    200  CZ       344.5220  380.3130  471.9530 C.ar  171  PHE171     -0.0000
    201  N        348.5750  392.0910  476.7450 N.3   174  LEU174     -0.1245
    202  CA       348.8950  393.4100  476.2210 C.3   174  LEU174      0.1561
    203  C        349.6290  394.2360  477.2680 C.2   174  LEU174      0.2260
    204  O        349.7040  393.8770  478.4430 O.2   174  LEU174     -0.2867
    205  CB       347.6470  394.1670  475.7650 C.3   174  LEU174      0.0270
    206  CG       347.2590  394.0800  474.2930 C.3   174  LEU174      0.0019
    207  CD1      348.4380  394.5190  473.4780 C.3   174  LEU174      0.0001
    208  CD2      346.8230  392.7140  473.8760 C.3   174  LEU174      0.0001
    209  N        337.2220  394.7310  468.6890 N.3   195  MET195     -0.1245
    210  CA       337.5690  393.4180  468.1510 C.3   195  MET195      0.1570
    211  C        336.5580  393.0150  467.0970 C.2   195  MET195      0.2261
    212  O        335.3630  392.9490  467.3880 O.2   195  MET195     -0.2867
    213  CB       337.6090  392.3880  469.2580 C.3   195  MET195      0.0387
    214  CG       337.8950  391.0110  468.7540 C.3   195  MET195      0.0595
    215  SD       338.0750  389.8140  470.0830 S.3   195  MET195     -0.1393
    216  CE       339.6570  390.3160  470.7520 C.3   195  MET195      0.0692
@<TRIPOS>BOND
     1    46    47    1
     2    46    49    1
     3    46    45    1
     4   135   134    2
     5   134   133    1
     6    47    48    2
     7   126   125    1
     8   126   127    2
     9   132   133    1
    10    59    58    2
    11   125   124    1
    12   125   128    1
    13    49    50    1
    14    56    57    1
    15   133   136    1
    16    58    57    1
    17   128   130    1
    18   128   129    1
    19    57    60    1
    20    50    52   ar
    21    50    51   ar
    22    52    54   ar
    23   136   137    1
    24   136   138    1
    25    67    66    2
    26   139   140    1
    27   129   131    1
    28    64    65    1
    29    60    61    1
    30    51    53   ar
    31   144   143    1
    32   140   143    1
    33   140   141    1
    34    66    65    1
    35    54    55   ar
    36   121   123    1
    37   121   120    1
    38    65    68    1
    39    61    62    1
    40   107   108    1
    41   107   104    1
    42   155   153   ar
    43   155   156   ar
    44    53    55   ar
    45   157   156    1
    46   143   145    1
    47   122   120    1
    48   113   112    2
    49   141   142    2
    50   211   212    2
    51   211   210    1
    52    62    63    1
    53   153   151   ar
    54   156   154   ar
    55   146   147    1
    56   108   109    1
    57   120   117    1
    58    68    69    1
    59   104   105    1
    60   104   103    1
    61   117   116    1
    62   117   118    1
    63    70    69    1
    64   112   116   am
    65   112   111    1
    66   210   209    1
    67   210   213    1
    68   110   105   am
    69   110   111    1
    70   109   103    1
    71   151   150    1
    72   151   152   ar
    73    72    73    1
    74   105   106    2
    75    44    42    1
    76   154   152   ar
    77    69    71    1
    78   118   119    2
    79    75    74    2
    80   147   150    1
    81   147   148    1
    82   214   213    1
    83   214   215    1
    84    79    81   ar
    85    79    77   ar
    86   149   148    2
    87    81    82   ar
    88   111   114    1
    89   148   158   am
    90   115   114    1
    91    74    73    1
    92    73    76    1
    93   173   171   ar
    94   173   172   ar
    95    76    77    1
    96    77    78   ar
    97    42    41    1
    98    42    43    1
    99    40    39    2
   100    82    80   ar
   101   215   216    1
   102    38    41    1
   103    38    37    1
   104    38    39    1
   105   171   169   ar
   106   100    98   ar
   107   100   101   ar
   108    98    96   ar
   109   158   159    1
   110   172   170   ar
   111   102   101    1
   112   101    99   ar
   113    96    95    1
   114    96    97   ar
   115    95    92    1
   116    78    80   ar
   117    86    85    2
   118   169   170   ar
   119   169   168    1
   120   159   162    1
   121   159   160    1
   122    99    97   ar
   123   200   199   ar
   124   200   198   ar
   125   199   197   ar
   126    89    87    1
   127    87    88    1
   128    87    84    1
   129    90    88    1
   130   164   160   am
   131   164   165    1
   132   162   163    1
   133    91    92    1
   134    85    84    1
   135   198   196   ar
   136   168   165    1
   137    92    93    1
   138   197   195   ar
   139   160   161    2
   140    83    84    1
   141    94    93    2
   142   196   195   ar
   143   195   194    1
   144   165   166    1
   145   167   166    2
   146   194   191    1
   147   207   206    1
   148    20    21    1
   149    20    17    1
   150   193   192    2
   151   181   180    1
   152     7     5    1
   153   208   206    1
   154    21    22   ar
   155    21    23   ar
   156     8     6    1
   157    22    24   ar
   158   206   205    1
   159   191   192    1
   160   191   190    1
   161    23    25   ar
   162    24    26   ar
   163   180   179    1
   164    17    16    1
   165    17    18    1
   166    25    26   ar
   167    26    27    1
   168     5     6    1
   169     5     2    1
   170    16    11   am
   171    12    11    2
   172   190   184   am
   173    11    10    1
   174   205   202    1
   175    19    18    2
   176    18    28   am
   177   202   201    1
   178   202   203    1
   179    10     9    1
   180    10    13    1
   181     2     3    1
   182     2     1    1
   183     9     3   am
   184   179   178    1
   185     3     4    2
   186   184   185    2
   187   184   183    1
   188   178   175    1
   189    28    29    1
   190   203   204    2
   191   183   186    1
   192   183   182    1
   193   186   187    1
   194    14    13    1
   195    13    15    1
   196    29    32    1
   197    29    30    1
   198   188   187   ar
   199   187   189   ar
   200    35    36    1
   201    35    34    1
   202   175   176    1
   203   175   174    1
   204    32    33    1
   205   177   176    2
   206    30    31    2
   207    33    34    1
