@<TRIPOS>MOLECULE
tmp/5o5sA00.pdb
 87 87 0 0 0
SMALL
GASTEIGER

@<TRIPOS>ATOM
      1  N         20.8640   -0.4750  -11.7760 N.3    30  ASN30      -0.1226
      2  CA        19.6060   -1.1110  -12.1020 C.3    30  ASN30       0.1770
      3  C         18.7820   -0.1550  -12.9530 C.2    30  ASN30       0.2439
      4  O         18.3880    0.9160  -12.4710 O.2    30  ASN30      -0.2733
      5  CB        18.8740   -1.4350  -10.8050 C.3    30  ASN30       0.1168
      6  CG        17.6400   -2.2450  -11.0420 C.2    30  ASN30       0.2627
      7  OD1       17.1660   -2.3340  -12.1710 O.2    30  ASN30      -0.2716
      8  ND2       17.0870   -2.8200   -9.9760 N.am   30  ASN30      -0.0877
      9  N         18.4830   -0.4840  -14.2070 N.am   31  PRO31      -0.2718
     10  CA        17.6760    0.4190  -15.0360 C.3    31  PRO31       0.1535
     11  C         16.1750    0.3110  -14.8210 C.2    31  PRO31       0.2598
     12  O         15.4190    0.9460  -15.5610 O.2    31  PRO31      -0.2715
     13  CB        18.0410   -0.0330  -16.4500 C.3    31  PRO31       0.0310
     14  CG        18.3120   -1.4490  -16.3100 C.3    31  PRO31       0.0237
     15  CD        18.9730   -1.6430  -14.9640 C.3    31  PRO31       0.0939
     16  N         15.7430   -0.4270  -13.7970 N.am   32  HIS32      -0.1974
     17  CA        14.3390   -0.7980  -13.6450 C.3    32  HIS32       0.1656
     18  C         13.4280    0.4030  -13.4500 C.2    32  HIS32       0.2291
     19  O         12.2280    0.3130  -13.7300 O.2    32  HIS32      -0.2864
     20  CB        14.2020   -1.7310  -12.4450 C.3    32  HIS32       0.0771
     21  CG        12.7970   -2.1460  -12.1430 C.ar   32  HIS32       0.0820
     22  ND1       11.8760   -1.2970  -11.5660 N.ar   32  HIS32      -0.2267
     23  CD2       12.1640   -3.3310  -12.3090 C.ar   32  HIS32       0.1154
     24  CE1       10.7320   -1.9360  -11.4040 C.ar   32  HIS32       0.1986
     25  NE2       10.8790   -3.1730  -11.8450 N.ar   32  HIS32      -0.2212
     26  N         12.7810    0.3930  -19.1140 N.3    38  ARG38      -0.1245
     27  CA        12.0820   -0.8160  -18.6750 C.3    38  ARG38       0.1563
     28  C         11.6310   -1.7150  -19.8190 C.2    38  ARG38       0.2260
     29  O         11.9120   -2.9220  -19.7670 O.2    38  ARG38      -0.2867
     30  CB        10.9200   -0.4570  -17.7390 C.3    38  ARG38       0.0307
     31  CG        11.3420    0.2860  -16.4710 C.3    38  ARG38       0.0489
     32  CD         9.9690    0.5450  -15.8040 C.3    38  ARG38       0.2205
     33  NE        10.2710    1.4630  -14.7320 N.pl3  38  ARG38      -0.0865
     34  CZ         9.3980    2.3790  -14.2950 C.cat  38  ARG38       0.5346
     35  NH1        8.2010    2.5320  -14.8140 N.pl3  38  ARG38       0.1354
     36  NH2        9.8220    3.1210  -13.2490 N.pl3  38  ARG38       0.1354
     37  N         20.2290  -11.6900  -13.4590 N.3    89  CYS89      -0.1221
     38  CA        19.6460  -10.5510  -12.7590 C.3    89  CYS89       0.1808
     39  C         18.2610  -10.9890  -12.2970 C.2    89  CYS89       0.2602
     40  O         17.9720  -12.1680  -12.2840 O.2    89  CYS89      -0.2717
     41  CB        19.6780   -9.2650  -13.5900 C.3    89  CYS89       0.0970
     42  SG        18.7520   -9.2420  -15.1340 S.3    89  CYS89      -0.0800
     43  N         17.4110  -10.0660  -11.8670 N.am   90  THR90      -0.1939
     44  CA        16.1250  -10.5320  -11.3470 C.3    90  THR90       0.2028
     45  C         15.2290  -11.0380  -12.4600 C.2    90  THR90       0.2643
     46  O         14.6970  -12.1560  -12.3710 O.2    90  THR90      -0.2714
     47  CB        15.4180   -9.4210  -10.6050 C.3    90  THR90       0.1808
     48  OG1       16.1860   -9.1170   -9.4380 O.3    90  THR90      -0.2208
     49  CG2       14.0360   -9.8790  -10.1390 C.3    90  THR90       0.0379
     50  N         15.0530  -10.2300  -13.5230 N.am   91  GLY91      -0.1939
     51  CA        14.1360  -10.6110  -14.5720 C.3    91  GLY91       0.2014
     52  C         14.7680  -11.1710  -15.8230 C.2    91  GLY91       0.2639
     53  O         14.0630  -11.6940  -16.6710 O.2    91  GLY91      -0.2714
     54  N         16.0810  -11.0130  -15.9780 N.am   92  GLY92      -0.1939
     55  CA        16.7630  -11.5270  -17.1430 C.3    92  GLY92       0.2014
     56  C         16.5660  -10.7090  -18.4000 C.2    92  GLY92       0.2639
     57  O         16.7440  -11.2420  -19.5010 O.2    92  GLY92      -0.2714
     58  N         16.2670   -9.4120  -18.2740 N.am   93  LYS93      -0.1963
     59  CA        16.0300   -8.5840  -19.4620 C.3    93  LYS93       0.1728
     60  C         17.1130   -7.5510  -19.7280 C.2    93  LYS93       0.2616
     61  O         17.3620   -7.2310  -20.8910 O.2    93  LYS93      -0.2715
     62  CB        14.6840   -7.8640  -19.3190 C.3    93  LYS93       0.0311
     63  CG        14.0440   -7.3380  -20.5990 C.3    93  LYS93       0.0038
     64  CD        12.7010   -6.6950  -20.2570 C.3    93  LYS93       0.0206
     65  CE        11.9990   -6.1080  -21.4610 C.3    93  LYS93       0.1093
     66  NZ        10.7200   -5.4990  -20.9220 N.3    93  LYS93      -0.1314
     67  N         17.7380   -6.9940  -18.6620 N.am   94  HIS94      -0.1959
     68  CA        18.6230   -5.8400  -18.8490 C.3    94  HIS94       0.1787
     69  C         20.0780   -6.1190  -18.4910 C.2    94  HIS94       0.2620
     70  O         20.8920   -6.3900  -19.3810 O.2    94  HIS94      -0.2715
     71  CB        18.1150   -4.6560  -18.0310 C.3    94  HIS94       0.0785
     72  CG        16.7210   -4.2470  -18.3770 C.ar   94  HIS94       0.0821
     73  ND1       15.7080   -4.2650  -17.4580 N.ar   94  HIS94      -0.2267
     74  CD2       16.1720   -3.7850  -19.5220 C.ar   94  HIS94       0.1154
     75  CE1       14.5850   -3.8630  -18.0160 C.ar   94  HIS94       0.1986
     76  NE2       14.8390   -3.5590  -19.2660 N.ar   94  HIS94      -0.2212
     77  N         20.4090   -6.1310  -17.2000 N.am   95  ARG95      -0.1977
     78  CA        21.8110   -6.2880  -16.7830 C.3    95  ARG95       0.1597
     79  C         22.4180   -7.6070  -17.2720 C.2    95  ARG95       0.2287
     80  O         23.5440   -7.6320  -17.7820 O.2    95  ARG95      -0.2864
     81  CB        21.9440   -6.1690  -15.2550 C.3    95  ARG95       0.0334
     82  CG        21.7190   -4.7370  -14.7300 C.3    95  ARG95       0.0492
     83  CD        21.6310   -4.7150  -13.2130 C.3    95  ARG95       0.2205
     84  NE        20.3880   -5.3070  -12.6980 N.pl3  95  ARG95      -0.0865
     85  CZ        20.0780   -5.2840  -11.3990 C.cat  95  ARG95       0.5346
     86  NH1       20.8420   -4.6280  -10.5520 N.pl3  95  ARG95       0.1354
     87  NH2       18.9870   -5.8480  -10.9600 N.pl3  95  ARG95       0.1354
@<TRIPOS>BOND
     1    65    66    1
     2    65    64    1
     3    61    60    2
     4    63    64    1
     5    63    62    1
     6    28    29    2
     7    28    27    1
     8    60    59    1
     9    60    67   am
    10    74    76   ar
    11    74    72   ar
    12    57    56    2
    13    59    62    1
    14    59    58    1
    15    70    69    2
    16    76    75   ar
    17    26    27    1
    18    68    67    1
    19    68    69    1
    20    68    71    1
    21    27    30    1
    22    69    77   am
    23    56    58   am
    24    56    55    1
    25    72    71    1
    26    72    73   ar
    27    75    73   ar
    28    80    79    2
    29    30    31    1
    30    79    78    1
    31    77    78    1
    32    55    54    1
    33    78    81    1
    34    53    52    2
    35    31    32    1
    36    13    14    1
    37    13    10    1
    38    14    15    1
    39    54    52   am
    40    52    51    1
    41    32    33    1
    42    12    11    2
    43    81    82    1
    44    42    41    1
    45    10    11    1
    46    10     9    1
    47    15     9    1
    48    11    16   am
    49    35    34    1
    50    33    34    2
    51    82    83    1
    52    51    50    1
    53    34    36    1
    54     9     3   am
    55    16    17    1
    56    19    18    2
    57    17    18    1
    58    17    20    1
    59    41    38    1
    60    50    45   am
    61    37    38    1
    62    83    84    1
    63     3     4    2
    64     3     2    1
    65    38    39    1
    66    84    85    2
    67    45    46    2
    68    45    44    1
    69    20    21    1
    70    23    21   ar
    71    23    25   ar
    72    39    40    2
    73    39    43   am
    74     7     6    2
    75    21    22   ar
    76     2     1    1
    77     2     5    1
    78    43    44    1
    79    25    24   ar
    80    22    24   ar
    81    85    87    1
    82    85    86    1
    83    44    47    1
    84     6     5    1
    85     6     8   am
    86    47    49    1
    87    47    48    1
