@<TRIPOS>MOLECULE
tmp/5o5tA06.pdb
 222 210 0 0 0
SMALL
GASTEIGER

@<TRIPOS>ATOM
      1  N         21.7740   50.2050   36.0180 N.3   155  PHE155     -0.1227
      2  CA        20.6500   49.2850   36.0280 C.3   155  PHE155      0.1736
      3  C         20.3180   48.7990   34.6010 C.2   155  PHE155      0.2595
      4  O         20.2530   49.6350   33.6740 O.2   155  PHE155     -0.2718
      5  CB        19.4390   49.9830   36.6590 C.3   155  PHE155      0.0547
      6  CG        18.1400   49.2100   36.5610 C.ar  155  PHE155     -0.0202
      7  CD1       17.9870   47.9460   37.1770 C.ar  155  PHE155     -0.0042
      8  CD2       17.0120   49.7900   35.9330 C.ar  155  PHE155     -0.0042
      9  CE1       16.7760   47.2570   37.1470 C.ar  155  PHE155     -0.0003
     10  CE2       15.7900   49.0980   35.9050 C.ar  155  PHE155     -0.0003
     11  CZ        15.6570   47.8280   36.4680 C.ar  155  PHE155     -0.0000
     12  N         20.0410   47.5160   34.4930 N.am  156  ARG156     -0.1980
     13  CA        19.8160   46.9120   33.1470 C.3   156  ARG156      0.1597
     14  C         18.5980   47.5000   32.4310 C.2   156  ARG156      0.2287
     15  O         18.6010   47.5170   31.1830 O.2   156  ARG156     -0.2864
     16  CB        19.7170   45.3810   33.2380 C.3   156  ARG156      0.0334
     17  CG        18.4200   44.8560   33.8810 C.3   156  ARG156      0.0492
     18  CD        18.4350   43.3450   34.1160 C.3   156  ARG156      0.2205
     19  NE        19.2580   42.9250   35.2730 N.pl3 156  ARG156     -0.0865
     20  CZ        18.8500   43.1600   36.5440 C.cat 156  ARG156      0.5346
     21  NH1       17.7040   43.7490   36.8070 N.pl3 156  ARG156      0.1354
     22  NH2       19.6170   42.7550   37.5530 N.pl3 156  ARG156      0.1354
     23  N         14.7020   41.9700   35.9390 N.3   203  ASN203     -0.1240
     24  CA        13.6700   42.6700   35.1370 C.3   203  ASN203      0.1653
     25  C         14.3310   43.8210   34.3530 C.2   203  ASN203      0.2266
     26  O         15.3900   44.3410   34.7280 O.2   203  ASN203     -0.2867
     27  CB        12.4490   43.1410   35.9100 C.3   203  ASN203      0.1155
     28  CG        12.6860   44.4750   36.6070 C.2   203  ASN203      0.2627
     29  OD1       12.6830   45.5300   36.0040 O.2   203  ASN203     -0.2716
     30  ND2       12.8480   44.4510   37.9870 N.am  203  ASN203     -0.0877
     31  N          9.9390   51.6070   35.1720 N.3   207  LEU207     -0.1245
     32  CA         8.6670   51.9810   35.8200 C.3   207  LEU207      0.1561
     33  C          8.6570   53.4040   36.3830 C.2   207  LEU207      0.2260
     34  O          7.5740   53.9860   36.5540 O.2   207  LEU207     -0.2867
     35  CB         8.4010   51.0390   36.9960 C.3   207  LEU207      0.0270
     36  CG         8.0600   49.5870   36.6670 C.3   207  LEU207      0.0019
     37  CD1        7.9800   48.7100   37.9320 C.3   207  LEU207      0.0001
     38  CD2        6.7130   49.5090   35.9190 C.3   207  LEU207      0.0001
     39  N         20.4830   37.4450   47.9740 N.3   333  ASP333     -0.1239
     40  CA        19.4180   38.3470   47.6460 C.3   333  ASP333      0.1674
     41  C         18.1090   37.5670   47.4930 C.2   333  ASP333      0.2266
     42  O         17.9280   36.8760   46.4820 O.2   333  ASP333     -0.2867
     43  CB        19.8210   38.9830   46.2800 C.3   333  ASP333      0.1410
     44  CG        18.8530   39.9950   45.8210 C.2   333  ASP333      0.3668
     45  OD1       17.8300   40.2670   46.5470 O.co2 333  ASP333     -0.2456
     46  OD2       19.0450   40.5710   44.7100 O.co2 333  ASP333     -0.2456
     47  N         11.5430   41.6280   42.8400 N.3   371  GLU371     -0.1245
     48  CA        12.4700   41.3580   41.7230 C.3   371  GLU371      0.1567
     49  C         11.7620   41.7400   40.4260 C.2   371  GLU371      0.2260
     50  O         12.4770   41.9190   39.3880 O.2   371  GLU371     -0.2867
     51  CB        12.9420   39.9020   41.7200 C.3   371  GLU371      0.0388
     52  CG        13.8580   39.4810   42.9000 C.3   371  GLU371      0.1160
     53  CD        15.2210   40.1340   42.8600 C.2   371  GLU371      0.3649
     54  OE1       15.4870   41.0980   42.0920 O.co2 371  GLU371     -0.2457
     55  OE2       16.1110   39.7360   43.6720 O.co2 371  GLU371     -0.2457
     56  N          9.9780   44.5320   40.0310 N.3   373  GLY373     -0.1210
     57  CA         9.7940   45.9920   39.9380 C.3   373  GLY373      0.1956
     58  C          9.2500   46.6290   41.2120 C.2   373  GLY373      0.2611
     59  O          8.5390   47.6240   41.1490 O.2   373  GLY373     -0.2717
     60  N          9.6630   46.0750   42.3470 N.am  374  LEU374     -0.1979
     61  CA         9.2640   46.7120   43.6780 C.3   374  LEU374      0.1596
     62  C          7.7320   46.6310   43.8300 C.2   374  LEU374      0.2287
     63  O          7.0980   47.5520   44.2990 O.2   374  LEU374     -0.2864
     64  CB         9.7740   48.1780   43.8170 C.3   374  LEU374      0.0297
     65  CG        11.1580   48.4470   43.1990 C.3   374  LEU374      0.0022
     66  CD1       11.5700   49.9030   43.2970 C.3   374  LEU374      0.0001
     67  CD2       12.2220   47.5170   43.7440 C.3   374  LEU374      0.0001
     68  N         16.9660   44.3730   52.4660 N.3   399  ASP399     -0.1225
     69  CA        17.3750   43.3440   51.4690 C.3   399  ASP399      0.1805
     70  C         18.7450   42.8060   51.8730 C.2   399  ASP399      0.2598
     71  O         19.1150   42.8520   53.0760 O.2   399  ASP399     -0.2718
     72  CB        17.3460   43.9570   50.0560 C.3   399  ASP399      0.1424
     73  CG        17.2460   42.9050   48.9850 C.2   399  ASP399      0.3668
     74  OD1       17.2810   41.7020   49.2350 O.co2 399  ASP399     -0.2456
     75  OD2       17.1540   43.3270   47.7970 O.co2 399  ASP399     -0.2456
     76  N         19.5250   42.2860   50.9260 N.am  400  SER400     -0.1952
     77  CA        20.7720   41.5860   51.1920 C.3   400  SER400      0.1924
     78  C         21.5900   42.2190   52.3130 C.2   400  SER400      0.2314
     79  O         21.8590   43.4240   52.2940 O.2   400  SER400     -0.2863
     80  CB        21.6370   41.5550   49.9290 C.3   400  SER400      0.2116
     81  OG        20.8070   41.0770   48.8880 O.3   400  SER400     -0.2180
     82  N         33.6140   46.0110   54.9460 N.3   407  THR407     -0.1203
     83  CA        33.1980   47.0450   55.8970 C.3   407  THR407      0.1994
     84  C         31.6970   47.3470   55.7290 C.2   407  THR407      0.2618
     85  O         30.9890   46.7380   54.8720 O.2   407  THR407     -0.2717
     86  CB        34.0680   48.3280   55.7470 C.3   407  THR407      0.1784
     87  OG1       33.8810   49.1890   56.8750 O.3   407  THR407     -0.2211
     88  CG2       33.7400   49.0970   54.4600 C.3   407  THR407      0.0376
     89  N         31.2020   48.2930   56.5230 N.am  408  LEU408     -0.1965
     90  CA        29.7870   48.6970   56.4790 C.3   408  LEU408      0.1728
     91  C         29.5040   49.6000   55.2890 C.2   408  LEU408      0.2616
     92  O         30.3800   50.3920   54.9350 O.2   408  LEU408     -0.2715
     93  CB        29.4340   49.4680   57.7690 C.3   408  LEU408      0.0311
     94  CG        27.9340   49.6970   58.0720 C.3   408  LEU408      0.0022
     95  CD1       27.1820   48.3790   58.2420 C.3   408  LEU408      0.0001
     96  CD2       27.7640   50.5880   59.3090 C.3   408  LEU408      0.0001
     97  N         28.3080   49.4620   54.6980 N.am  409  ARG409     -0.1977
     98  CA        27.7580   50.4530   53.7570 C.3   409  ARG409      0.1597
     99  C         26.4480   50.9540   54.3310 C.2   409  ARG409      0.2287
    100  O         25.6040   50.1450   54.7620 O.2   409  ARG409     -0.2864
    101  CB        27.5200   49.7850   52.3730 C.3   409  ARG409      0.0334
    102  CG        26.7170   50.6650   51.4130 C.3   409  ARG409      0.0492
    103  CD        26.4260   49.9150   50.1250 C.3   409  ARG409      0.2205
    104  NE        25.5620   50.7550   49.3010 N.pl3 409  ARG409     -0.0865
    105  CZ        25.3030   50.4810   48.0140 C.cat 409  ARG409      0.5346
    106  NH1       25.8560   49.4110   47.4160 N.pl3 409  ARG409      0.1354
    107  NH2       24.5070   51.3000   47.3420 N.pl3 409  ARG409      0.1354
    108  N         36.3910   53.1280   55.2210 N.3   447  SER447     -0.1217
    109  CA        35.5710   53.8330   54.2470 C.3   447  SER447      0.1889
    110  C         35.4290   55.3260   54.6360 C.2   447  SER447      0.2288
    111  O         34.3400   55.7680   55.0230 O.2   447  SER447     -0.2866
    112  CB        34.2190   53.1300   54.1360 C.3   447  SER447      0.2089
    113  OG        33.5020   53.5900   53.0240 O.3   447  SER447     -0.2183
    114  N         31.9590   57.3130   55.1600 N.3   457  ARG457     -0.1245
    115  CA        31.1120   57.5670   54.0040 C.3   457  ARG457      0.1563
    116  C         29.6600   57.1090   54.2370 C.2   457  ARG457      0.2260
    117  O         29.4200   55.9700   54.6370 O.2   457  ARG457     -0.2867
    118  CB        31.7410   56.8370   52.8140 C.3   457  ARG457      0.0307
    119  CG        30.8780   56.8950   51.5550 C.3   457  ARG457      0.0489
    120  CD        31.4080   55.9910   50.4540 C.3   457  ARG457      0.2205
    121  NE        32.7340   56.3980   49.9820 N.pl3 457  ARG457     -0.0865
    122  CZ        32.9510   57.2330   48.9630 C.cat 457  ARG457      0.5346
    123  NH1       31.9290   57.7790   48.3080 N.pl3 457  ARG457      0.1354
    124  NH2       34.2020   57.5290   48.6090 N.pl3 457  ARG457      0.1354
    125  N         16.1180   50.9490   42.9790 N.3   464  GLY464     -0.1210
    126  CA        16.2800   49.5460   42.7240 C.3   464  GLY464      0.1956
    127  C         16.0170   48.7010   43.9570 C.2   464  GLY464      0.2611
    128  O         16.4680   47.5750   44.0380 O.2   464  GLY464     -0.2717
    129  N         15.2780   49.2770   44.9260 N.am  465  ASN465     -0.1974
    130  CA        14.8080   48.4460   46.0720 C.3   465  ASN465      0.1688
    131  C         13.5650   49.0450   46.7190 C.2   465  ASN465      0.2292
    132  O         13.1330   50.1330   46.3500 O.2   465  ASN465     -0.2864
    133  CB        15.9590   48.2240   47.1280 C.3   465  ASN465      0.1181
    134  CG        15.9530   46.7850   47.6210 C.2   465  ASN465      0.2629
    135  OD1       14.9410   46.3550   48.2740 O.2   465  ASN465     -0.2716
    136  ND2       16.9800   46.0120   47.2410 N.am  465  ASN465     -0.0877
    137  N         19.1890   52.3470   54.5550 N.3   480  ARG480     -0.1245
    138  CA        19.5590   50.9720   54.3760 C.3   480  ARG480      0.1563
    139  C         20.9940   50.7800   54.8580 C.2   480  ARG480      0.2260
    140  O         21.7830   51.7640   54.9020 O.2   480  ARG480     -0.2867
    141  CB        19.4670   50.5680   52.8730 C.3   480  ARG480      0.0307
    142  CG        20.5070   51.2710   51.9560 C.3   480  ARG480      0.0489
    143  CD        20.2750   51.1220   50.4020 C.3   480  ARG480      0.2205
    144  NE        20.0320   49.7180   50.0330 N.pl3 480  ARG480     -0.0865
    145  CZ        19.8820   49.2810   48.7740 C.cat 480  ARG480      0.5346
    146  NH1       20.1000   50.1530   47.7750 N.pl3 480  ARG480      0.1354
    147  NH2       19.5590   48.0050   48.5580 N.pl3 480  ARG480      0.1354
    148  N         24.2880   47.5150   55.0260 N.3   482  ARG482     -0.1245
    149  CA        24.7400   46.1330   54.7660 C.3   482  ARG482      0.1563
    150  C         26.2450   46.1340   54.8350 C.2   482  ARG482      0.2260
    151  O         26.8610   47.2050   54.8620 O.2   482  ARG482     -0.2867
    152  CB        24.2500   45.6100   53.3490 C.3   482  ARG482      0.0307
    153  CG        24.7560   46.4890   52.2110 C.3   482  ARG482      0.0489
    154  CD        24.4700   45.8070   50.8420 C.3   482  ARG482      0.2205
    155  NE        23.0330   45.5520   50.6790 N.pl3 482  ARG482     -0.0865
    156  CZ        22.4170   45.4100   49.4930 C.cat 482  ARG482      0.5346
    157  NH1       23.1290   45.5720   48.3570 N.pl3 482  ARG482      0.1354
    158  NH2       21.1160   45.1600   49.4540 N.pl3 482  ARG482      0.1354
    159  N         29.7550   45.3880   52.8670 N.3   484  THR484     -0.1218
    160  CA        30.1550   45.6050   51.4330 C.3   484  THR484      0.1862
    161  C         31.6180   45.2560   51.1780 C.2   484  THR484      0.2287
    162  O         32.3520   44.8940   52.0940 O.2   484  THR484     -0.2866
    163  CB        29.8710   47.0810   51.0110 C.3   484  THR484      0.1770
    164  OG1       29.9890   47.2160   49.5710 O.3   484  THR484     -0.2211
    165  CG2       30.8300   48.0800   51.7120 C.3   484  THR484      0.0375
    166  N         36.0580   48.9940   48.2240 N.3   487  TRP487     -0.1241
    167  CA        35.8160   49.8280   47.0730 C.3   487  TRP487      0.1605
    168  C         37.0740   50.3130   46.3610 C.2   487  TRP487      0.2264
    169  O         37.0120   50.6290   45.1780 O.2   487  TRP487     -0.2867
    170  CB        34.8830   50.9670   47.4620 C.3   487  TRP487      0.0550
    171  CG        33.5080   50.4320   47.5830 C.ar  487  TRP487      0.0003
    172  CD1       32.9900   49.6690   48.6200 C.ar  487  TRP487      0.0946
    173  CD2       32.4710   50.5700   46.6200 C.ar  487  TRP487      0.0152
    174  NE1       31.6790   49.3400   48.3490 N.ar  487  TRP487     -0.2442
    175  CE2       31.3340   49.8770   47.1300 C.ar  487  TRP487      0.0810
    176  CE3       32.3790   51.2300   45.3690 C.ar  487  TRP487      0.0012
    177  CZ2       30.1160   49.8310   46.4480 C.ar  487  TRP487      0.0191
    178  CZ3       31.1600   51.1720   44.6640 C.ar  487  TRP487      0.0001
    179  CH2       30.0410   50.4720   45.2110 C.ar  487  TRP487      0.0015
    180  N         28.2290   41.8340   43.5720 N.3   495  TYR495     -0.1241
    181  CA        28.9400   40.5790   43.7940 C.3   495  TYR495      0.1605
    182  C         28.7700   39.6710   42.5670 C.2   495  TYR495      0.2264
    183  O         27.7210   39.7220   41.9090 O.2   495  TYR495     -0.2867
    184  CB        28.4750   39.8660   45.0940 C.3   495  TYR495      0.0534
    185  CG        27.0050   39.6030   45.1840 C.ar  495  TYR495     -0.0201
    186  CD1       26.1200   40.5930   45.7050 C.ar  495  TYR495     -0.0009
    187  CD2       26.4630   38.3690   44.7580 C.ar  495  TYR495     -0.0009
    188  CE1       24.7560   40.3540   45.7640 C.ar  495  TYR495      0.0417
    189  CE2       25.0750   38.1320   44.8210 C.ar  495  TYR495      0.0417
    190  CZ        24.2330   39.1310   45.3180 C.ar  495  TYR495      0.1957
    191  OH        22.8770   38.9200   45.3810 O.3   495  TYR495     -0.2866
    192  N         21.9430   37.2190   41.2150 N.3   499  HIS499     -0.1241
    193  CA        20.7610   36.8070   40.4320 C.3   499  HIS499      0.1621
    194  C         21.0460   35.5470   39.5540 C.2   499  HIS499      0.2264
    195  O         20.2900   35.2610   38.5970 O.2   499  HIS499     -0.2867
    196  CB        20.2530   37.9810   39.5670 C.3   499  HIS499      0.0745
    197  CG        19.5100   39.0630   40.3000 C.ar  499  HIS499      0.0817
    198  ND1       18.9100   40.0880   39.6120 N.ar  499  HIS499     -0.2268
    199  CD2       19.2450   39.3060   41.6330 C.ar  499  HIS499      0.1154
    200  CE1       18.2570   40.8890   40.4310 C.ar  499  HIS499      0.1986
    201  NE2       18.4240   40.4400   41.6970 N.ar  499  HIS499     -0.2212
    202  N         18.9450   53.8270   37.3880 N.3   645  LYS645     -0.1231
    203  CA        18.0110   53.7230   38.5180 C.3   645  LYS645      0.1693
    204  C         18.7490   53.4490   39.8010 C.2   645  LYS645      0.2588
    205  O         18.2040   53.8060   40.8620 O.2   645  LYS645     -0.2718
    206  CB        17.0150   52.5770   38.2490 C.3   645  LYS645      0.0285
    207  CG        15.8590   52.5280   39.2190 C.3   645  LYS645      0.0035
    208  CD        14.8130   51.4880   38.7420 C.3   645  LYS645      0.0206
    209  CE        13.5400   51.6740   39.5710 C.3   645  LYS645      0.1093
    210  NZ        12.6040   50.5600   39.3610 N.3   645  LYS645     -0.1314
    211  N         19.8810   52.7640   39.7450 N.am  646  TYR646     -0.2029
    212  CA        20.5690   52.4480   41.0240 C.3   646  TYR646      0.1325
    213  C         21.1900   53.6460   41.6890 C.3   646  TYR646      0.2039
    214  O         21.4230   53.6060   42.9550 O.3   646  TYR646     -0.2185
    215  CB        21.6920   51.4440   40.8350 C.3   646  TYR646      0.0507
    216  CG        21.2870   50.0380   40.4110 C.ar  646  TYR646     -0.0202
    217  CD1       20.0990   49.4520   40.8680 C.ar  646  TYR646     -0.0009
    218  CD2       22.1430   49.2710   39.5840 C.ar  646  TYR646     -0.0009
    219  CE1       19.7410   48.1490   40.5370 C.ar  646  TYR646      0.0417
    220  CE2       21.8020   47.9590   39.2380 C.ar  646  TYR646      0.0417
    221  CZ        20.5890   47.4180   39.6630 C.ar  646  TYR646      0.1957
    222  OH        20.2500   46.1380   39.3180 O.3   646  TYR646     -0.2866
@<TRIPOS>BOND
     1    15    14    2
     2    14    13    1
     3    13    16    1
     4    13    12    1
     5    16    17    1
     6     4     3    2
     7    17    18    1
     8    18    19    1
     9    25    26    2
    10    25    24    1
    11    12     3   am
    12     3     2    1
    13    24    27    1
    14    24    23    1
    15    31    32    1
    16    19    20    2
    17    32    33    1
    18    32    35    1
    19    10     8   ar
    20    10    11   ar
    21    27    28    1
    22    38    36    1
    23     8     6   ar
    24    29    28    2
    25     1     2    1
    26     2     5    1
    27    33    34    2
    28    11     9   ar
    29    20    21    1
    30    20    22    1
    31     6     5    1
    32     6     7   ar
    33    28    30   am
    34    36    35    1
    35    36    37    1
    36     9     7   ar
    37   202   203    1
    38   206   203    1
    39   206   207    1
    40   203   204    1
    41   195   194    2
    42   208   207    1
    43   208   209    1
    44   220   218   ar
    45   220   221   ar
    46   222   221    1
    47   210   209    1
    48    50    49    2
    49   194   193    1
    50   196   197    1
    51   196   193    1
    52   218   216   ar
    53   198   197   ar
    54   198   200   ar
    55   221   219   ar
    56   211   204   am
    57   211   212    1
    58   204   205    2
    59    57    56    1
    60    57    58    1
    61   197   199   ar
    62   216   215    1
    63   216   217   ar
    64    49    48    1
    65   200   201   ar
    66   193   192    1
    67   219   217   ar
    68   215   212    1
    69   212   213    1
    70    59    58    2
    71    58    60   am
    72   199   201   ar
    73   213   214    1
    74    51    48    1
    75    51    52    1
    76    48    47    1
    77   183   182    2
    78    54    53   ar
    79    60    61    1
    80   182   181    1
    81   126   125    1
    82   126   127    1
    83    53    52    1
    84    53    55   ar
    85    65    66    1
    86    65    67    1
    87    65    64    1
    88   180   181    1
    89    61    64    1
    90    61    62    1
    91   181   184    1
    92    62    63    2
    93   127   128    2
    94   127   129   am
    95   178   179   ar
    96   178   176   ar
    97    46    44   ar
    98   187   189   ar
    99   187   185   ar
   100   189   190   ar
   101   129   130    1
   102   184   185    1
   103   169   168    2
   104   185   186   ar
   105   179   177   ar
   106   190   191    1
   107   190   188   ar
   108   176   173   ar
   109   186   188   ar
   110    44    43    1
   111    44    45   ar
   112   130   131    1
   113   130   133    1
   114    43    40    1
   115   132   131    2
   116   168   167    1
   117   177   175   ar
   118    42    41    2
   119   173   175   ar
   120   173   171   ar
   121   167   170    1
   122   167   166    1
   123   133   134    1
   124   175   174   ar
   125   136   134   am
   126   107   105    1
   127   106   105    1
   128   170   171    1
   129    41    40    1
   130   171   172   ar
   131   134   135    2
   132    40    39    1
   133   146   145    1
   134    75    73   ar
   135   105   104    2
   136   123   122    1
   137   174   172   ar
   138   157   156    1
   139   147   145    1
   140   124   122    1
   141   145   144    2
   142    81    80    1
   143   122   121    2
   144    73    74   ar
   145    73    72    1
   146   104   103    1
   147   158   156    1
   148   156   155    2
   149   164   163    1
   150    80    77    1
   151   121   120    1
   152   144   143    1
   153    72    69    1
   154   103   102    1
   155   143   142    1
   156   120   119    1
   157   155   154    1
   158   154   153    1
   159    76    77    1
   160    76    70   am
   161   163   160    1
   162   163   165    1
   163   161   160    1
   164   161   162    2
   165    77    78    1
   166   102   101    1
   167   160   159    1
   168    69    70    1
   169    69    68    1
   170   119   118    1
   171    70    71    2
   172   142   141    1
   173   153   152    1
   174    79    78    2
   175   101    98    1
   176   118   115    1
   177   141   138    1
   178   113   112    1
   179   152   149    1
   180    98    99    1
   181    98    97    1
   182   115   116    1
   183   115   114    1
   184   112   109    1
   185   116   117    2
   186   109   110    1
   187   109   108    1
   188    99   100    2
   189   138   137    1
   190   138   139    1
   191    88    86    1
   192   110   111    2
   193    97    91   am
   194   149   150    1
   195   149   148    1
   196   150   151    2
   197   139   140    2
   198    85    84    2
   199    92    91    2
   200    82    83    1
   201    91    90    1
   202    84    83    1
   203    84    89   am
   204    86    83    1
   205    86    87    1
   206    90    89    1
   207    90    93    1
   208    93    94    1
   209    94    95    1
   210    94    96    1
