@<TRIPOS>MOLECULE
tmp/5o5uA07.pdb
 195 184 0 0 0
SMALL
GASTEIGER

@<TRIPOS>ATOM
      1  N         21.7440   50.2810   36.0090 N.3   155  PHE155     -0.1227
      2  CA        20.6210   49.3540   36.0150 C.3   155  PHE155      0.1736
      3  C         20.3230   48.8890   34.5980 C.2   155  PHE155      0.2595
      4  O         20.2640   49.6980   33.6480 O.2   155  PHE155     -0.2718
      5  CB        19.4040   50.0850   36.6050 C.3   155  PHE155      0.0547
      6  CG        18.1080   49.3280   36.5440 C.ar  155  PHE155     -0.0202
      7  CD1       17.9670   48.1150   37.1860 C.ar  155  PHE155     -0.0042
      8  CD2       16.9970   49.8840   35.8740 C.ar  155  PHE155     -0.0042
      9  CE1       16.7750   47.4190   37.1390 C.ar  155  PHE155     -0.0003
     10  CE2       15.7930   49.1820   35.8270 C.ar  155  PHE155     -0.0003
     11  CZ        15.7020   47.9410   36.4510 C.ar  155  PHE155     -0.0000
     12  N         20.0260   47.5910   34.4690 N.am  156  ARG156     -0.1980
     13  CA        19.8220   47.0240   33.1140 C.3   156  ARG156      0.1597
     14  C         18.6240   47.6000   32.3550 C.2   156  ARG156      0.2287
     15  O         18.6020   47.6620   31.1200 O.2   156  ARG156     -0.2864
     16  CB        19.7180   45.5070   33.2160 C.3   156  ARG156      0.0334
     17  CG        18.4400   44.9800   33.8520 C.3   156  ARG156      0.0492
     18  CD        18.4450   43.4500   34.0690 C.3   156  ARG156      0.2205
     19  NE        19.2140   43.0520   35.2730 N.pl3 156  ARG156     -0.0865
     20  CZ        18.8120   43.2420   36.5260 C.cat 156  ARG156      0.5346
     21  NH1       17.6480   43.8490   36.7530 N.pl3 156  ARG156      0.1354
     22  NH2       19.5650   42.8340   37.5210 N.pl3 156  ARG156      0.1354
     23  N         14.6850   42.0190   35.8790 N.3   203  ASN203     -0.1240
     24  CA        13.7110   42.7320   35.0800 C.3   203  ASN203      0.1653
     25  C         14.3570   43.9070   34.3450 C.2   203  ASN203      0.2266
     26  O         15.3910   44.4360   34.7400 O.2   203  ASN203     -0.2867
     27  CB        12.4810   43.1960   35.9030 C.3   203  ASN203      0.1155
     28  CG        12.6900   44.5450   36.6040 C.2   203  ASN203      0.2627
     29  OD1       12.6780   45.6030   35.9560 O.2   203  ASN203     -0.2716
     30  ND2       12.8300   44.5090   37.9600 N.am  203  ASN203     -0.0877
     31  N          9.9410   51.7320   35.1180 N.3   207  LEU207     -0.1245
     32  CA         8.6950   52.0950   35.7680 C.3   207  LEU207      0.1561
     33  C          8.6700   53.4950   36.3610 C.2   207  LEU207      0.2260
     34  O          7.5840   54.0610   36.5900 O.2   207  LEU207     -0.2867
     35  CB         8.4210   51.1400   36.9450 C.3   207  LEU207      0.0270
     36  CG         8.0660   49.7050   36.5960 C.3   207  LEU207      0.0019
     37  CD1        8.0040   48.8660   37.8670 C.3   207  LEU207      0.0001
     38  CD2        6.7200   49.6710   35.9040 C.3   207  LEU207      0.0001
     39  N         20.5170   37.5480   47.9620 N.3   333  ASP333     -0.1239
     40  CA        19.4100   38.4740   47.5850 C.3   333  ASP333      0.1674
     41  C         18.1010   37.6890   47.4540 C.2   333  ASP333      0.2266
     42  O         17.9350   36.9870   46.4340 O.2   333  ASP333     -0.2867
     43  CB        19.7880   39.0940   46.2430 C.3   333  ASP333      0.1410
     44  CG        18.8330   40.1190   45.7820 C.2   333  ASP333      0.3668
     45  OD1       17.8980   40.3420   46.5580 O.co2 333  ASP333     -0.2456
     46  OD2       19.0560   40.6100   44.6410 O.co2 333  ASP333     -0.2456
     47  N         11.5910   41.7060   42.8540 N.3   371  GLU371     -0.1245
     48  CA        12.4140   41.4570   41.6770 C.3   371  GLU371      0.1567
     49  C         11.7640   41.8340   40.3870 C.2   371  GLU371      0.2260
     50  O         12.4250   42.0200   39.4040 O.2   371  GLU371     -0.2867
     51  CB        12.9180   39.9940   41.6680 C.3   371  GLU371      0.0388
     52  CG        13.8430   39.5700   42.8400 C.3   371  GLU371      0.1160
     53  CD        15.2150   40.2220   42.8540 C.2   371  GLU371      0.3649
     54  OE1       15.4850   41.1900   42.1000 O.co2 371  GLU371     -0.2457
     55  OE2       16.0500   39.8140   43.6750 O.co2 371  GLU371     -0.2457
     56  N          9.9590   44.6290   39.9600 N.3   373  GLY373     -0.1210
     57  CA         9.7300   46.0640   39.9140 C.3   373  GLY373      0.1956
     58  C          9.2560   46.7170   41.1690 C.2   373  GLY373      0.2611
     59  O          8.5660   47.7220   41.0960 O.2   373  GLY373     -0.2717
     60  N          9.6300   46.2060   42.3170 N.am  374  LEU374     -0.1979
     61  CA         9.2820   46.8220   43.5990 C.3   374  LEU374      0.1596
     62  C          7.7330   46.7690   43.7320 C.2   374  LEU374      0.2287
     63  O          7.0930   47.6330   44.3230 O.2   374  LEU374     -0.2864
     64  CB         9.7970   48.2760   43.6790 C.3   374  LEU374      0.0297
     65  CG        11.1980   48.5350   43.1420 C.3   374  LEU374      0.0022
     66  CD1       11.5490   49.9940   43.3100 C.3   374  LEU374      0.0001
     67  CD2       12.2150   47.6210   43.8380 C.3   374  LEU374      0.0001
     68  N         16.9470   44.4110   52.5010 N.3   399  ASP399     -0.1225
     69  CA        17.3450   43.4380   51.4670 C.3   399  ASP399      0.1805
     70  C         18.7290   42.9110   51.8610 C.2   399  ASP399      0.2598
     71  O         19.0780   42.9530   53.0550 O.2   399  ASP399     -0.2718
     72  CB        17.2940   44.0140   50.0480 C.3   399  ASP399      0.1424
     73  CG        17.2590   42.9910   48.9880 C.2   399  ASP399      0.3668
     74  OD1       17.2900   41.7940   49.2770 O.co2 399  ASP399     -0.2456
     75  OD2       17.1670   43.4180   47.8160 O.co2 399  ASP399     -0.2456
     76  N         19.4900   42.4160   50.9240 N.am  400  SER400     -0.1952
     77  CA        20.7540   41.6890   51.1800 C.3   400  SER400      0.1924
     78  C         21.5610   42.3050   52.3270 C.2   400  SER400      0.2314
     79  O         21.8330   43.5190   52.3540 O.2   400  SER400     -0.2863
     80  CB        21.5500   41.6730   49.9300 C.3   400  SER400      0.2116
     81  OG        20.8050   41.1470   48.8870 O.3   400  SER400     -0.2180
     82  N         34.6680   61.2970   51.7690 N.3   450  PRO450     -0.2116
     83  CA        35.5160   62.1260   50.9120 C.3   450  PRO450      0.1372
     84  C         35.6090   63.6290   51.3230 C.2   450  PRO450      0.2244
     85  O         36.5100   64.3070   50.8510 O.2   450  PRO450     -0.2868
     86  CB        34.8950   61.9450   49.5200 C.3   450  PRO450      0.0268
     87  CG        33.4660   61.6260   49.7780 C.3   450  PRO450      0.0207
     88  CD        33.3950   60.9410   51.1180 C.3   450  PRO450      0.0892
     89  N         26.2240   57.3560   51.6610 N.3   459  SER459     -0.1202
     90  CA        25.8540   57.6480   50.2790 C.3   459  SER459      0.2020
     91  C         24.3890   58.1420   50.2680 C.2   459  SER459      0.2618
     92  O         23.6220   57.9080   51.2010 O.2   459  SER459     -0.2717
     93  CB        25.9600   56.4280   49.3920 C.3   459  SER459      0.2103
     94  OG        27.3430   56.0440   49.2700 O.3   459  SER459     -0.2182
     95  N         24.0570   58.7360   49.1310 N.am  460  LYS460     -0.1979
     96  CA        22.6680   59.1010   48.8180 C.3   460  LYS460      0.1596
     97  C         21.9000   57.8140   48.6000 C.2   460  LYS460      0.2287
     98  O         22.4620   56.8190   48.1390 O.2   460  LYS460     -0.2864
     99  CB        22.6260   59.9350   47.5090 C.3   460  LYS460      0.0298
    100  CG        23.3540   61.2670   47.6510 C.3   460  LYS460      0.0038
    101  CD        23.0540   62.2280   46.5050 C.3   460  LYS460      0.0206
    102  CE        23.7240   61.8410   45.2240 C.3   460  LYS460      0.1093
    103  NZ        25.1500   62.2570   45.2040 N.3   460  LYS460     -0.1314
    104  N         16.1290   51.0230   43.0020 N.3   464  GLY464     -0.1210
    105  CA        16.2800   49.6200   42.7360 C.3   464  GLY464      0.1956
    106  C         16.0360   48.7930   43.9850 C.2   464  GLY464      0.2611
    107  O         16.4820   47.6450   44.0730 O.2   464  GLY464     -0.2717
    108  N         15.2550   49.3230   44.9240 N.am  465  ASN465     -0.1974
    109  CA        14.8040   48.5630   46.0800 C.3   465  ASN465      0.1688
    110  C         13.5680   49.1560   46.6940 C.2   465  ASN465      0.2292
    111  O         13.1580   50.2540   46.3050 O.2   465  ASN465     -0.2864
    112  CB        15.9450   48.2920   47.0820 C.3   465  ASN465      0.1181
    113  CG        15.8850   46.8760   47.6140 C.2   465  ASN465      0.2629
    114  OD1       14.9340   46.4840   48.3210 O.2   465  ASN465     -0.2716
    115  ND2       16.9030   46.0810   47.2510 N.am  465  ASN465     -0.0877
    116  N         19.1610   52.4690   54.5520 N.3   480  ARG480     -0.1245
    117  CA        19.5500   51.0840   54.3360 C.3   480  ARG480      0.1563
    118  C         21.0090   50.9080   54.8190 C.2   480  ARG480      0.2260
    119  O         21.8040   51.8620   54.8220 O.2   480  ARG480     -0.2867
    120  CB        19.4430   50.7010   52.8500 C.3   480  ARG480      0.0307
    121  CG        20.5140   51.2880   51.9680 C.3   480  ARG480      0.0489
    122  CD        20.2920   51.1530   50.4860 C.3   480  ARG480      0.2205
    123  NE        20.0590   49.7470   50.0710 N.pl3 480  ARG480     -0.0865
    124  CZ        19.9860   49.3310   48.8180 C.cat 480  ARG480      0.5346
    125  NH1       20.1020   50.1530   47.7930 N.pl3 480  ARG480      0.1354
    126  NH2       19.6550   48.0680   48.5930 N.pl3 480  ARG480      0.1354
    127  N         24.2250   47.6410   54.9860 N.3   482  ARG482     -0.1245
    128  CA        24.7030   46.2750   54.7300 C.3   482  ARG482      0.1563
    129  C         26.2000   46.2470   54.7870 C.2   482  ARG482      0.2260
    130  O         26.8420   47.2670   54.7800 O.2   482  ARG482     -0.2867
    131  CB        24.2510   45.7350   53.3640 C.3   482  ARG482      0.0307
    132  CG        24.6480   46.5710   52.1900 C.3   482  ARG482      0.0489
    133  CD        24.4290   45.8470   50.8780 C.3   482  ARG482      0.2205
    134  NE        23.0110   45.5710   50.6310 N.pl3 482  ARG482     -0.0865
    135  CZ        22.4350   45.5070   49.4270 C.cat 482  ARG482      0.5346
    136  NH1       23.0940   45.7520   48.2980 N.pl3 482  ARG482      0.1354
    137  NH2       21.1310   45.2080   49.3730 N.pl3 482  ARG482      0.1354
    138  N         35.4710   50.2410   49.0470 N.3   487  TRP487     -0.1241
    139  CA        34.9950   51.3180   48.1130 C.3   487  TRP487      0.1605
    140  C         36.0970   51.6810   47.0930 C.2   487  TRP487      0.2264
    141  O         35.8200   51.9230   45.9120 O.2   487  TRP487     -0.2867
    142  CB        34.5010   52.5810   48.8690 C.3   487  TRP487      0.0550
    143  CG        34.0030   53.7100   47.9550 C.ar  487  TRP487      0.0003
    144  CD1       34.7650   54.6530   47.3280 C.ar  487  TRP487      0.0946
    145  CD2       32.6380   53.9940   47.5870 C.ar  487  TRP487      0.0152
    146  NE1       33.9620   55.4900   46.5750 N.ar  487  TRP487     -0.2442
    147  CE2       32.6580   55.1120   46.7200 C.ar  487  TRP487      0.0810
    148  CE3       31.4150   53.4030   47.8900 C.ar  487  TRP487      0.0012
    149  CZ2       31.4770   55.6690   46.1520 C.ar  487  TRP487      0.0191
    150  CZ3       30.2180   53.9540   47.3170 C.ar  487  TRP487      0.0001
    151  CH2       30.2710   55.0730   46.4670 C.ar  487  TRP487      0.0015
    152  N         21.9670   37.3200   41.1610 N.3   499  HIS499     -0.1241
    153  CA        20.7610   36.8870   40.4290 C.3   499  HIS499      0.1621
    154  C         20.9970   35.6200   39.5640 C.2   499  HIS499      0.2264
    155  O         20.3020   35.3530   38.5920 O.2   499  HIS499     -0.2867
    156  CB        20.1960   38.0120   39.5850 C.3   499  HIS499      0.0745
    157  CG        19.4900   39.1300   40.3440 C.ar  499  HIS499      0.0817
    158  ND1       18.8810   40.1410   39.6290 N.ar  499  HIS499     -0.2268
    159  CD2       19.2500   39.4090   41.6570 C.ar  499  HIS499      0.1154
    160  CE1       18.2790   40.9790   40.4340 C.ar  499  HIS499      0.1986
    161  NE2       18.4400   40.5460   41.6810 N.ar  499  HIS499     -0.2212
    162  N         27.1890   72.0430   43.7450 N.3   556  LYS556     -0.1245
    163  CA        27.3940   71.0970   42.6520 C.3   556  LYS556      0.1561
    164  C         26.6110   71.5160   41.4120 C.2   556  LYS556      0.2260
    165  O         27.1590   71.6330   40.3280 O.2   556  LYS556     -0.2867
    166  CB        27.0580   69.6290   43.0620 C.3   556  LYS556      0.0271
    167  CG        26.9970   68.6130   41.9050 C.3   556  LYS556      0.0035
    168  CD        26.4190   67.2410   42.3270 C.3   556  LYS556      0.0206
    169  CE        26.4460   66.1610   41.2360 C.3   556  LYS556      0.1093
    170  NZ        25.2450   66.0710   40.3490 N.3   556  LYS556     -0.1314
    171  N         18.9320   53.9480   37.2830 N.3   645  LYS645     -0.1231
    172  CA        18.0210   53.8600   38.4410 C.3   645  LYS645      0.1693
    173  C         18.7090   53.5770   39.7410 C.2   645  LYS645      0.2592
    174  O         18.1830   53.9410   40.8080 O.2   645  LYS645     -0.2718
    175  CB        16.9900   52.7530   38.1450 C.3   645  LYS645      0.0285
    176  CG        15.8440   52.6530   39.1130 C.3   645  LYS645      0.0035
    177  CD        14.8560   51.5970   38.6790 C.3   645  LYS645      0.0206
    178  CE        13.5910   51.7680   39.5150 C.3   645  LYS645      0.1093
    179  NZ        12.6170   50.6860   39.2540 N.3   645  LYS645     -0.1314
    180  N         19.8620   52.8810   39.7350 N.am  646  TYR646     -0.1976
    181  CA        20.5280   52.5990   41.0130 C.3   646  TYR646      0.1639
    182  C         21.1640   53.7870   41.6830 C.2   646  TYR646      0.2290
    183  O         21.3240   53.7720   42.8930 O.2   646  TYR646     -0.2864
    184  CB        21.6450   51.5820   40.8190 C.3   646  TYR646      0.0560
    185  CG        21.2200   50.1830   40.4100 C.ar  646  TYR646     -0.0198
    186  CD1       20.0320   49.5880   40.8540 C.ar  646  TYR646     -0.0009
    187  CD2       22.0620   49.4020   39.6290 C.ar  646  TYR646     -0.0009
    188  CE1       19.6920   48.2860   40.5060 C.ar  646  TYR646      0.0417
    189  CE2       21.7370   48.1010   39.2640 C.ar  646  TYR646      0.0417
    190  CZ        20.5610   47.5310   39.7230 C.ar  646  TYR646      0.1957
    191  OH        20.2220   46.2370   39.3400 O.3   646  TYR646     -0.2866
    192  N         21.5180   57.6870   43.0340 N.3   648  GLY648     -0.1225
    193  CA        20.7940   58.9010   43.3870 C.3   648  GLY648      0.1811
    194  C         21.3360   60.1220   42.6750 C.2   648  GLY648      0.2280
    195  O         22.5570   60.2290   42.4800 O.2   648  GLY648     -0.2866
@<TRIPOS>BOND
     1    15    14    2
     2    14    13    1
     3    13    16    1
     4    13    12    1
     5    16    17    1
     6     4     3    2
     7    17    18    1
     8    18    19    1
     9    25    26    2
    10    25    24    1
    11    12     3   am
    12     3     2    1
    13    24    23    1
    14    24    27    1
    15    31    32    1
    16    19    20    2
    17    32    33    1
    18    32    35    1
    19    10     8   ar
    20    10    11   ar
    21     8     6   ar
    22    27    28    1
    23    38    36    1
    24    29    28    2
    25     1     2    1
    26     2     5    1
    27    33    34    2
    28    11     9   ar
    29    20    21    1
    30    20    22    1
    31     6     5    1
    32     6     7   ar
    33    36    35    1
    34    36    37    1
    35    28    30   am
    36     9     7   ar
    37   171   172    1
    38   175   172    1
    39   175   176    1
    40   172   173    1
    41   155   154    2
    42   177   176    1
    43   177   178    1
    44   179   178    1
    45   189   187   ar
    46   189   190   ar
    47   191   190    1
    48    50    49    2
    49   154   153    1
    50   156   157    1
    51   156   153    1
    52   158   157   ar
    53   158   160   ar
    54   187   185   ar
    55   190   188   ar
    56   180   173   am
    57   180   181    1
    58   173   174    2
    59    57    56    1
    60    57    58    1
    61   165   164    2
    62   157   159   ar
    63   170   169    1
    64    49    48    1
    65   185   184    1
    66   185   186   ar
    67   153   152    1
    68   160   161   ar
    69   188   186   ar
    70   184   181    1
    71   181   182    1
    72    59    58    2
    73    58    60   am
    74   169   168    1
    75   164   163    1
    76   159   161   ar
    77    51    48    1
    78    51    52    1
    79    48    47    1
    80   182   183    2
    81   167   168    1
    82   167   166    1
    83    54    53   ar
    84    60    61    1
    85   195   194    2
    86   163   166    1
    87   163   162    1
    88   194   193    1
    89   105   104    1
    90   105   106    1
    91    52    53    1
    92    53    55   ar
    93   192   193    1
    94    65    66    1
    95    65    64    1
    96    65    67    1
    97    61    64    1
    98    61    62    1
    99    62    63    2
   100   106   107    2
   101   106   108   am
   102    46    44   ar
   103   108   109    1
   104   103   102    1
   105   102   101    1
   106    44    43    1
   107    44    45   ar
   108   141   140    2
   109   109   110    1
   110   109   112    1
   111   149   151   ar
   112   149   147   ar
   113    43    40    1
   114   111   110    2
   115    42    41    2
   116   151   150   ar
   117   101   100    1
   118   146   147   ar
   119   146   144   ar
   120   147   145   ar
   121   112   113    1
   122   140   139    1
   123   115   113   am
   124   150   148   ar
   125   144   143   ar
   126    41    40    1
   127    99   100    1
   128    99    96    1
   129    40    39    1
   130   145   148   ar
   131   145   143   ar
   132   113   114    2
   133   125   124    1
   134    75    73   ar
   135   143   142    1
   136   139   142    1
   137   139   138    1
   138    98    97    2
   139   136   135    1
   140   126   124    1
   141    97    96    1
   142   124   123    2
   143    96    95    1
   144    81    80    1
   145    73    74   ar
   146    73    72    1
   147    95    91   am
   148    94    93    1
   149   137   135    1
   150    93    90    1
   151   135   134    2
   152    86    87    1
   153    86    83    1
   154    87    88    1
   155    80    77    1
   156    72    69    1
   157   123   122    1
   158    91    90    1
   159    91    92    2
   160    90    89    1
   161   122   121    1
   162   134   133    1
   163    85    84    2
   164   133   132    1
   165    83    84    1
   166    83    82    1
   167    76    77    1
   168    76    70   am
   169    88    82    1
   170    77    78    1
   171    69    70    1
   172    69    68    1
   173    70    71    2
   174   121   120    1
   175   132   131    1
   176    78    79    2
   177   120   117    1
   178   131   128    1
   179   117   116    1
   180   117   118    1
   181   128   129    1
   182   128   127    1
   183   130   129    2
   184   118   119    2
