@<TRIPOS>MOLECULE
tmp/5o5yB00.pdb
 123 111 0 0 0
SMALL
GASTEIGER

@<TRIPOS>ATOM
      1  N        103.3860  121.0800  143.9520 N.3    36  ASN36      -0.1240
      2  CA       104.0020  121.5090  145.2120 C.3    36  ASN36       0.1653
      3  C        103.5170  122.8960  145.6250 C.2    36  ASN36       0.2266
      4  O        103.8230  123.8990  144.9690 O.2    36  ASN36      -0.2867
      5  CB       105.5360  121.4630  145.1560 C.3    36  ASN36       0.1155
      6  CG       106.1350  122.1350  143.9180 C.2    36  ASN36       0.2627
      7  OD1      105.5210  122.1930  142.8450 O.2    36  ASN36      -0.2716
      8  ND2      107.3720  122.6380  144.0710 N.am   36  ASN36      -0.0877
      9  N        105.7230  129.7280  152.6770 N.3    40  ASP40      -0.1239
     10  CA       107.0710  130.2870  152.6610 C.3    40  ASP40       0.1674
     11  C        107.1330  131.3380  153.7690 C.2    40  ASP40       0.2266
     12  O        106.4400  132.3560  153.6990 O.2    40  ASP40      -0.2867
     13  CB       107.4130  130.9040  151.3010 C.3    40  ASP40       0.1410
     14  CG       108.0990  129.9110  150.3180 C.2    40  ASP40       0.3668
     15  OD1      108.1660  128.6820  150.5630 O.co2  40  ASP40      -0.2456
     16  OD2      108.5640  130.3780  149.2590 O.co2  40  ASP40      -0.2456
     17  N        118.8270  124.7870  149.3290 N.3    94  GLU94      -0.1245
     18  CA       117.6640  124.2990  150.0690 C.3    94  GLU94       0.1567
     19  C        118.0200  122.9590  150.6970 C.2    94  GLU94       0.2260
     20  O        118.3290  121.9960  149.9840 O.2    94  GLU94      -0.2867
     21  CB       116.4370  124.1640  149.1540 C.3    94  GLU94       0.0388
     22  CG       115.2230  123.4990  149.8110 C.3    94  GLU94       0.1160
     23  CD       113.9540  123.5940  148.9670 C.2    94  GLU94       0.3649
     24  OE1      113.9460  124.3020  147.9390 O.co2  94  GLU94      -0.2457
     25  OE2      112.9530  122.9560  149.3370 O.co2  94  GLU94      -0.2457
     26  N        104.1270  129.5780  148.9590 N.3   117  GLY117     -0.1210
     27  CA       105.3670  128.9750  148.5140 C.3   117  GLY117      0.1956
     28  C        105.1250  127.7350  147.6710 C.2   117  GLY117      0.2612
     29  O        104.0020  127.2430  147.5460 O.2   117  GLY117     -0.2717
     30  N        106.2060  127.2320  147.1050 N.am  118  GLY118     -0.1942
     31  CA       106.0990  126.1130  146.1890 C.3   118  GLY118      0.2014
     32  C        105.8800  126.5930  144.7720 C.2   118  GLY118      0.2638
     33  O        105.2970  127.6440  144.5270 O.2   118  GLY118     -0.2714
     34  N        106.3910  125.8200  143.8160 N.am  119  GLN119     -0.1977
     35  CA       106.2840  126.2400  142.4190 C.3   119  GLN119      0.1601
     36  C        104.8250  126.3740  141.9890 C.2   119  GLN119      0.2287
     37  O        104.4370  127.3800  141.3890 O.2   119  GLN119     -0.2864
     38  CB       107.0320  125.2610  141.5270 C.3   119  GLN119      0.0394
     39  CG       108.5330  125.2560  141.7830 C.3   119  GLN119      0.0908
     40  CD       109.1830  123.9860  141.2800 C.2   119  GLN119      0.2608
     41  OE1      109.1800  122.9670  141.9710 O.2   119  GLN119     -0.2717
     42  NE2      109.7320  124.0320  140.0680 N.am  119  GLN119     -0.0878
     43  N        103.0430  129.4330  144.0920 N.3   122  ILE122     -0.1245
     44  CA       103.3950  130.7600  143.5930 C.3   122  ILE122      0.1561
     45  C        102.7630  131.0040  142.2220 C.2   122  ILE122      0.2260
     46  O        102.2820  132.1060  141.9260 O.2   122  ILE122     -0.2867
     47  CB       104.9270  130.9090  143.5570 C.3   122  ILE122      0.0252
     48  CG1      105.4880  130.8680  144.9870 C.3   122  ILE122      0.0019
     49  CG2      105.3600  132.1780  142.8150 C.3   122  ILE122      0.0019
     50  CD1      107.0110  130.7710  145.0260 C.3   122  ILE122      0.0001
     51  N        108.4170  126.3420  154.7670 N.3   182  HIS182     -0.1241
     52  CA       109.7820  126.4540  154.2820 C.3   182  HIS182      0.1621
     53  C        110.2850  127.7950  154.7740 C.2   182  HIS182      0.2264
     54  O        109.6740  128.8220  154.4800 O.2   182  HIS182     -0.2867
     55  CB       109.8650  126.3820  152.7500 C.3   182  HIS182      0.0745
     56  CG       109.2760  125.1370  152.1590 C.ar  182  HIS182      0.0817
     57  ND1      109.5110  124.7570  150.8550 N.ar  182  HIS182     -0.2268
     58  CD2      108.4670  124.1870  152.6870 C.ar  182  HIS182      0.1154
     59  CE1      108.8590  123.6360  150.5990 C.ar  182  HIS182      0.1986
     60  NE2      108.2220  123.2650  151.6950 N.ar  182  HIS182     -0.2212
     61  N        112.7280  130.7560  154.5940 N.3   184  ILE184     -0.1245
     62  CA       113.5600  131.3570  153.5570 C.3   184  ILE184      0.1561
     63  C        114.3650  132.4710  154.2010 C.2   184  ILE184      0.2260
     64  O        113.7890  133.4030  154.7750 O.2   184  ILE184     -0.2867
     65  CB       112.7270  131.9090  152.3850 C.3   184  ILE184      0.0252
     66  CG1      112.2310  130.7950  151.4610 C.3   184  ILE184      0.0019
     67  CG2      113.5570  132.8710  151.5470 C.3   184  ILE184      0.0019
     68  CD1      111.0890  130.0380  151.9790 C.3   184  ILE184      0.0001
     69  N        119.2350  133.2990  148.7340 N.3   203  ARG203     -0.1245
     70  CA       118.4890  132.8540  149.8970 C.3   203  ARG203      0.1563
     71  C        118.7800  131.3890  150.1770 C.2   203  ARG203      0.2260
     72  O        119.0060  130.5900  149.2620 O.2   203  ARG203     -0.2867
     73  CB       116.9750  133.0710  149.7170 C.3   203  ARG203      0.0307
     74  CG       116.2450  131.9710  148.9360 C.3   203  ARG203      0.0489
     75  CD       116.7170  131.8610  147.4930 C.3   203  ARG203      0.2205
     76  NE       115.8990  130.9480  146.6920 N.pl3 203  ARG203     -0.0865
     77  CZ       116.0600  129.6260  146.6590 C.cat 203  ARG203      0.5346
     78  NH1      116.9940  129.0410  147.4060 N.pl3 203  ARG203      0.1354
     79  NH2      115.2720  128.8790  145.8950 N.pl3 203  ARG203      0.1354
     80  N        117.0210  128.0780  151.9760 N.3   205  ILE205     -0.1245
     81  CA       115.7020  127.5810  152.3540 C.3   205  ILE205      0.1561
     82  C        115.8920  126.3880  153.2760 C.2   205  ILE205      0.2260
     83  O        116.5530  125.4110  152.9050 O.2   205  ILE205     -0.2867
     84  CB       114.8560  127.2060  151.1290 C.3   205  ILE205      0.0252
     85  CG1      114.6560  128.4410  150.2460 C.3   205  ILE205      0.0019
     86  CG2      113.4990  126.6080  151.5910 C.3   205  ILE205      0.0019
     87  CD1      113.9110  128.1760  148.9400 C.3   205  ILE205      0.0001
     88  N        113.8340  123.5150  154.7050 N.3   207  ASN207     -0.1240
     89  CA       112.5920  122.8800  154.2730 C.3   207  ASN207      0.1653
     90  C        112.1010  121.9320  155.3670 C.2   207  ASN207      0.2266
     91  O        112.7140  120.8900  155.6190 O.2   207  ASN207     -0.2867
     92  CB       112.8370  122.1620  152.9410 C.3   207  ASN207      0.1155
     93  CG       111.5770  121.6150  152.3160 C.2   207  ASN207      0.2627
     94  OD1      110.7350  121.0470  152.9950 O.2   207  ASN207     -0.2716
     95  ND2      111.4530  121.7660  150.9980 N.am  207  ASN207     -0.0877
     96  N        111.2510  116.8450  141.0670 N.3   241  GLN241     -0.1245
     97  CA       112.6990  116.7320  141.2050 C.3   241  GLN241      0.1566
     98  C        113.1300  116.0640  142.5140 C.2   241  GLN241      0.2260
     99  O        114.2790  115.6210  142.6160 O.2   241  GLN241     -0.2867
    100  CB       113.3300  118.1230  141.0850 C.3   241  GLN241      0.0367
    101  CG       112.9650  119.1070  142.2050 C.3   241  GLN241      0.0905
    102  CD       111.7410  119.9600  141.8460 C.2   241  GLN241      0.2608
    103  OE1      110.9380  119.5770  140.9940 O.2   241  GLN241     -0.2717
    104  NE2      111.6100  121.1190  142.4840 N.am  241  GLN241     -0.0878
    105  N        113.1140  134.6470  145.3510 N.3   381  VAL381     -0.1231
    106  CA       112.3150  133.4260  145.3930 C.3   381  VAL381      0.1692
    107  C        111.1730  133.5520  144.3980 C.2   381  VAL381      0.2592
    108  O        110.5340  134.6060  144.3080 O.2   381  VAL381     -0.2718
    109  CB       111.7560  133.1450  146.8030 C.3   381  VAL381      0.0266
    110  CG1      110.8370  131.9290  146.7800 C.3   381  VAL381      0.0020
    111  CG2      112.8710  132.9330  147.7890 C.3   381  VAL381      0.0020
    112  N        110.9120  132.4720  143.6580 N.am  382  GLY382     -0.1957
    113  CA       109.7910  132.4230  142.7370 C.3   382  GLY382      0.1869
    114  C        109.9930  133.1410  141.4250 C.2   382  GLY382      0.2309
    115  O        109.0290  133.2880  140.6580 O.2   382  GLY382     -0.2863
    116  N        109.5820  130.5680  138.6400 N.3   385  ASP385     -0.1239
    117  CA       108.1650  130.2160  138.5240 C.3   385  ASP385      0.1674
    118  C        107.4070  131.2600  137.7100 C.2   385  ASP385      0.2266
    119  O        106.4860  130.9280  136.9490 O.2   385  ASP385     -0.2867
    120  CB       107.5310  130.0810  139.9130 C.3   385  ASP385      0.1410
    121  CG       108.2820  129.1130  140.8220 C.2   385  ASP385      0.3668
    122  OD1      108.9610  128.1960  140.3080 O.co2 385  ASP385     -0.2456
    123  OD2      108.1960  129.2790  142.0650 O.co2 385  ASP385     -0.2456
@<TRIPOS>BOND
     1   119   118    2
     2   118   117    1
     3   117   116    1
     4   117   120    1
     5   120   121    1
     6    42    40   am
     7   122   121   ar
     8   115   114    2
     9   121   123   ar
    10   103   102    2
    11    96    97    1
    12   100    97    1
    13   100   101    1
    14    97    98    1
    15    40    39    1
    16    40    41    2
    17    37    36    2
    18   114   113    1
    19    38    39    1
    20    38    35    1
    21   102   101    1
    22   102   104   am
    23    46    45    2
    24    36    35    1
    25    45    44    1
    26    35    34    1
    27    98    99    2
    28   113   112    1
    29    49    47    1
    30     7     6    2
    31    47    44    1
    32    47    48    1
    33    44    43    1
    34   112   107   am
    35    34    32   am
    36     6     8   am
    37     6     5    1
    38     1     2    1
    39   108   107    2
    40   107   106    1
    41    33    32    2
    42    32    31    1
    43     4     3    2
    44    48    50    1
    45     5     2    1
    46     2     3    1
    47   105   106    1
    48   106   109    1
    49    79    77    1
    50    31    30    1
    51    77    76    2
    52    77    78    1
    53    76    75    1
    54   110   109    1
    55   109   111    1
    56    30    28   am
    57    75    74    1
    58    29    28    2
    59    28    27    1
    60    24    23   ar
    61    27    26    1
    62    69    70    1
    63    74    73    1
    64    87    85    1
    65    23    25   ar
    66    23    22    1
    67    21    22    1
    68    21    18    1
    69    16    14   ar
    70    72    71    2
    71    17    18    1
    72    73    70    1
    73    70    71    1
    74    20    19    2
    75    18    19    1
    76    85    84    1
    77    14    15   ar
    78    14    13    1
    79    59    57   ar
    80    59    60   ar
    81    57    56   ar
    82    95    93   am
    83    84    86    1
    84    84    81    1
    85    13    10    1
    86    66    68    1
    87    66    65    1
    88    67    65    1
    89    60    58   ar
    90    80    81    1
    91    56    58   ar
    92    56    55    1
    93    93    92    1
    94    93    94    2
    95    81    82    1
    96    65    62    1
    97    10     9    1
    98    10    11    1
    99    55    52    1
   100    83    82    2
   101    92    89    1
   102    62    63    1
   103    62    61    1
   104    12    11    2
   105    63    64    2
   106    89    88    1
   107    89    90    1
   108    52    51    1
   109    52    53    1
   110    54    53    2
   111    90    91    2
