@<TRIPOS>MOLECULE
tmp/5o65A02.pdb
 115 116 0 0 0
SMALL
GASTEIGER

@<TRIPOS>ATOM
      1  N         50.1670  113.5380   -3.1590 N.3    21  PHE21      -0.1227
      2  CA        48.7750  113.3070   -2.7980 C.3    21  PHE21       0.1736
      3  C         48.3030  111.8890   -2.9590 C.2    21  PHE21       0.2596
      4  O         48.5720  111.2700   -3.9610 O.2    21  PHE21      -0.2718
      5  CB        47.8970  114.1480   -3.6840 C.3    21  PHE21       0.0547
      6  CG        47.9840  115.5960   -3.3870 C.ar   21  PHE21      -0.0202
      7  CD1       47.4400  116.1060   -2.2070 C.ar   21  PHE21      -0.0042
      8  CD2       48.6100  116.4580   -4.2780 C.ar   21  PHE21      -0.0042
      9  CE1       47.5380  117.4560   -1.9090 C.ar   21  PHE21      -0.0003
     10  CE2       48.7110  117.8080   -3.9960 C.ar   21  PHE21      -0.0003
     11  CZ        48.1730  118.3100   -2.8080 C.ar   21  PHE21      -0.0000
     12  N         47.5210  111.4280   -1.9920 N.am   22  SER22      -0.1938
     13  CA        46.8270  110.1620   -2.1210 C.3    22  SER22       0.2055
     14  C         45.4300  110.2290   -1.5710 C.2    22  SER22       0.2643
     15  O         45.0980  111.0510   -0.7080 O.2    22  SER22      -0.2714
     16  CB        47.5830  109.0270   -1.4500 C.3    22  SER22       0.2130
     17  OG        47.8650  109.3130   -0.1130 O.3    22  SER22      -0.2179
     18  N         44.5910  109.3900   -2.1480 N.am   23  PHE23      -0.1973
     19  CA        43.2220  109.2010   -1.6800 C.3    23  PHE23       0.1639
     20  C         42.9680  107.7140   -1.5280 C.2    23  PHE23       0.2290
     21  O         43.0870  106.9560   -2.4780 O.2    23  PHE23      -0.2864
     22  CB        42.1810  109.7760   -2.6360 C.3    23  PHE23       0.0560
     23  CG        40.8030  109.8440   -2.0430 C.ar   23  PHE23      -0.0200
     24  CD1       40.4580  110.8860   -1.1890 C.ar   23  PHE23      -0.0042
     25  CD2       39.8460  108.8920   -2.3450 C.ar   23  PHE23      -0.0042
     26  CE1       39.1890  110.9580   -0.6260 C.ar   23  PHE23      -0.0003
     27  CE2       38.5680  108.9620   -1.7990 C.ar   23  PHE23      -0.0003
     28  CZ        38.2370  109.9840   -0.9340 C.ar   23  PHE23      -0.0000
     29  N         41.9780  111.3060    2.7260 N.3    47  GLY47      -0.1210
     30  CA        42.8430  112.1150    1.8500 C.3    47  GLY47       0.1956
     31  C         44.1410  112.4260    2.5440 C.2    47  GLY47       0.2612
     32  O         44.1470  112.6740    3.7290 O.2    47  GLY47      -0.2717
     33  N         45.2330  112.3520    1.8120 N.am   48  ARG48      -0.1965
     34  CA        46.5330  112.5620    2.3920 C.3    48  ARG48       0.1729
     35  C         47.3930  113.4760    1.5160 C.2    48  ARG48       0.2616
     36  O         47.4170  113.3270    0.2930 O.2    48  ARG48      -0.2715
     37  CB        47.2610  111.2340    2.5340 C.3    48  ARG48       0.0348
     38  CG        46.5930  110.2210    3.4230 C.3    48  ARG48       0.0492
     39  CD        47.4540  108.9700    3.5310 C.3    48  ARG48       0.2205
     40  NE        46.8910  108.0380    4.5080 N.pl3  48  ARG48      -0.0865
     41  CZ        46.1150  106.9860    4.2470 C.cat  48  ARG48       0.5346
     42  NH1       45.7980  106.6330    3.0060 N.pl3  48  ARG48       0.1354
     43  NH2       45.6740  106.2460    5.2600 N.pl3  48  ARG48       0.1354
     44  N         48.1240  114.3600    2.1830 N.am   49  TYR49      -0.1974
     45  CA        49.1360  115.1880    1.5610 C.3    49  TYR49       0.1639
     46  C         50.4650  114.8880    2.2490 C.2    49  TYR49       0.2290
     47  O         50.6540  115.0800    3.4410 O.2    49  TYR49      -0.2864
     48  CB        48.7570  116.6890    1.6600 C.3    49  TYR49       0.0560
     49  CG        49.8550  117.7240    1.3780 C.ar   49  TYR49      -0.0198
     50  CD1       50.8450  117.4910    0.4320 C.ar   49  TYR49      -0.0009
     51  CD2       49.9070  118.9370    2.0930 C.ar   49  TYR49      -0.0009
     52  CE1       51.8650  118.4090    0.2050 C.ar   49  TYR49       0.0417
     53  CE2       50.9000  119.8730    1.8570 C.ar   49  TYR49       0.0417
     54  CZ        51.8800  119.6070    0.9160 C.ar   49  TYR49       0.1957
     55  OH        52.8770  120.5390    0.6820 O.3    49  TYR49      -0.2866
     56  N         49.8500  115.1190    6.2100 N.3    57  PHE57      -0.1227
     57  CA        48.5970  115.6990    6.7000 C.3    57  PHE57       0.1736
     58  C         47.4690  114.8930    6.0840 C.2    57  PHE57       0.2595
     59  O         47.5250  114.5340    4.9020 O.2    57  PHE57      -0.2718
     60  CB        48.5060  117.1850    6.3240 C.3    57  PHE57       0.0547
     61  CG        49.7980  117.9450    6.5750 C.ar   57  PHE57      -0.0202
     62  CD1       50.1040  118.4420    7.8400 C.ar   57  PHE57      -0.0042
     63  CD2       50.7650  118.0610    5.5800 C.ar   57  PHE57      -0.0042
     64  CE1       51.3210  119.0940    8.0790 C.ar   57  PHE57      -0.0003
     65  CE2       51.9740  118.6940    5.8180 C.ar   57  PHE57      -0.0003
     66  CZ        52.2580  119.2140    7.0690 C.ar   57  PHE57      -0.0000
     67  N         46.4930  114.5120    6.8980 N.am   58  ASP58      -0.1960
     68  CA        45.4060  113.6720    6.3870 C.3    58  ASP58       0.1840
     69  C         44.1010  114.0050    7.0170 C.2    58  ASP58       0.2621
     70  O         44.0640  114.5160    8.1010 O.2    58  ASP58      -0.2715
     71  CB        45.7190  112.1680    6.5360 C.3    58  ASP58       0.1450
     72  CG        45.4200  111.6190    7.9350 C.2    58  ASP58       0.3671
     73  OD1       44.2310  111.3300    8.2480 O.co2  58  ASP58      -0.2456
     74  OD2       46.3690  111.4060    8.7040 O.co2  58  ASP58      -0.2456
     75  N         43.0320  113.6940    6.3180 N.am   59  VAL59      -0.1977
     76  CA        41.6870  113.7910    6.8660 C.3    59  VAL59       0.1596
     77  C         40.9650  112.4900    6.5060 C.2    59  VAL59       0.2287
     78  O         41.0850  111.9910    5.3740 O.2    59  VAL59      -0.2864
     79  CB        40.9120  115.0150    6.2930 C.3    59  VAL59       0.0276
     80  CG1       39.5260  115.1330    6.9040 C.3    59  VAL59       0.0022
     81  CG2       41.6400  116.3120    6.5980 C.3    59  VAL59       0.0022
     82  N         41.3430  114.0560   11.7410 N.3    86  PHE86      -0.1227
     83  CA        42.4930  114.4150   10.9380 C.3    86  PHE86       0.1736
     84  C         43.7620  114.0960   11.6960 C.2    86  PHE86       0.2596
     85  O         43.7730  114.0280   12.9250 O.2    86  PHE86      -0.2718
     86  CB        42.4410  115.9080   10.5110 C.3    86  PHE86       0.0547
     87  CG        42.9070  116.8640   11.5610 C.ar   86  PHE86      -0.0202
     88  CD1       44.2600  117.2030   11.6700 C.ar   86  PHE86      -0.0042
     89  CD2       42.0000  117.4280   12.4390 C.ar   86  PHE86      -0.0042
     90  CE1       44.7020  118.0810   12.6510 C.ar   86  PHE86      -0.0003
     91  CE2       42.4250  118.3170   13.4210 C.ar   86  PHE86      -0.0003
     92  CZ        43.7810  118.6390   13.5290 C.ar   86  PHE86      -0.0000
     93  N         44.8510  113.9970   10.9590 N.am   87  GLY87      -0.1942
     94  CA        46.1180  113.6470   11.5620 C.3    87  GLY87       0.2014
     95  C         47.2940  114.3590   10.9810 C.2    87  GLY87       0.2638
     96  O         47.3280  114.6850    9.7910 O.2    87  GLY87      -0.2714
     97  N         48.2640  114.5770   11.8400 N.am   88  ILE88      -0.1977
     98  CA        49.5560  115.1090   11.4250 C.3    88  ILE88       0.1596
     99  C         50.6020  114.0940   11.8190 C.2    88  ILE88       0.2287
    100  O         50.5650  113.5750   12.9360 O.2    88  ILE88      -0.2864
    101  CB        49.8490  116.4610   12.1110 C.3    88  ILE88       0.0276
    102  CG1       48.7530  117.4610   11.7240 C.3    88  ILE88       0.0022
    103  CG2       51.2210  117.0010   11.6980 C.3    88  ILE88       0.0022
    104  CD1       48.8350  118.7800   12.4520 C.3    88  ILE88       0.0001
    105  N         48.0980  109.9730   -6.7070 N.3   270  PHE270     -0.1241
    106  CA        47.9450  110.8470   -7.9100 C.3   270  PHE270      0.1605
    107  C         49.2470  111.1930   -8.5850 C.2   270  PHE270      0.2264
    108  O         50.2900  111.0710   -7.9610 O.2   270  PHE270     -0.2867
    109  CB        47.3070  112.1500   -7.5300 C.3   270  PHE270      0.0534
    110  CG        45.9510  111.9780   -6.9980 C.ar  270  PHE270     -0.0203
    111  CD1       44.8630  111.9050   -7.8400 C.ar  270  PHE270     -0.0042
    112  CD2       45.7570  111.8070   -5.6310 C.ar  270  PHE270     -0.0042
    113  CE1       43.5870  111.6910   -7.3230 C.ar  270  PHE270     -0.0003
    114  CE2       44.4930  111.6100   -5.1070 C.ar  270  PHE270     -0.0003
    115  CZ        43.4030  111.5490   -5.9530 C.ar  270  PHE270     -0.0000
@<TRIPOS>BOND
     1   107   108    2
     2   107   106    1
     3   106   109    1
     4   106   105    1
     5   111   113   ar
     6   111   110   ar
     7   109   110    1
     8   113   115   ar
     9   110   112   ar
    10   115   114   ar
    11   112   114   ar
    12     8    10   ar
    13     8     6   ar
    14    10    11   ar
    15     4     3    2
    16     5     6    1
    17     5     2    1
    18     6     7   ar
    19     1     2    1
    20     3     2    1
    21     3    12   am
    22    11     9   ar
    23    22    23    1
    24    22    19    1
    25    21    20    2
    26    25    23   ar
    27    25    27   ar
    28     7     9   ar
    29    18    19    1
    30    18    14   am
    31    13    12    1
    32    13    14    1
    33    13    16    1
    34    23    24   ar
    35    27    28   ar
    36    19    20    1
    37    14    15    2
    38    16    17    1
    39    24    26   ar
    40    28    26   ar
    41    52    50   ar
    42    52    54   ar
    43    36    35    2
    44    50    49   ar
    45    55    54    1
    46    54    53   ar
    47    49    48    1
    48    49    51   ar
    49    35    44   am
    50    35    34    1
    51    45    48    1
    52    45    44    1
    53    45    46    1
    54    33    34    1
    55    33    31   am
    56    30    31    1
    57    30    29    1
    58    53    51   ar
    59    46    47    2
    60    34    37    1
    61    37    38    1
    62    31    32    2
    63    42    41    1
    64    38    39    1
    65    39    40    1
    66    41    40    2
    67    41    43    1
    68    59    58    2
    69    78    77    2
    70    63    65   ar
    71    63    61   ar
    72    65    66   ar
    73    58    57    1
    74    58    67   am
    75    56    57    1
    76    79    81    1
    77    79    76    1
    78    79    80    1
    79    75    76    1
    80    75    69   am
    81    60    61    1
    82    60    57    1
    83    68    71    1
    84    68    67    1
    85    68    69    1
    86    77    76    1
    87    71    72    1
    88    61    62   ar
    89    69    70    2
    90    66    64   ar
    91    62    64   ar
    92    72    73   ar
    93    72    74   ar
    94    96    95    2
    95    86    83    1
    96    86    87    1
    97    83    84    1
    98    83    82    1
    99    93    94    1
   100    93    84   am
   101    95    94    1
   102    95    97   am
   103    98    99    1
   104    98    97    1
   105    98   101    1
   106    87    88   ar
   107    87    89   ar
   108    88    90   ar
   109    84    85    2
   110   103   101    1
   111   102   101    1
   112   102   104    1
   113    99   100    2
   114    89    91   ar
   115    90    92   ar
   116    91    92   ar
