@<TRIPOS>MOLECULE
tmp/5o65C00.pdb
 85 79 0 0 0
SMALL
GASTEIGER

@<TRIPOS>ATOM
      1  N         41.6830   57.8720  -11.3400 N.3    21  PHE21      -0.1241
      2  CA        40.8210   57.4410  -10.2200 C.3    21  PHE21       0.1605
      3  C         41.5460   57.5980   -8.8720 C.2    21  PHE21       0.2264
      4  O         42.7060   57.2130   -8.7030 O.2    21  PHE21      -0.2867
      5  CB        40.3270   56.0230  -10.3990 C.3    21  PHE21       0.0534
      6  CG        39.5540   55.5090   -9.2150 C.ar   21  PHE21      -0.0203
      7  CD1       38.2750   55.9810   -8.9710 C.ar   21  PHE21      -0.0042
      8  CD2       40.0980   54.5770   -8.3520 C.ar   21  PHE21      -0.0042
      9  CE1       37.5470   55.5100   -7.8840 C.ar   21  PHE21      -0.0003
     10  CE2       39.3830   54.1110   -7.2620 C.ar   21  PHE21      -0.0003
     11  CZ        38.1100   54.5770   -7.0210 C.ar   21  PHE21      -0.0000
     12  N         40.9670   57.6940   -4.4290 N.3    23  PHE23      -0.1241
     13  CA        40.1550   57.4720   -3.2250 C.3    23  PHE23       0.1605
     14  C         40.7560   58.2240   -2.0670 C.2    23  PHE23       0.2264
     15  O         41.9210   58.0420   -1.7420 O.2    23  PHE23      -0.2867
     16  CB        40.0770   56.0000   -2.8670 C.3    23  PHE23       0.0534
     17  CG        39.0460   55.6970   -1.8370 C.ar   23  PHE23      -0.0203
     18  CD1       37.6920   55.5860   -2.1980 C.ar   23  PHE23      -0.0042
     19  CD2       39.4080   55.5270   -0.5030 C.ar   23  PHE23      -0.0042
     20  CE1       36.7280   55.3040   -1.2320 C.ar   23  PHE23      -0.0003
     21  CE2       38.4530   55.2520    0.4710 C.ar   23  PHE23      -0.0003
     22  CZ        37.1040   55.1370    0.1090 C.ar   23  PHE23      -0.0000
     23  N         34.3400   60.3120    9.6380 N.3    43  LEU43      -0.1245
     24  CA        35.2250   59.6000    8.7050 C.3    43  LEU43       0.1561
     25  C         34.6330   59.7990    7.3140 C.2    43  LEU43       0.2260
     26  O         33.4570   59.5010    7.0870 O.2    43  LEU43      -0.2867
     27  CB        35.3530   58.1480    9.0550 C.3    43  LEU43       0.0270
     28  CG        36.0780   57.2410    8.0600 C.3    43  LEU43       0.0019
     29  CD1       37.5880   57.3740    8.1230 C.3    43  LEU43       0.0001
     30  CD2       35.6450   55.7770    8.3010 C.3    43  LEU43       0.0001
     31  N         34.6780   59.1780    3.2920 N.3    45  LEU45      -0.1245
     32  CA        35.1090   58.2300    2.2550 C.3    45  LEU45       0.1561
     33  C         34.6550   58.7620    0.9170 C.2    45  LEU45       0.2260
     34  O         33.4540   58.9550    0.6960 O.2    45  LEU45      -0.2867
     35  CB        34.4810   56.8730    2.5200 C.3    45  LEU45       0.0270
     36  CG        34.9010   56.2430    3.8600 C.3    45  LEU45       0.0019
     37  CD1       33.9280   55.1710    4.2510 C.3    45  LEU45       0.0001
     38  CD2       36.3230   55.6820    3.8520 C.3    45  LEU45       0.0001
     39  N         35.2700   58.8250   -3.3520 N.3    47  GLY47      -0.1225
     40  CA        35.8320   58.3120   -4.6100 C.3    47  GLY47       0.1811
     41  C         35.7370   59.3760   -5.6740 C.2    47  GLY47       0.2280
     42  O         34.7400   60.0550   -5.7840 O.2    47  GLY47      -0.2866
     43  N         31.7880   60.6040   -5.4870 N.3    59  VAL59      -0.1245
     44  CA        30.7620   60.3090   -4.4390 C.3    59  VAL59       0.1561
     45  C         31.4610   60.3730   -3.0970 C.2    59  VAL59       0.2260
     46  O         32.6010   59.8930   -2.9620 O.2    59  VAL59      -0.2867
     47  CB        30.0000   58.9600   -4.5550 C.3    59  VAL59       0.0252
     48  CG1       29.1770   58.9400   -5.8270 C.3    59  VAL59       0.0019
     49  CG2       30.9550   57.8010   -4.5720 C.3    59  VAL59       0.0019
     50  N         30.7940   59.4640    0.9910 N.3    61  VAL61      -0.1245
     51  CA        30.0210   58.8360    2.0730 C.3    61  VAL61       0.1561
     52  C         30.6490   59.2340    3.3970 C.2    61  VAL61       0.2260
     53  O         31.7550   58.7740    3.7330 O.2    61  VAL61      -0.2867
     54  CB        29.9910   57.3180    1.9690 C.3    61  VAL61       0.0252
     55  CG1       29.1260   56.7430    3.0830 C.3    61  VAL61       0.0019
     56  CG2       29.4290   56.8890    0.6120 C.3    61  VAL61       0.0019
     57  N         30.8290   59.0760    7.4110 N.3    63  VAL63      -0.1245
     58  CA        30.4650   58.2620    8.5600 C.3    63  VAL63       0.1561
     59  C         30.6780   59.0890    9.8370 C.2    63  VAL63       0.2260
     60  O         31.7980   59.4580   10.1670 O.2    63  VAL63      -0.2867
     61  CB        31.3030   56.9740    8.6260 C.3    63  VAL63       0.0252
     62  CG1       30.8530   56.1110    9.7990 C.3    63  VAL63       0.0019
     63  CG2       31.2010   56.2040    7.3090 C.3    63  VAL63       0.0019
     64  N         29.1870   55.0100   15.2770 N.3    80  PRO80      -0.2102
     65  CA        29.4030   55.2650   13.8320 C.3    80  PRO80       0.1504
     66  C         28.2290   54.8910   12.9100 C.2    80  PRO80       0.2576
     67  O         27.8140   53.7370   12.8660 O.2    80  PRO80      -0.2718
     68  CB        30.6420   54.4310   13.5120 C.3    80  PRO80       0.0282
     69  CG        31.4030   54.4500   14.8130 C.3    80  PRO80       0.0208
     70  CD        30.3410   54.3280   15.8750 C.3    80  PRO80       0.0893
     71  N         27.6920   55.8940   12.2360 N.am   81  THR81      -0.1939
     72  CA        26.5160   55.7590   11.3790 C.3    81  THR81       0.2028
     73  C         26.7160   56.6340   10.1550 C.2    81  THR81       0.2642
     74  O         27.3010   57.7080   10.2530 O.2    81  THR81      -0.2714
     75  CB        25.2600   56.2390   12.1050 C.3    81  THR81       0.1808
     76  OG1       25.1750   55.5890   13.3760 O.3    81  THR81      -0.2208
     77  CG2       23.9610   55.9820   11.2850 C.3    81  THR81       0.0379
     78  N         26.2270   56.1770    9.0120 N.am   82  ILE82      -0.1977
     79  CA        26.3330   56.9420    7.7980 C.3    82  ILE82       0.1596
     80  C         25.4930   58.1920    7.9090 C.2    82  ILE82       0.2287
     81  O         24.4030   58.2030    8.5440 O.2    82  ILE82      -0.2864
     82  CB        25.9840   56.0900    6.5600 C.3    82  ILE82       0.0276
     83  CG1       27.0000   54.9390    6.3930 C.3    82  ILE82       0.0022
     84  CG2       26.0110   56.9520    5.3120 C.3    82  ILE82       0.0022
     85  CD1       26.5140   53.8790    5.4210 C.3    82  ILE82       0.0001
@<TRIPOS>BOND
     1     1     2    1
     2     5     2    1
     3     5     6    1
     4     2     3    1
     5     6     7   ar
     6     6     8   ar
     7     7     9   ar
     8     3     4    2
     9     8    10   ar
    10     9    11   ar
    11    10    11   ar
    12    48    47    1
    13    42    41    2
    14    41    40    1
    15    43    44    1
    16    40    39    1
    17    49    47    1
    18    47    44    1
    19    44    45    1
    20    12    13    1
    21    13    16    1
    22    13    14    1
    23    45    46    2
    24    16    17    1
    25    18    17   ar
    26    18    20   ar
    27    14    15    2
    28    17    19   ar
    29    20    22   ar
    30    19    21   ar
    31    22    21   ar
    32    56    54    1
    33    34    33    2
    34    33    32    1
    35    50    51    1
    36    54    51    1
    37    54    55    1
    38    51    52    1
    39    32    35    1
    40    32    31    1
    41    35    36    1
    42    52    53    2
    43    38    36    1
    44    36    37    1
    45    84    82    1
    46    85    83    1
    47    83    82    1
    48    82    79    1
    49    26    25    2
    50    63    61    1
    51    25    24    1
    52    57    58    1
    53    79    80    1
    54    79    78    1
    55    80    81    2
    56    28    29    1
    57    28    30    1
    58    28    27    1
    59    58    61    1
    60    58    59    1
    61    61    62    1
    62    24    27    1
    63    24    23    1
    64    78    73   am
    65    59    60    2
    66    73    74    2
    67    73    72    1
    68    77    75    1
    69    72    75    1
    70    72    71    1
    71    75    76    1
    72    71    66   am
    73    67    66    2
    74    66    65    1
    75    68    65    1
    76    68    69    1
    77    65    64    1
    78    69    70    1
    79    64    70    1
