@<TRIPOS>MOLECULE
tmp/5o65B02.pdb
 147 138 0 0 0
SMALL
GASTEIGER

@<TRIPOS>ATOM
      1  N         60.9600   74.4840   19.3030 N.3    12  ALA12      -0.1231
      2  CA        60.0230   73.4110   18.9200 C.3    12  ALA12       0.1694
      3  C         60.1070   72.1340   19.7590 C.2    12  ALA12       0.2593
      4  O         59.1250   71.4270   19.9400 O.2    12  ALA12      -0.2718
      5  CB        60.2480   73.0420   17.4690 C.3    12  ALA12       0.0304
      6  N         61.3130   71.8210   20.2130 N.am   13  SER13      -0.1938
      7  CA        61.5910   70.5600   20.9610 C.3    13  SER13       0.2055
      8  C         61.5570   70.7340   22.4640 C.2    13  SER13       0.2643
      9  O         61.3030   69.8060   23.1900 O.2    13  SER13      -0.2714
     10  CB        62.9490   69.9680   20.5450 C.3    13  SER13       0.2130
     11  OG        64.0330   70.7690   20.9990 O.3    13  SER13      -0.2179
     12  N         61.8490   71.9320   22.9260 N.am   14  GLY14      -0.1954
     13  CA        62.0850   72.1510   24.3390 C.3    14  GLY14       0.1869
     14  C         63.4770   71.7200   24.7920 C.2    14  GLY14       0.2309
     15  O         63.7760   71.8240   25.9630 O.2    14  GLY14      -0.2863
     16  N         60.7440   62.9280   27.6260 N.3   119  SER119     -0.1217
     17  CA        60.9660   63.7860   28.7820 C.3   119  SER119      0.1889
     18  C         59.9960   63.4740   29.9090 C.2   119  SER119      0.2288
     19  O         58.9560   62.8970   29.6740 O.2   119  SER119     -0.2866
     20  CB        60.8550   65.2770   28.3800 C.3   119  SER119      0.2089
     21  OG        59.4980   65.6380   28.1430 O.3   119  SER119     -0.2183
     22  N         58.4340   65.5380   33.5180 N.3   121  ARG121     -0.1245
     23  CA        58.3720   66.7980   34.2470 C.3   121  ARG121      0.1563
     24  C         57.6370   66.5790   35.5490 C.2   121  ARG121      0.2260
     25  O         56.5210   66.0650   35.5620 O.2   121  ARG121     -0.2867
     26  CB        57.6870   67.8720   33.3960 C.3   121  ARG121      0.0307
     27  CG        57.6250   69.2180   34.0430 C.3   121  ARG121      0.0489
     28  CD        57.5940   70.2850   32.9100 C.3   121  ARG121      0.2205
     29  NE        58.6150   71.1470   33.3930 N.pl3 121  ARG121     -0.0865
     30  CZ        59.8860   71.1770   33.0240 C.cat 121  ARG121      0.5346
     31  NH1       60.3270   70.5460   31.9470 N.pl3 121  ARG121      0.1354
     32  NH2       60.6930   71.9820   33.7180 N.pl3 121  ARG121      0.1354
     33  N         56.5120   63.1420   28.3840 N.3   159  GLY159     -0.1210
     34  CA        56.2370   63.7760   27.1360 C.3   159  GLY159      0.1956
     35  C         57.1510   63.3350   26.0370 C.2   159  GLY159      0.2612
     36  O         58.2110   62.7760   26.2700 O.2   159  GLY159     -0.2717
     37  N         56.7270   63.6410   24.8180 N.am  160  LEU160     -0.1965
     38  CA        57.4400   63.2630   23.6070 C.3   160  LEU160      0.1728
     39  C         57.4490   64.4430   22.6510 C.2   160  LEU160      0.2616
     40  O         56.4460   65.0820   22.4360 O.2   160  LEU160     -0.2715
     41  CB        56.7610   62.0380   22.9760 C.3   160  LEU160      0.0311
     42  CG        57.2820   61.5910   21.6080 C.3   160  LEU160      0.0022
     43  CD1       58.7400   61.1540   21.6950 C.3   160  LEU160      0.0001
     44  CD2       56.4320   60.4540   21.0430 C.3   160  LEU160      0.0001
     45  N         58.5910   64.7140   22.0650 N.am  161  SER161     -0.1950
     46  CA        58.7380   65.7880   21.0940 C.3   161  SER161      0.1924
     47  C         59.4240   65.2510   19.8510 C.2   161  SER161      0.2314
     48  O         60.3410   64.4770   19.9610 O.2   161  SER161     -0.2863
     49  CB        59.5800   66.9050   21.6840 C.3   161  SER161      0.2116
     50  OG        60.3680   67.5200   20.6790 O.3   161  SER161     -0.2180
     51  N         54.3160   67.3110   19.2900 N.3   173  SER173     -0.1202
     52  CA        54.5860   66.9230   20.6590 C.3   173  SER173      0.2020
     53  C         53.3610   66.3930   21.3130 C.2   173  SER173      0.2619
     54  O         52.2350   66.7060   20.9260 O.2   173  SER173     -0.2717
     55  CB        55.1080   68.1170   21.4600 C.3   173  SER173      0.2103
     56  OG        54.0840   69.0900   21.5630 O.3   173  SER173     -0.2182
     57  N         53.5800   65.5920   22.3390 N.am  174  VAL174     -0.1965
     58  CA        52.4620   64.9800   23.0650 C.3   174  VAL174      0.1727
     59  C         52.8970   64.7160   24.4960 C.2   174  VAL174      0.2616
     60  O         54.0350   64.3400   24.7590 O.2   174  VAL174     -0.2715
     61  CB        51.9870   63.6930   22.3320 C.3   174  VAL174      0.0290
     62  CG1       53.1110   62.6740   22.2080 C.3   174  VAL174      0.0023
     63  CG2       50.8000   63.0580   23.0210 C.3   174  VAL174      0.0023
     64  N         51.9850   64.8870   25.4180 N.am  175  SER175     -0.1950
     65  CA        52.3040   64.6190   26.8020 C.3   175  SER175      0.1924
     66  C         51.0690   64.2690   27.5790 C.2   175  SER175      0.2314
     67  O         49.9490   64.4930   27.1520 O.2   175  SER175     -0.2863
     68  CB        53.0410   65.7890   27.4440 C.3   175  SER175      0.2116
     69  OG        52.2030   66.9040   27.5770 O.3   175  SER175     -0.2180
     70  N         47.7530   66.2460   26.3400 N.3   206  GLN206     -0.1231
     71  CA        48.1390   67.4210   25.5950 C.3   206  GLN206      0.1698
     72  C         48.8350   67.0140   24.3310 C.2   206  GLN206      0.2592
     73  O         49.6760   66.1410   24.3440 O.2   206  GLN206     -0.2718
     74  CB        49.1640   68.2460   26.3820 C.3   206  GLN206      0.0381
     75  CG        48.7140   68.8460   27.6950 C.3   206  GLN206      0.0905
     76  CD        48.7970   67.9620   28.9080 C.2   206  GLN206      0.2608
     77  OE1       47.8830   67.9630   29.7070 O.2   206  GLN206     -0.2717
     78  NE2       49.8710   67.2100   29.0660 N.am  206  GLN206     -0.0878
     79  N         48.5650   67.7180   23.2530 N.am  207  PHE207     -0.1962
     80  CA        49.3260   67.4980   22.0090 C.3   207  PHE207      0.1771
     81  C         49.3000   68.7250   21.1320 C.2   207  PHE207      0.2620
     82  O         48.4180   69.5610   21.2430 O.2   207  PHE207     -0.2715
     83  CB        48.7950   66.3040   21.2260 C.3   207  PHE207      0.0574
     84  CG        47.3300   66.3930   20.9410 C.ar  207  PHE207     -0.0200
     85  CD1       46.3930   66.0320   21.9170 C.ar  207  PHE207     -0.0042
     86  CD2       46.8860   66.8470   19.7170 C.ar  207  PHE207     -0.0042
     87  CE1       45.0290   66.1300   21.6690 C.ar  207  PHE207     -0.0003
     88  CE2       45.5290   66.9470   19.4530 C.ar  207  PHE207     -0.0003
     89  CZ        44.5960   66.5880   20.4280 C.ar  207  PHE207     -0.0000
     90  N         50.3150   68.8140   20.2920 N.am  208  GLY208     -0.1954
     91  CA        50.4630   69.9070   19.3560 C.3   208  GLY208      0.1869
     92  C         51.1810   69.4680   18.1010 C.2   208  GLY208      0.2309
     93  O         51.8880   68.4810   18.1120 O.2   208  GLY208     -0.2863
     94  N         47.6470   73.5550   19.2210 N.3   224  SER224     -0.1202
     95  CA        47.6820   72.5920   20.3080 C.3   224  SER224      0.2020
     96  C         46.3300   72.4450   20.9680 C.2   224  SER224      0.2619
     97  O         45.4990   73.3230   20.8950 O.2   224  SER224     -0.2717
     98  CB        48.7630   72.9710   21.3120 C.3   224  SER224      0.2103
     99  OG        48.3840   74.1160   22.0410 O.3   224  SER224     -0.2182
    100  N         46.1500   71.3090   21.6220 N.am  225  ASP225     -0.1959
    101  CA        44.9320   71.0210   22.3840 C.3   225  ASP225      0.1840
    102  C         45.2270   70.2630   23.6740 C.2   225  ASP225      0.2621
    103  O         45.9380   69.2700   23.6580 O.2   225  ASP225     -0.2715
    104  CB        43.9550   70.2170   21.5350 C.3   225  ASP225      0.1450
    105  CG        42.5320   70.2950   22.0480 C.2   225  ASP225      0.3671
    106  OD1       42.1150   71.3390   22.6090 O.co2 225  ASP225     -0.2456
    107  OD2       41.8130   69.2900   21.8900 O.co2 225  ASP225     -0.2456
    108  N         44.6720   70.7520   24.7680 N.am  226  LEU226     -0.1977
    109  CA        44.7640   70.1080   26.0760 C.3   226  LEU226      0.1596
    110  C         43.3610   69.5840   26.4770 C.2   226  LEU226      0.2287
    111  O         42.3960   70.3270   26.4670 O.2   226  LEU226     -0.2864
    112  CB        45.2850   71.0860   27.1080 C.3   226  LEU226      0.0297
    113  CG        45.5940   70.5370   28.5150 C.3   226  LEU226      0.0022
    114  CD1       46.7460   71.3170   29.1340 C.3   226  LEU226      0.0001
    115  CD2       44.4120   70.5700   29.4730 C.3   226  LEU226      0.0001
    116  N         44.5000   75.9490   21.3630 N.3   252  TYR252     -0.1241
    117  CA        45.2680   77.1390   21.0220 C.3   252  TYR252      0.1605
    118  C         45.7730   77.1210   19.5820 C.2   252  TYR252      0.2264
    119  O         46.1580   76.0730   19.0850 O.2   252  TYR252     -0.2867
    120  CB        46.4660   77.2480   21.9230 C.3   252  TYR252      0.0534
    121  CG        46.1420   77.3310   23.3870 C.ar  252  TYR252     -0.0201
    122  CD1       46.0080   76.1840   24.1620 C.ar  252  TYR252     -0.0009
    123  CD2       46.0060   78.5490   24.0120 C.ar  252  TYR252     -0.0009
    124  CE1       45.7460   76.2620   25.5200 C.ar  252  TYR252      0.0417
    125  CE2       45.7500   78.6410   25.3690 C.ar  252  TYR252      0.0417
    126  CZ        45.6210   77.5010   26.1240 C.ar  252  TYR252      0.1957
    127  OH        45.3730   77.6200   27.4800 O.3   252  TYR252     -0.2866
    128  N         48.8680   79.0650   17.6100 N.3   254  ASN254     -0.1240
    129  CA        50.0900   79.8050   17.9630 C.3   254  ASN254      0.1653
    130  C         50.8400   80.3050   16.7590 C.2   254  ASN254      0.2266
    131  O         51.1310   79.5580   15.8480 O.2   254  ASN254     -0.2867
    132  CB        51.1140   78.9920   18.7760 C.3   254  ASN254      0.1155
    133  CG        50.5180   78.3030   19.9660 C.2   254  ASN254      0.2627
    134  OD1       50.3040   78.9190   20.9990 O.2   254  ASN254     -0.2716
    135  ND2       50.2630   76.9870   19.8320 N.am  254  ASN254     -0.0877
    136  N         49.4680   83.1490   21.4770 N.3   271  ALA271     -0.1245
    137  CA        48.5930   81.9950   21.5260 C.3   271  ALA271      0.1562
    138  C         47.1640   82.4740   21.5820 C.2   271  ALA271      0.2260
    139  O         46.7240   83.0700   22.5690 O.2   271  ALA271     -0.2867
    140  CB        48.9140   81.1260   22.7400 C.3   271  ALA271      0.0290
    141  N         47.0980   84.9270   24.7050 N.3   281  THR281     -0.1218
    142  CA        48.2890   84.9150   25.5380 C.3   281  THR281      0.1862
    143  C         49.4570   85.4830   24.7360 C.2   281  THR281      0.2287
    144  O         49.7870   84.9520   23.6950 O.2   281  THR281     -0.2866
    145  CB        48.6160   83.4700   25.9760 C.3   281  THR281      0.1770
    146  OG1       47.5510   82.9820   26.7850 O.3   281  THR281     -0.2211
    147  CG2       49.9050   83.3910   26.7830 C.3   281  THR281      0.0375
@<TRIPOS>BOND
     1   131   130    2
     2   130   129    1
     3     5     2    1
     4   128   129    1
     5   129   132    1
     6    92    93    2
     7    92    91    1
     8   132   133    1
     9     2     1    1
    10     2     3    1
    11   119   118    2
    12    94    95    1
    13    51    52    1
    14    91    90    1
    15    88    86   ar
    16    88    89   ar
    17   118   117    1
    18    86    84   ar
    19     3     4    2
    20     3     6   am
    21   135   133   am
    22    47    48    2
    23    47    46    1
    24   133   134    2
    25     6     7    1
    26    90    81   am
    27    95    96    1
    28    95    98    1
    29    89    87   ar
    30    10     7    1
    31    10    11    1
    32    52    53    1
    33    52    55    1
    34    50    49    1
    35    97    96    2
    36    54    53    2
    37    84    83    1
    38    84    85   ar
    39     7     8    1
    40    96   100   am
    41   117   116    1
    42   117   120    1
    43    44    42    1
    44    46    49    1
    45    46    45    1
    46    81    82    2
    47    81    80    1
    48    83    80    1
    49    98    99    1
    50    53    57   am
    51    55    56    1
    52   136   137    1
    53   137   138    1
    54   137   140    1
    55   104   105    1
    56   104   101    1
    57   138   139    2
    58    42    43    1
    59    42    41    1
    60   100   101    1
    61    87    85   ar
    62   107   105   ar
    63   120   121    1
    64    80    79    1
    65   105   106   ar
    66    45    39   am
    67    62    61    1
    68    61    63    1
    69    61    58    1
    70    57    58    1
    71   101   102    1
    72    40    39    2
    73     8    12   am
    74     8     9    2
    75    39    38    1
    76    12    13    1
    77    41    38    1
    78    58    59    1
    79    79    72   am
    80   121   123   ar
    81   121   122   ar
    82    38    37    1
    83   103   102    2
    84   102   108   am
    85   144   143    2
    86   123   125   ar
    87   122   124   ar
    88    72    73    2
    89    72    71    1
    90    13    14    1
    91    59    60    2
    92    59    64   am
    93   141   142    1
    94   143   142    1
    95   108   109    1
    96    14    15    2
    97    37    35   am
    98   125   126   ar
    99    64    65    1
   100   124   126   ar
   101   142   145    1
   102    71    70    1
   103    71    74    1
   104   145   147    1
   105   145   146    1
   106    35    36    2
   107    35    34    1
   108   109   110    1
   109   109   112    1
   110   126   127    1
   111    74    75    1
   112   111   110    2
   113    65    68    1
   114    65    66    1
   115   112   113    1
   116    34    33    1
   117    67    66    2
   118    68    69    1
   119    16    17    1
   120    75    76    1
   121    21    20    1
   122    20    17    1
   123   113   114    1
   124   113   115    1
   125    17    18    1
   126    76    78   am
   127    76    77    2
   128    19    18    2
   129    31    30    1
   130    28    29    1
   131    28    27    1
   132    30    29    2
   133    30    32    1
   134    26    27    1
   135    26    23    1
   136    22    23    1
   137    23    24    1
   138    24    25    2
