@<TRIPOS>MOLECULE
tmp/5o65C06.pdb
 79 74 0 0 0
SMALL
GASTEIGER

@<TRIPOS>ATOM
      1  N         57.5340   68.8760   -2.4610 N.3   200  ARG200     -0.1245
      2  CA        56.5390   67.9760   -1.8420 C.3   200  ARG200      0.1563
      3  C         55.5120   68.6200   -0.9380 C.2   200  ARG200      0.2260
      4  O         54.5540   67.9700   -0.5430 O.2   200  ARG200     -0.2867
      5  CB        57.2880   66.8720   -1.0860 C.3   200  ARG200      0.0307
      6  CG        57.6460   65.6590   -1.9560 C.3   200  ARG200      0.0489
      7  CD        58.9730   64.9750   -1.6250 C.3   200  ARG200      0.2205
      8  NE        59.5210   65.3330   -0.3060 N.pl3 200  ARG200     -0.0865
      9  CZ        60.4860   66.2390   -0.0720 C.cat 200  ARG200      0.5346
     10  NH1       61.0690   66.9170   -1.0720 N.pl3 200  ARG200      0.1354
     11  NH2       60.8670   66.4840    1.1880 N.pl3 200  ARG200      0.1354
     12  N         44.1170   77.2670    8.2790 N.3   237  VAL237     -0.1231
     13  CA        45.5250   77.0770    8.0180 C.3   237  VAL237      0.1692
     14  C         45.7440   75.5890    7.7190 C.2   237  VAL237      0.2592
     15  O         45.3610   74.7220    8.4990 O.2   237  VAL237     -0.2718
     16  CB        46.3990   77.4740    9.2100 C.3   237  VAL237      0.0266
     17  CG1       47.8800   77.3730    8.8480 C.3   237  VAL237      0.0020
     18  CG2       46.0880   78.8900    9.6180 C.3   237  VAL237      0.0020
     19  N         46.3880   75.3160    6.5950 N.am  238  GLY238     -0.1957
     20  CA        46.5130   73.9450    6.1120 C.3   238  GLY238      0.1869
     21  C         47.7840   73.6550    5.3860 C.2   238  GLY238      0.2309
     22  O         48.4940   74.5670    4.9860 O.2   238  GLY238     -0.2863
     23  N         51.0710   67.5390    1.8610 N.3   240  ILE240     -0.1231
     24  CA        52.3670   66.8410    1.9510 C.3   240  ILE240      0.1692
     25  C         52.3460   65.5950    1.0660 C.2   240  ILE240      0.2592
     26  O         51.5710   64.6600    1.3160 O.2   240  ILE240     -0.2718
     27  CB        52.7090   66.4460    3.4100 C.3   240  ILE240      0.0266
     28  CG1       52.7750   67.7050    4.2670 C.3   240  ILE240      0.0019
     29  CG2       54.0490   65.7040    3.4750 C.3   240  ILE240      0.0020
     30  CD1       52.7520   67.4730    5.7430 C.3   240  ILE240      0.0001
     31  N         53.2070   65.5980    0.0600 N.am  241  ALA241     -0.1966
     32  CA        53.3270   64.4650   -0.8500 C.3   241  ALA241      0.1728
     33  C         54.1330   63.3470   -0.1930 C.2   241  ALA241      0.2616
     34  O         55.3650   63.4020   -0.1280 O.2   241  ALA241     -0.2715
     35  CB        53.9600   64.8880   -2.1640 C.3   241  ALA241      0.0334
     36  N         53.4110   62.3530    0.3190 N.am  242  ALA242     -0.1977
     37  CA        54.0250   61.1780    1.0060 C.3   242  ALA242      0.1597
     38  C         54.7060   60.2310    0.0350 C.2   242  ALA242      0.2287
     39  O         55.7020   59.6160    0.3500 O.2   242  ALA242     -0.2864
     40  CB        52.9890   60.4230    1.8210 C.3   242  ALA242      0.0319
     41  N         49.0560   63.6030    2.0960 N.3   248  ILE248     -0.1245
     42  CA        48.5310   63.8780    3.4630 C.3   248  ILE248      0.1561
     43  C         48.1470   65.3480    3.5430 C.2   248  ILE248      0.2260
     44  O         48.9650   66.2430    3.3060 O.2   248  ILE248     -0.2867
     45  CB        49.5790   63.5920    4.5540 C.3   248  ILE248      0.0252
     46  CG1       50.1370   62.1660    4.4020 C.3   248  ILE248      0.0019
     47  CG2       48.9820   63.7850    5.9450 C.3   248  ILE248      0.0019
     48  CD1       51.2530   61.8170    5.3640 C.3   248  ILE248      0.0001
     49  N         46.6900   67.9050    6.1910 N.3   250  PRO250     -0.2102
     50  CA        46.2210   68.3880    7.4950 C.3   250  PRO250      0.1504
     51  C         45.6670   69.7740    7.3830 C.2   250  PRO250      0.2576
     52  O         46.1980   70.6080    6.6480 O.2   250  PRO250     -0.2718
     53  CB        47.4770   68.3880    8.3400 C.3   250  PRO250      0.0282
     54  CG        48.5860   68.5830    7.3760 C.3   250  PRO250      0.0208
     55  CD        48.1510   68.0110    6.0620 C.3   250  PRO250      0.0893
     56  N         44.5600   70.0100    8.0750 N.am  251  ASN251     -0.1961
     57  CA        43.9450   71.3320    8.1210 C.3   251  ASN251      0.1819
     58  C         43.3600   71.6420    9.4790 C.2   251  ASN251      0.2621
     59  O         42.7580   70.7970   10.1140 O.2   251  ASN251     -0.2715
     60  CB        42.9050   71.4930    7.0060 C.3   251  ASN251      0.1195
     61  CG        42.4230   72.9400    6.8400 C.2   251  ASN251      0.2630
     62  OD1       43.0730   73.7720    6.1930 O.2   251  ASN251     -0.2716
     63  ND2       41.2910   73.2580    7.4570 N.am  251  ASN251     -0.0877
     64  N         43.5700   72.8810    9.9020 N.am  252  LEU252     -0.1977
     65  CA        42.9240   73.4920   11.0700 C.3   252  LEU252      0.1596
     66  C         41.9430   74.5770   10.6190 C.2   252  LEU252      0.2287
     67  O         42.3320   75.5040    9.9140 O.2   252  LEU252     -0.2864
     68  CB        43.9690   74.1500   11.9660 C.3   252  LEU252      0.0297
     69  CG        43.4610   75.0820   13.0560 C.3   252  LEU252      0.0022
     70  CD1       42.6370   74.3030   14.0640 C.3   252  LEU252      0.0001
     71  CD2       44.6120   75.7790   13.7560 C.3   252  LEU252      0.0001
     72  N         42.3720   65.5140    8.7940 N.3   266  LEU266     -0.1245
     73  CA        43.4940   64.8190    8.1580 C.3   266  LEU266      0.1561
     74  C         42.8980   64.0040    7.0210 C.2   266  LEU266      0.2260
     75  O         42.1260   63.0800    7.2520 O.2   266  LEU266     -0.2867
     76  CB        44.2130   63.9030    9.1400 C.3   266  LEU266      0.0270
     77  CG        45.5330   64.2830    9.8000 C.3   266  LEU266      0.0019
     78  CD1       46.0340   63.0960   10.6280 C.3   266  LEU266      0.0001
     79  CD2       46.5820   64.6940    8.7780 C.3   266  LEU266      0.0001
@<TRIPOS>BOND
     1     1     2    1
     2    35    32    1
     3     6     7    1
     4     6     5    1
     5     2     5    1
     6     2     3    1
     7     7     8    1
     8    10     9    1
     9     3     4    2
    10    32    33    1
    11    32    31    1
    12     8     9    2
    13    33    34    2
    14    33    36   am
    15     9    11    1
    16    38    39    2
    17    38    37    1
    18    31    25   am
    19    36    37    1
    20    37    40    1
    21    25    26    2
    22    25    24    1
    23    23    24    1
    24    24    27    1
    25    41    42    1
    26    44    43    2
    27    27    29    1
    28    27    28    1
    29    42    43    1
    30    42    45    1
    31    28    30    1
    32    46    45    1
    33    46    48    1
    34    45    47    1
    35    22    21    2
    36    21    20    1
    37    55    49    1
    38    55    54    1
    39    20    19    1
    40    49    50    1
    41    62    61    2
    42    19    14   am
    43    52    51    2
    44    61    60    1
    45    61    63   am
    46    60    57    1
    47    74    75    2
    48    74    73    1
    49    54    53    1
    50    51    50    1
    51    51    56   am
    52    50    53    1
    53    14    13    1
    54    14    15    2
    55    13    12    1
    56    13    16    1
    57    56    57    1
    58    57    58    1
    59    73    72    1
    60    73    76    1
    61    79    77    1
    62    17    16    1
    63    76    77    1
    64    16    18    1
    65    58    64   am
    66    58    59    2
    67    77    78    1
    68    64    65    1
    69    67    66    2
    70    66    65    1
    71    65    68    1
    72    68    69    1
    73    69    71    1
    74    69    70    1
