@<TRIPOS>MOLECULE
tmp/5o65B03.pdb
 83 82 0 0 0
SMALL
GASTEIGER

@<TRIPOS>ATOM
      1  N         62.3450   69.3650    6.4160 N.3   165  PHE165     -0.1241
      2  CA        62.0480   68.9920    5.0200 C.3   165  PHE165      0.1605
      3  C         62.1920   70.2920    4.2770 C.2   165  PHE165      0.2264
      4  O         61.2010   71.0040    4.0860 O.2   165  PHE165     -0.2867
      5  CB        60.6150   68.4690    4.8750 C.3   165  PHE165      0.0534
      6  CG        60.3460   67.2140    5.6330 C.ar  165  PHE165     -0.0203
      7  CD1       60.5550   65.9670    5.0500 C.ar  165  PHE165     -0.0042
      8  CD2       59.8720   67.2590    6.9410 C.ar  165  PHE165     -0.0042
      9  CE1       60.3090   64.7840    5.7730 C.ar  165  PHE165     -0.0003
     10  CE2       59.6070   66.0870    7.6630 C.ar  165  PHE165     -0.0003
     11  CZ        59.8280   64.8470    7.0790 C.ar  165  PHE165     -0.0000
     12  N         58.8970   70.5410   10.3340 N.3   170  LEU170     -0.1231
     13  CA        57.6840   70.0130   10.9510 C.3   170  LEU170      0.1693
     14  C         57.9860   69.5610   12.3500 C.2   170  LEU170      0.2592
     15  O         59.0480   69.0660   12.6190 O.2   170  LEU170     -0.2718
     16  CB        57.1270   68.8460   10.1570 C.3   170  LEU170      0.0284
     17  CG        56.8310   69.1570    8.6700 C.3   170  LEU170      0.0019
     18  CD1       56.2730   67.9210    7.9850 C.3   170  LEU170      0.0001
     19  CD2       55.8300   70.2930    8.5530 C.3   170  LEU170      0.0001
     20  N         57.0440   69.7610   13.2520 N.am  171  PHE171     -0.1976
     21  CA        57.2510   69.3530   14.6180 C.3   171  PHE171      0.1639
     22  C         55.9510   68.9740   15.2360 C.2   171  PHE171      0.2290
     23  O         54.8980   69.3420   14.7830 O.2   171  PHE171     -0.2864
     24  CB        57.9550   70.4180   15.4500 C.3   171  PHE171      0.0560
     25  CG        57.2250   71.7150   15.5260 C.ar  171  PHE171     -0.0200
     26  CD1       56.2760   71.9460   16.5020 C.ar  171  PHE171     -0.0042
     27  CD2       57.5130   72.7220   14.6410 C.ar  171  PHE171     -0.0042
     28  CE1       55.6020   73.1720   16.5670 C.ar  171  PHE171     -0.0003
     29  CE2       56.8520   73.9240   14.6900 C.ar  171  PHE171     -0.0003
     30  CZ        55.9040   74.1570   15.6580 C.ar  171  PHE171     -0.0000
     31  N         50.9500   70.1750   17.0070 N.3   209  VAL209     -0.1231
     32  CA        51.7210   69.9710   15.7550 C.3   209  VAL209      0.1692
     33  C         51.8920   71.3480   15.1540 C.2   209  VAL209      0.2593
     34  O         51.0850   72.2620   15.4070 O.2   209  VAL209     -0.2718
     35  CB        51.0690   69.0220   14.7110 C.3   209  VAL209      0.0266
     36  CG1       50.9340   67.6090   15.2230 C.3   209  VAL209      0.0020
     37  CG2       49.6920   69.5220   14.3110 C.3   209  VAL209      0.0020
     38  N         52.9300   71.5060   14.3680 N.am  210  GLY210     -0.1942
     39  CA        53.1850   72.7810   13.7560 C.3   210  GLY210      0.2014
     40  C         54.2450   72.7520   12.6920 C.2   210  GLY210      0.2638
     41  O         54.7980   71.7160   12.4290 O.2   210  GLY210     -0.2714
     42  N         54.4990   73.9160   12.0920 N.am  211  VAL211     -0.1977
     43  CA        55.5220   74.1060   11.0630 C.3   211  VAL211      0.1596
     44  C         56.2470   75.3270   11.4190 C.2   211  VAL211      0.2287
     45  O         55.6100   76.2980   11.7580 O.2   211  VAL211     -0.2864
     46  CB        55.0250   74.5820    9.6580 C.3   211  VAL211      0.0276
     47  CG1       55.8750   73.9940    8.5350 C.3   211  VAL211      0.0022
     48  CG2       53.5620   74.2840    9.4760 C.3   211  VAL211      0.0022
     49  N         54.2220   78.4010   13.0750 N.3   221  PHE221     -0.1227
     50  CA        52.7660   78.2690   13.1820 C.3   221  PHE221      0.1736
     51  C         52.4420   76.9090   13.7750 C.2   221  PHE221      0.2596
     52  O         52.8690   75.8990   13.2480 O.2   221  PHE221     -0.2718
     53  CB        52.0940   78.3360   11.8230 C.3   221  PHE221      0.0547
     54  CG        52.3760   79.5780   11.0700 C.ar  221  PHE221     -0.0202
     55  CD1       53.5390   79.6950   10.3240 C.ar  221  PHE221     -0.0042
     56  CD2       51.4590   80.6040   11.0470 C.ar  221  PHE221     -0.0042
     57  CE1       53.7950   80.8310    9.5770 C.ar  221  PHE221     -0.0003
     58  CE2       51.7120   81.7500   10.3240 C.ar  221  PHE221     -0.0003
     59  CZ        52.8870   81.8630    9.5740 C.ar  221  PHE221     -0.0000
     60  N         51.6320   76.8820   14.8180 N.am  222  SER222     -0.1938
     61  CA        51.2970   75.6300   15.4320 C.3   222  SER222      0.2055
     62  C         49.9040   75.6570   16.0220 C.2   222  SER222      0.2642
     63  O         49.2920   76.7040   16.1790 O.2   222  SER222     -0.2714
     64  CB        52.3180   75.2620   16.4930 C.3   222  SER222      0.2130
     65  OG        52.2410   76.1800   17.5600 O.3   222  SER222     -0.2179
     66  N         49.4180   74.4650   16.3060 N.am  223  VAL223     -0.1977
     67  CA        48.1510   74.3110   16.9790 C.3   223  VAL223      0.1596
     68  C         48.3870   73.3630   18.1420 C.2   223  VAL223      0.2287
     69  O         49.2200   72.4800   18.0660 O.2   223  VAL223     -0.2864
     70  CB        47.0370   73.8040   16.0470 C.3   223  VAL223      0.0276
     71  CG1       47.3590   72.4340   15.4430 C.3   223  VAL223      0.0022
     72  CG2       45.7050   73.7780   16.7650 C.3   223  VAL223      0.0022
     73  N         45.7720   78.2920   18.9360 N.3   253  PHE253     -0.1241
     74  CA        46.5000   78.5180   17.6840 C.3   253  PHE253      0.1605
     75  C         47.6690   79.4790   17.9500 C.2   253  PHE253      0.2264
     76  O         47.4750   80.5380   18.5200 O.2   253  PHE253     -0.2867
     77  CB        45.5840   79.1080   16.6220 C.3   253  PHE253      0.0534
     78  CG        46.2980   79.4130   15.3340 C.ar  253  PHE253     -0.0203
     79  CD1       46.8580   78.3890   14.5680 C.ar  253  PHE253     -0.0042
     80  CD2       46.4580   80.7310   14.9080 C.ar  253  PHE253     -0.0042
     81  CE1       47.5400   78.6660   13.4080 C.ar  253  PHE253     -0.0003
     82  CE2       47.1350   81.0180   13.7440 C.ar  253  PHE253     -0.0003
     83  CZ        47.6920   79.9880   12.9970 C.ar  253  PHE253     -0.0000
@<TRIPOS>BOND
     1     4     3    2
     2     3     2    1
     3     5     2    1
     4     5     6    1
     5     2     1    1
     6     7     6   ar
     7     7     9   ar
     8     6     8   ar
     9     9    11   ar
    10     8    10   ar
    11    11    10   ar
    12    18    17    1
    13    47    46    1
    14    19    17    1
    15    17    16    1
    16    48    46    1
    17    59    57   ar
    18    59    58   ar
    19    57    55   ar
    20    46    43    1
    21    16    13    1
    22    55    54   ar
    23    58    56   ar
    24    12    13    1
    25    13    14    1
    26    56    54   ar
    27    43    44    1
    28    43    42    1
    29    54    53    1
    30    44    45    2
    31    53    50    1
    32    42    40   am
    33    14    15    2
    34    14    20   am
    35    41    40    2
    36    40    39    1
    37    83    81   ar
    38    83    82   ar
    39    49    50    1
    40    50    51    1
    41    52    51    2
    42    20    21    1
    43    81    79   ar
    44    82    80   ar
    45    39    38    1
    46    51    60   am
    47    37    35    1
    48    38    33   am
    49    79    78   ar
    50    21    22    1
    51    21    24    1
    52    27    29   ar
    53    27    25   ar
    54    29    30   ar
    55    35    36    1
    56    35    32    1
    57    23    22    2
    58    60    61    1
    59    80    78   ar
    60    33    34    2
    61    33    32    1
    62    78    77    1
    63    61    62    1
    64    61    64    1
    65    71    70    1
    66    24    25    1
    67    25    26   ar
    68    30    28   ar
    69    32    31    1
    70    62    63    2
    71    62    66   am
    72    70    72    1
    73    70    67    1
    74    66    67    1
    75    64    65    1
    76    26    28   ar
    77    77    74    1
    78    67    68    1
    79    74    75    1
    80    74    73    1
    81    75    76    2
    82    69    68    2
