@<TRIPOS>MOLECULE
tmp/5o67B00.pdb
 107 100 0 0 0
SMALL
GASTEIGER

@<TRIPOS>ATOM
      1  N         43.7790   10.4730  182.5170 N.3    12  ALA12      -0.1231
      2  CA        42.8600    9.4230  182.0950 C.3    12  ALA12       0.1694
      3  C         42.9590    8.1880  182.9680 C.2    12  ALA12       0.2593
      4  O         41.9380    7.6200  183.3160 O.2    12  ALA12      -0.2718
      5  CB        43.0780    9.0700  180.6200 C.3    12  ALA12       0.0304
      6  N         44.1850    7.7890  183.3190 N.am   13  SER13      -0.1938
      7  CA        44.4350    6.5570  184.0870 C.3    13  SER13       0.2055
      8  C         44.2910    6.7440  185.6040 C.2    13  SER13       0.2643
      9  O         43.8340    5.8420  186.3130 O.2    13  SER13      -0.2714
     10  CB        45.8260    6.0040  183.7610 C.3    13  SER13       0.2130
     11  OG        46.8440    6.9320  184.1020 O.3    13  SER13      -0.2179
     12  N         44.6600    7.9180  186.0930 N.am   14  GLY14      -0.1954
     13  CA        44.7820    8.1560  187.5240 C.3    14  GLY14       0.1869
     14  C         46.0910    7.5830  188.0120 C.2    14  GLY14       0.2309
     15  O         46.1690    7.0340  189.1030 O.2    14  GLY14      -0.2863
     16  N         43.6650   -1.3590  191.0980 N.3   112  SER112     -0.1217
     17  CA        43.8950   -0.5120  192.2820 C.3   112  SER112      0.1889
     18  C         42.7950   -0.6080  193.3240 C.2   112  SER112      0.2288
     19  O         41.7120   -1.0970  193.0450 O.2   112  SER112     -0.2866
     20  CB        43.9650    0.9500  191.8710 C.3   112  SER112      0.2089
     21  OG        42.6530    1.4270  191.5890 O.3   112  SER112     -0.2183
     22  N         41.2570    1.7770  196.9450 N.3   114  ARG114     -0.1245
     23  CA        41.2080    3.0570  197.6220 C.3   114  ARG114      0.1563
     24  C         40.3660    2.8530  198.8940 C.2   114  ARG114      0.2260
     25  O         39.2590    2.2910  198.8280 O.2   114  ARG114     -0.2867
     26  CB        40.6150    4.1030  196.6620 C.3   114  ARG114      0.0307
     27  CG        39.8190    5.2580  197.2800 C.3   114  ARG114      0.0489
     28  CD        39.8960    6.5740  196.4960 C.3   114  ARG114      0.2205
     29  NE        41.1510    7.2410  196.8310 N.pl3 114  ARG114     -0.0865
     30  CZ        42.2680    7.2430  196.0990 C.cat 114  ARG114      0.5346
     31  NH1       42.3230    6.6680  194.8990 N.pl3 114  ARG114      0.1354
     32  NH2       43.3560    7.8500  196.5730 N.pl3 114  ARG114      0.1354
     33  N         39.1490   -1.0180  191.8000 N.3   155  GLY155     -0.1210
     34  CA        38.8220   -0.5700  190.4520 C.3   155  GLY155      0.1956
     35  C         39.9110   -0.8200  189.4200 C.2   155  GLY155      0.2612
     36  O         41.0710   -1.1390  189.7540 O.2   155  GLY155     -0.2717
     37  N         39.5210   -0.6610  188.1520 N.am  156  LEU156     -0.1965
     38  CA        40.3570   -0.9540  186.9840 C.3   156  LEU156      0.1728
     39  C         40.2430    0.1540  185.9260 C.2   156  LEU156      0.2616
     40  O         39.1950    0.7690  185.7800 O.2   156  LEU156     -0.2715
     41  CB        39.9150   -2.2810  186.3900 C.3   156  LEU156      0.0311
     42  CG        40.3310   -2.6770  184.9550 C.3   156  LEU156      0.0022
     43  CD1       41.8170   -3.0130  184.8390 C.3   156  LEU156      0.0001
     44  CD2       39.4670   -3.8510  184.4860 C.3   156  LEU156      0.0001
     45  N         41.3310    0.3650  185.1870 N.am  157  SER157     -0.1950
     46  CA        41.4730    1.3850  184.1390 C.3   157  SER157      0.1924
     47  C         42.1560    0.7130  182.9370 C.2   157  SER157      0.2314
     48  O         42.9780   -0.1540  183.1160 O.2   157  SER157     -0.2863
     49  CB        42.3060    2.5730  184.6820 C.3   157  SER157      0.2116
     50  OG        43.1820    3.1690  183.7250 O.3   157  SER157     -0.2180
     51  N         37.0260    2.7600  182.5190 N.3   170  SER170     -0.1202
     52  CA        37.2790    2.4670  183.9230 C.3   170  SER170      0.2020
     53  C         36.0750    1.8880  184.6040 C.2   170  SER170      0.2619
     54  O         34.9700    2.3230  184.3470 O.2   170  SER170     -0.2717
     55  CB        37.6650    3.7530  184.6470 C.3   170  SER170      0.2103
     56  OG        36.7590    4.7810  184.2760 O.3   170  SER170     -0.2182
     57  N         36.2950    0.9560  185.5120 N.am  171  VAL171     -0.1965
     58  CA        35.1960    0.3840  186.2860 C.3   171  VAL171      0.1727
     59  C         35.6510    0.2730  187.7490 C.2   171  VAL171      0.2616
     60  O         36.8250    0.0450  188.0040 O.2   171  VAL171     -0.2715
     61  CB        34.7010   -0.9590  185.6580 C.3   171  VAL171      0.0290
     62  CG1       35.8490   -1.7780  185.1420 C.3   171  VAL171      0.0023
     63  CG2       33.8900   -1.8000  186.6360 C.3   171  VAL171      0.0023
     64  N         34.7370    0.4850  188.6970 N.am  172  SER172     -0.1950
     65  CA        35.0310    0.2020  190.0970 C.3   172  SER172      0.1924
     66  C         33.7700   -0.0320  190.8360 C.2   172  SER172      0.2314
     67  O         32.7200    0.1520  190.2880 O.2   172  SER172     -0.2863
     68  CB        35.7620    1.3630  190.7590 C.3   172  SER172      0.2116
     69  OG        34.9670    2.5240  190.7320 O.3   172  SER172     -0.2180
     70  N         30.4960    2.0680  189.5670 N.3   203  GLN203     -0.1231
     71  CA        30.6990    3.2200  188.7350 C.3   203  GLN203      0.1698
     72  C         31.2900    2.6580  187.4630 C.2   203  GLN203      0.2592
     73  O         31.9600    1.6280  187.5020 O.2   203  GLN203     -0.2718
     74  CB        31.7080    4.1900  189.4050 C.3   203  GLN203      0.0381
     75  CG        31.3740    4.6990  190.8390 C.3   203  GLN203      0.0905
     76  CD        31.7180    3.7700  192.0680 C.2   203  GLN203      0.2608
     77  OE1       32.8050    3.1940  192.1600 O.2   203  GLN203     -0.2717
     78  NE2       30.7850    3.6750  193.0310 N.am  203  GLN203     -0.0878
     79  N         31.0450    3.3100  186.3370 N.am  204  PHE204     -0.1962
     80  CA        31.8530    3.0600  185.1340 C.3   204  PHE204      0.1771
     81  C         31.8380    4.2460  184.1900 C.2   204  PHE204      0.2620
     82  O         31.0220    5.1390  184.3320 O.2   204  PHE204     -0.2715
     83  CB        31.3870    1.8120  184.3920 C.3   204  PHE204      0.0574
     84  CG        30.0150    1.9250  183.8430 C.ar  204  PHE204     -0.0200
     85  CD1       28.9070    1.7940  184.6820 C.ar  204  PHE204     -0.0042
     86  CD2       29.8110    2.1710  182.4780 C.ar  204  PHE204     -0.0042
     87  CE1       27.6100    1.9000  184.1680 C.ar  204  PHE204     -0.0003
     88  CE2       28.5190    2.2840  181.9500 C.ar  204  PHE204     -0.0003
     89  CZ        27.4140    2.1430  182.7990 C.ar  204  PHE204     -0.0000
     90  N         32.7450    4.2490  183.2280 N.am  205  GLY205     -0.1954
     91  CA        32.7720    5.2950  182.2280 C.3   205  GLY205      0.1869
     92  C         33.8520    5.1250  181.1810 C.2   205  GLY205      0.2309
     93  O         34.8760    4.4860  181.4250 O.2   205  GLY205     -0.2863
     94  N         29.3650    8.0250  181.4340 N.3   223  SER223     -0.1217
     95  CA        29.5940    7.1760  182.5860 C.3   223  SER223      0.1889
     96  C         28.3310    7.2250  183.4390 C.2   223  SER223      0.2288
     97  O         27.3920    7.9610  183.1490 O.2   223  SER223     -0.2866
     98  CB        30.7530    7.7330  183.4030 C.3   223  SER223      0.2089
     99  OG        30.5170    9.0020  183.9950 O.3   223  SER223     -0.2183
    100  N         31.3820   14.8520  180.7350 N.3   253  ASN253     -0.1240
    101  CA        32.5980   15.6360  181.0610 C.3   253  ASN253      0.1653
    102  C         33.3640   16.2080  179.8910 C.2   253  ASN253      0.2266
    103  O         33.8500   15.4520  179.0410 O.2   253  ASN253     -0.2867
    104  CB        33.6170   14.7300  181.7460 C.3   253  ASN253      0.1155
    105  CG        33.2200   14.3540  183.1470 C.2   253  ASN253      0.2627
    106  OD1       33.4740   15.1130  184.0920 O.2   253  ASN253     -0.2716
    107  ND2       32.6010   13.1790  183.3020 N.am  253  ASN253     -0.0877
@<TRIPOS>BOND
     1   103   102    2
     2   102   101    1
     3     5     2    1
     4   100   101    1
     5   101   104    1
     6    92    93    2
     7    92    91    1
     8    94    95    1
     9   104   105    1
    10    88    86   ar
    11    88    89   ar
    12     2     1    1
    13     2     3    1
    14    91    90    1
    15    86    84   ar
    16    51    52    1
    17    95    98    1
    18    95    96    1
    19    89    87   ar
    20    47    48    2
    21    47    46    1
    22     3     4    2
    23     3     6   am
    24   105   107   am
    25   105   106    2
    26    97    96    2
    27    90    81   am
    28     6     7    1
    29    98    99    1
    30    50    49    1
    31    10     7    1
    32    10    11    1
    33    84    83    1
    34    84    85   ar
    35    52    53    1
    36    52    55    1
    37     7     8    1
    38    46    49    1
    39    46    45    1
    40    87    85   ar
    41    81    82    2
    42    81    80    1
    43    56    55    1
    44    54    53    2
    45    83    80    1
    46    44    42    1
    47    53    57   am
    48    43    42    1
    49    42    41    1
    50    80    79    1
    51    62    61    1
    52    45    39   am
    53    57    58    1
    54     8    12   am
    55     8     9    2
    56    61    58    1
    57    61    63    1
    58    40    39    2
    59    39    38    1
    60    12    13    1
    61    58    59    1
    62    79    72   am
    63    41    38    1
    64    38    37    1
    65    72    73    2
    66    72    71    1
    67    13    14    1
    68    59    60    2
    69    59    64   am
    70    14    15    2
    71    37    35   am
    72    64    65    1
    73    71    74    1
    74    71    70    1
    75    74    75    1
    76    35    36    2
    77    35    34    1
    78    65    68    1
    79    65    66    1
    80    67    66    2
    81    34    33    1
    82    69    68    1
    83    75    76    1
    84    16    17    1
    85    21    20    1
    86    20    17    1
    87    76    77    2
    88    76    78   am
    89    17    18    1
    90    19    18    2
    91    31    30    1
    92    30    32    1
    93    30    29    2
    94    28    29    1
    95    28    27    1
    96    26    27    1
    97    26    23    1
    98    22    23    1
    99    23    24    1
   100    25    24    2
