@<TRIPOS>MOLECULE
tmp/5o68A00.pdb
 192 175 0 0 0
SMALL
GASTEIGER

@<TRIPOS>ATOM
      1  N       -161.0500   38.7170   51.7520 N.3    10  ASN10      -0.1225
      2  CA      -161.3530   39.6500   50.6720 C.3    10  ASN10       0.1785
      3  C       -162.4750   39.0760   49.8380 C.2    10  ASN10       0.2597
      4  O       -163.5300   39.6730   49.7170 O.2    10  ASN10      -0.2718
      5  CB      -160.1380   39.9030   49.7630 C.3    10  ASN10       0.1169
      6  CG      -159.0220   40.7070   50.4260 C.2    10  ASN10       0.2627
      7  OD1     -157.9630   40.8980   49.8160 O.2    10  ASN10      -0.2716
      8  ND2     -159.2270   41.1580   51.6690 N.am   10  ASN10      -0.0877
      9  N       -162.2390   37.8890   49.3080 N.am   11  GLU11      -0.1965
     10  CA      -163.1870   37.1800   48.4500 C.3    11  GLU11       0.1733
     11  C       -164.6040   37.0750   49.0200 C.2    11  GLU11       0.2616
     12  O       -165.5850   37.3420   48.3340 O.2    11  GLU11      -0.2715
     13  CB      -162.6370   35.7630   48.2420 C.3    11  GLU11       0.0429
     14  CG      -163.4630   34.8280   47.3720 C.3    11  GLU11       0.1163
     15  CD      -163.4600   35.2190   45.9240 C.2    11  GLU11       0.3649
     16  OE1     -162.7400   36.1830   45.5300 O.co2  11  GLU11      -0.2457
     17  OE2     -164.1880   34.5180   45.1890 O.co2  11  GLU11      -0.2457
     18  N       -164.6880   36.6510   50.2720 N.am   12  ALA12      -0.1963
     19  CA      -165.9510   36.5090   50.9580 C.3    12  ALA12       0.1728
     20  C       -166.5440   37.8740   51.2670 C.2    12  ALA12       0.2617
     21  O       -167.6780   38.1510   50.8480 O.2    12  ALA12      -0.2715
     22  CB      -165.7680   35.7190   52.2450 C.3    12  ALA12       0.0334
     23  N       -165.7780   38.7260   51.9710 N.am   13  SER13      -0.1936
     24  CA      -166.3100   40.0090   52.5060 C.3    13  SER13       0.2055
     25  C       -166.6200   41.0900   51.4630 C.2    13  SER13       0.2643
     26  O       -167.3110   42.0520   51.7790 O.2    13  SER13      -0.2714
     27  CB      -165.4230   40.5900   53.6240 C.3    13  SER13       0.2130
     28  OG      -164.2900   41.2640   53.1130 O.3    13  SER13      -0.2179
     29  N       -166.1200   40.9240   50.2400 N.am   14  GLY14      -0.1954
     30  CA      -166.4200   41.8360   49.1230 C.3    14  GLY14       0.1869
     31  C       -165.7310   43.1780   49.2300 C.2    14  GLY14       0.2309
     32  O       -166.1680   44.1700   48.6420 O.2    14  GLY14      -0.2863
     33  N       -161.9540   44.4620   49.2450 N.3    16  PHE16      -0.1241
     34  CA      -160.5150   44.3360   48.9290 C.3    16  PHE16       0.1605
     35  C       -159.7210   45.2450   49.8620 C.2    16  PHE16       0.2264
     36  O       -159.3850   46.3980   49.5150 O.2    16  PHE16      -0.2867
     37  CB      -160.2540   44.6970   47.4640 C.3    16  PHE16       0.0534
     38  CG      -161.0110   43.8680   46.4720 C.ar   16  PHE16      -0.0203
     39  CD1     -161.2240   42.5010   46.5830 C.ar   16  PHE16      -0.0042
     40  CD2     -161.4280   44.4810   45.2840 C.ar   16  PHE16      -0.0042
     41  CE1     -161.8310   41.7550   45.6080 C.ar   16  PHE16      -0.0003
     42  CE2     -162.0400   43.7470   44.3160 C.ar   16  PHE16      -0.0003
     43  CZ      -162.2270   42.3730   44.4430 C.ar   16  PHE16      -0.0000
     44  N       -157.9260   44.1670   39.1290 N.3    24  GLU24      -0.1245
     45  CA      -158.2810   42.7450   39.0500 C.3    24  GLU24       0.1567
     46  C       -158.8050   42.4220   37.6710 C.2    24  GLU24       0.2260
     47  O       -159.7770   43.0310   37.2200 O.2    24  GLU24      -0.2867
     48  CB      -159.3750   42.4400   40.0880 C.3    24  GLU24       0.0388
     49  CG      -160.0510   41.0590   40.0410 C.3    24  GLU24       0.1160
     50  CD      -161.3050   40.9580   40.9330 C.2    24  GLU24       0.3649
     51  OE1     -161.9690   39.8950   40.9190 O.co2  24  GLU24      -0.2457
     52  OE2     -161.6490   41.9290   41.6530 O.co2  24  GLU24      -0.2457
     53  N       -161.6590   45.5610   36.9420 N.3    44  THR44      -0.1218
     54  CA      -162.1600   46.1510   38.1960 C.3    44  THR44       0.1862
     55  C       -161.0890   46.7620   39.0820 C.2    44  THR44       0.2287
     56  O       -160.1900   46.0730   39.5310 O.2    44  THR44      -0.2866
     57  CB      -162.9150   45.1060   39.0340 C.3    44  THR44       0.1770
     58  OG1     -163.7860   44.3480   38.1870 O.3    44  THR44      -0.2211
     59  CG2     -163.7490   45.7660   40.1370 C.3    44  THR44       0.0375
     60  N       -164.2250   51.8250   50.9590 N.3    54  GLN54      -0.1245
     61  CA      -163.7690   51.3180   49.6620 C.3    54  GLN54       0.1566
     62  C       -164.6600   51.8280   48.5210 C.2    54  GLN54       0.2260
     63  O       -165.8950   51.8280   48.6450 O.2    54  GLN54      -0.2867
     64  CB      -163.7610   49.7830   49.6780 C.3    54  GLN54       0.0367
     65  CG      -164.0630   49.1030   48.3370 C.3    54  GLN54       0.0905
     66  CD      -163.8520   47.6020   48.3580 C.2    54  GLN54       0.2608
     67  OE1     -162.9810   47.0920   49.0760 O.2    54  GLN54      -0.2717
     68  NE2     -164.6390   46.8840   47.5540 N.am   54  GLN54      -0.0878
     69  N       -164.9390   51.5840   43.9940 N.3    56  ASP56      -0.1239
     70  CA      -164.4870   50.7750   42.8410 C.3    56  ASP56       0.1674
     71  C       -165.3790   50.8470   41.6060 C.2    56  ASP56       0.2266
     72  O       -166.5940   50.9410   41.7200 O.2    56  ASP56      -0.2867
     73  CB      -164.3570   49.3070   43.2430 C.3    56  ASP56       0.1410
     74  CG      -165.6620   48.7070   43.7650 C.2    56  ASP56       0.3668
     75  OD1     -166.6620   48.6900   42.9990 O.co2  56  ASP56      -0.2456
     76  OD2     -165.6800   48.2180   44.9310 O.co2  56  ASP56      -0.2456
     77  N       -170.6870   49.3360   36.4320 N.3    83  ASN83      -0.1240
     78  CA      -171.2080   49.5030   37.7890 C.3    83  ASN83       0.1653
     79  C       -170.1080   49.9950   38.6800 C.2    83  ASN83       0.2266
     80  O       -168.9430   49.6750   38.4660 O.2    83  ASN83      -0.2867
     81  CB      -171.8430   48.2140   38.3690 C.3    83  ASN83       0.1155
     82  CG      -170.9310   46.9960   38.2910 C.2    83  ASN83       0.2627
     83  OD1     -170.4990   46.4520   39.3130 O.2    83  ASN83      -0.2716
     84  ND2     -170.6600   46.5400   37.0700 N.am   83  ASN83      -0.0877
     85  N       -170.0730   44.4160   56.5680 N.3   101  VAL101     -0.1245
     86  CA      -169.8670   45.3930   55.5140 C.3   101  VAL101      0.1561
     87  C       -171.2020   45.6800   54.8160 C.2   101  VAL101      0.2260
     88  O       -171.8220   44.7770   54.2190 O.2   101  VAL101     -0.2867
     89  CB      -168.8170   44.9070   54.4740 C.3   101  VAL101      0.0252
     90  CG1     -168.5500   45.9730   53.4140 C.3   101  VAL101      0.0019
     91  CG2     -167.5070   44.5340   55.1540 C.3   101  VAL101      0.0019
     92  N       -172.9450   48.0240   51.8050 N.3   103  SER103     -0.1217
     93  CA      -172.4820   48.5660   50.5240 C.3   103  SER103      0.1889
     94  C       -173.6490   49.0000   49.6600 C.2   103  SER103      0.2288
     95  O       -174.7990   48.7030   49.9710 O.2   103  SER103     -0.2866
     96  CB      -171.6770   47.5150   49.7620 C.3   103  SER103      0.2089
     97  OG      -172.5130   46.4560   49.2980 O.3   103  SER103     -0.2183
     98  N       -174.3930   49.4260   45.2840 N.3   105  ARG105     -0.1245
     99  CA      -173.8720   49.1680   43.9470 C.3   105  ARG105      0.1563
    100  C       -174.8780   49.6950   42.9220 C.2   105  ARG105      0.2260
    101  O       -175.9070   49.0610   42.6200 O.2   105  ARG105     -0.2867
    102  CB      -173.5390   47.6670   43.7510 C.3   105  ARG105      0.0307
    103  CG      -172.8140   47.3390   42.4400 C.3   105  ARG105      0.0489
    104  CD      -171.9150   46.0800   42.4580 C.3   105  ARG105      0.2205
    105  NE      -170.5600   46.2550   43.0050 N.pl3 105  ARG105     -0.0865
    106  CZ      -169.5660   46.9750   42.4600 C.cat 105  ARG105      0.5346
    107  NH1     -169.7110   47.6680   41.3310 N.pl3 105  ARG105      0.1354
    108  NH2     -168.3990   47.0300   43.0790 N.pl3 105  ARG105      0.1354
    109  N       -175.6020   50.5580   39.0900 N.3   107  LYS107     -0.1245
    110  CA      -175.1980   49.9710   37.8220 C.3   107  LYS107      0.1561
    111  C       -175.9560   50.6510   36.7230 C.2   107  LYS107      0.2260
    112  O       -177.1730   50.8160   36.8440 O.2   107  LYS107     -0.2867
    113  CB      -175.5510   48.4890   37.7900 C.3   107  LYS107      0.0271
    114  CG      -175.1600   47.7590   36.4990 C.3   107  LYS107      0.0035
    115  CD      -176.2610   46.8440   36.0090 C.3   107  LYS107      0.0206
    116  CE      -177.3980   47.6200   35.3990 C.3   107  LYS107      0.1093
    117  NZ      -178.4460   46.6430   35.0250 N.3   107  LYS107     -0.1314
    118  N       -179.9270   50.1910   37.9010 N.3   134  SER134     -0.1217
    119  CA      -180.1730   49.4350   39.1190 C.3   134  SER134      0.1889
    120  C       -179.5280   50.1830   40.2740 C.2   134  SER134      0.2288
    121  O       -178.5950   50.9520   40.0810 O.2   134  SER134     -0.2866
    122  CB      -179.6010   48.0070   39.0020 C.3   134  SER134      0.2089
    123  OG      -178.3370   47.8530   39.6640 O.3   134  SER134     -0.2183
    124  N       -178.3580   48.6160   44.1360 N.3   136  THR136     -0.1218
    125  CA      -178.3170   47.3970   44.9380 C.3   136  THR136      0.1862
    126  C       -177.6480   47.6390   46.2900 C.2   136  THR136      0.2287
    127  O       -176.4240   47.6470   46.3860 O.2   136  THR136     -0.2866
    128  CB      -177.5370   46.3110   44.1900 C.3   136  THR136      0.1770
    129  OG1     -177.9950   46.2510   42.8330 O.3   136  THR136     -0.2211
    130  CG2     -177.6930   44.9540   44.8710 C.3   136  THR136      0.0375
    131  N       -176.6340   46.0940   49.9280 N.3   138  GLY138     -0.1210
    132  CA      -176.1910   44.7610   50.3000 C.3   138  GLY138      0.1956
    133  C       -175.4310   44.7450   51.6160 C.2   138  GLY138      0.2612
    134  O       -174.7770   45.7380   51.9920 O.2   138  GLY138     -0.2717
    135  N       -175.5410   43.6010   52.3030 N.am  139  LEU139     -0.1965
    136  CA      -174.8780   43.3060   53.5820 C.3   139  LEU139      0.1728
    137  C       -174.0600   41.9920   53.4840 C.2   139  LEU139      0.2616
    138  O       -174.4850   41.0520   52.7990 O.2   139  LEU139     -0.2715
    139  CB      -175.9490   43.1500   54.6680 C.3   139  LEU139      0.0311
    140  CG      -175.4610   42.8950   56.1060 C.3   139  LEU139      0.0022
    141  CD1     -174.8970   44.1520   56.7580 C.3   139  LEU139      0.0001
    142  CD2     -176.5840   42.3130   56.9510 C.3   139  LEU139      0.0001
    143  N       -172.9190   41.9140   54.1840 N.am  140  SER140     -0.1950
    144  CA      -172.1410   40.6640   54.2450 C.3   140  SER140      0.1924
    145  C       -171.4400   40.4010   55.5730 C.2   140  SER140      0.2314
    146  O       -170.6460   41.2060   56.0370 O.2   140  SER140     -0.2863
    147  CB      -171.0930   40.6400   53.1400 C.3   140  SER140      0.2116
    148  OG      -169.8240   41.0430   53.6320 O.3   140  SER140     -0.2180
    149  N       -174.4410   36.6560   53.1160 N.3   153  SER153     -0.1202
    150  CA      -174.7380   37.8950   52.3950 C.3   153  SER153      0.2020
    151  C       -176.1610   38.0030   51.8490 C.2   153  SER153      0.2619
    152  O       -176.6740   37.0590   51.2230 O.2   153  SER153     -0.2717
    153  CB      -173.7740   38.0440   51.2070 C.3   153  SER153      0.2103
    154  OG      -173.8000   36.8810   50.3930 O.3   153  SER153     -0.2182
    155  N       -176.7630   39.1790   52.0400 N.am  154  VAL154     -0.1965
    156  CA      -178.0750   39.5040   51.4690 C.3   154  VAL154      0.1727
    157  C       -177.9260   40.7600   50.6440 C.2   154  VAL154      0.2616
    158  O       -177.0620   41.5660   50.9010 O.2   154  VAL154     -0.2715
    159  CB      -179.1900   39.6690   52.5580 C.3   154  VAL154      0.0290
    160  CG1     -178.8790   40.7700   53.5780 C.3   154  VAL154      0.0023
    161  CG2     -180.5580   39.8980   51.9160 C.3   154  VAL154      0.0023
    162  N       -178.7620   40.9030   49.6350 N.am  155  SER155     -0.1950
    163  CA      -178.8890   42.1660   48.9230 C.3   155  SER155      0.1924
    164  C       -180.2230   42.2390   48.2030 C.2   155  SER155      0.2314
    165  O       -180.8440   41.2040   47.8980 O.2   155  SER155     -0.2863
    166  CB      -177.7870   42.3180   47.8900 C.3   155  SER155      0.2116
    167  OG      -178.0330   41.4280   46.8220 O.3   155  SER155     -0.2180
    168  N       -182.0460   44.4770   44.8610 N.3   157  THR157     -0.1218
    169  CA      -181.7820   45.2530   43.6480 C.3   157  THR157      0.1862
    170  C       -183.0780   45.8650   43.1720 C.2   157  THR157      0.2287
    171  O       -183.8680   45.2020   42.5150 O.2   157  THR157     -0.2866
    172  CB      -181.2640   44.3320   42.5140 C.3   157  THR157      0.1770
    173  OG1     -179.9700   43.8460   42.8550 O.3   157  THR157     -0.2211
    174  CG2     -181.2000   45.0300   41.1430 C.3   157  THR157      0.0375
    175  N       -181.4270   38.7360   46.7630 N.3   186  GLN186     -0.1245
    176  CA      -180.3040   37.7870   46.5320 C.3   186  GLN186      0.1566
    177  C       -179.6580   37.3540   47.8180 C.2   186  GLN186      0.2260
    178  O       -179.1120   38.1690   48.5460 O.2   186  GLN186     -0.2867
    179  CB      -179.1960   38.3790   45.6560 C.3   186  GLN186      0.0367
    180  CG      -179.6550   38.9060   44.3030 C.3   186  GLN186      0.0905
    181  CD      -179.6310   40.4230   44.1990 C.2   186  GLN186      0.2608
    182  OE1     -178.5650   41.0370   44.2780 O.2   186  GLN186     -0.2717
    183  NE2     -180.8000   41.0320   43.9990 N.am  186  GLN186     -0.0878
    184  N       -160.3120   34.6140   38.3070 N.3   267  LYS267     -0.1245
    185  CA      -160.0490   36.0040   38.6570 C.3   267  LYS267      0.1561
    186  C       -158.6350   36.1810   39.1640 C.2   267  LYS267      0.2260
    187  O       -158.0690   35.2860   39.7990 O.2   267  LYS267     -0.2867
    188  CB      -160.9570   36.4650   39.7720 C.3   267  LYS267      0.0271
    189  CG      -162.4070   36.0050   39.7240 C.3   267  LYS267      0.0035
    190  CD      -163.2290   36.6900   40.8180 C.3   267  LYS267      0.0206
    191  CE      -162.4490   36.8560   42.1300 C.3   267  LYS267      0.1093
    192  NZ      -163.2670   37.4050   43.2310 N.3   267  LYS267     -0.1314
@<TRIPOS>BOND
     1   117   116    1
     2   116   115    1
     3   115   114    1
     4    77    78    1
     5   114   113    1
     6   111   112    2
     7   111   110    1
     8    53    54    1
     9    84    82   am
    10    47    46    2
    11    46    45    1
    12    78    81    1
    13    78    79    1
    14   113   110    1
    15   110   109    1
    16   118   119    1
    17    58    57    1
    18    54    57    1
    19    54    55    1
    20    82    81    1
    21    82    83    2
    22   184   185    1
    23    80    79    2
    24   185   186    1
    25   185   188    1
    26   122   119    1
    27   122   123    1
    28    57    59    1
    29    45    44    1
    30    45    48    1
    31    55    56    2
    32   119   120    1
    33   186   187    2
    34   189   188    1
    35   189   190    1
    36    49    48    1
    37    49    50    1
    38   121   120    2
    39   190   191    1
    40    51    50   ar
    41    50    52   ar
    42   174   172    1
    43   107   106    1
    44    71    72    2
    45    71    70    1
    46   191   192    1
    47   103   104    1
    48   103   102    1
    49   104   105    1
    50   106   105    2
    51   106   108    1
    52   172   173    1
    53   172   169    1
    54   171   170    2
    55   101   100    2
    56   129   128    1
    57    70    73    1
    58    70    69    1
    59   100    99    1
    60    75    74   ar
    61   170   169    1
    62    73    74    1
    63   169   168    1
    64   102    99    1
    65    74    76   ar
    66    99    98    1
    67   183   181   am
    68   124   125    1
    69   128   130    1
    70   128   125    1
    71   181   182    2
    72   181   180    1
    73   180   179    1
    74    42    43   ar
    75    42    40   ar
    76    43    41   ar
    77   125   126    1
    78    17    15   ar
    79    40    38   ar
    80    16    15   ar
    81    41    39   ar
    82   179   176    1
    83    15    14    1
    84   126   127    2
    85    38    39   ar
    86    38    37    1
    87   176   175    1
    88   176   177    1
    89   167   166    1
    90    14    13    1
    91    37    34    1
    92    68    66   am
    93   177   178    2
    94   166   163    1
    95   165   164    2
    96   164   163    1
    97    13    10    1
    98    12    11    2
    99    65    66    1
   100    65    64    1
   101    66    67    2
   102    10    11    1
   103    10     9    1
   104    62    63    2
   105    62    61    1
   106    32    31    2
   107   163   162    1
   108    34    33    1
   109    34    35    1
   110    11    18   am
   111    30    31    1
   112    30    29    1
   113    97    96    1
   114     9     3   am
   115    36    35    2
   116   162   157   am
   117    94    95    2
   118    94    93    1
   119    61    64    1
   120    61    60    1
   121     4     3    2
   122    96    93    1
   123     5     6    1
   124     5     2    1
   125     7     6    2
   126     3     2    1
   127   131   132    1
   128    29    25   am
   129    18    19    1
   130   132   133    1
   131   154   153    1
   132     6     8   am
   133    93    92    1
   134   157   158    2
   135   157   156    1
   136     2     1    1
   137    21    20    2
   138    19    20    1
   139    19    22    1
   140   153   150    1
   141   152   151    2
   142    20    23   am
   143    25    26    2
   144    25    24    1
   145   156   155    1
   146   156   159    1
   147   133   134    2
   148   133   135   am
   149   151   155   am
   150   151   150    1
   151   161   159    1
   152    23    24    1
   153   135   136    1
   154   150   149    1
   155    24    27    1
   156   159   160    1
   157   138   137    2
   158    28    27    1
   159   147   148    1
   160   147   144    1
   161    90    89    1
   162   137   136    1
   163   137   143   am
   164   136   139    1
   165   143   144    1
   166    88    87    2
   167   144   145    1
   168    89    91    1
   169    89    86    1
   170   139   140    1
   171    87    86    1
   172    86    85    1
   173   145   146    2
   174   140   141    1
   175   140   142    1
