@<TRIPOS>MOLECULE
tmp/5o68A01.pdb
 79 74 0 0 0
SMALL
GASTEIGER

@<TRIPOS>ATOM
      1  N       -150.6380   29.7310   51.9260 N.3   198  ARG198     -0.1231
      2  CA      -150.9660   30.3440   50.6240 C.3   198  ARG198      0.1694
      3  C       -152.3840   30.0680   50.0770 C.2   198  ARG198      0.2591
      4  O       -152.9710   30.9370   49.3930 O.2   198  ARG198     -0.2718
      5  CB      -149.9160   29.9130   49.5840 C.3   198  ARG198      0.0321
      6  CG      -148.4760   30.1110   50.0480 C.3   198  ARG198      0.0489
      7  CD      -147.4720   29.9930   48.8970 C.3   198  ARG198      0.2205
      8  NE      -147.4920   31.2070   48.1030 N.pl3 198  ARG198     -0.0865
      9  CZ      -146.6190   32.1970   48.2400 C.cat 198  ARG198      0.5346
     10  NH1     -145.5800   32.0550   49.0560 N.pl3 198  ARG198      0.1354
     11  NH2     -146.7440   33.2820   47.4930 N.pl3 198  ARG198      0.1354
     12  N       -152.9330   28.8840   50.3690 N.am  199  MET199     -0.1979
     13  CA      -154.1970   28.4210   49.7570 C.3   199  MET199      0.1605
     14  C       -155.3740   28.4460   50.6950 C.2   199  MET199      0.2287
     15  O       -155.2400   28.2010   51.8890 O.2   199  MET199     -0.2864
     16  CB      -154.0890   26.9970   49.2510 C.3   199  MET199      0.0413
     17  CG      -153.1990   26.8710   48.0550 C.3   199  MET199      0.0598
     18  SD      -153.4710   25.2930   47.2810 S.3   199  MET199     -0.1393
     19  CE      -152.0320   25.3380   46.2130 C.3   199  MET199      0.0692
     20  N       -161.2410   28.0830   45.4070 N.3   238  MET238     -0.1301
     21  CA      -160.0240   28.6120   46.0940 C.3   238  MET238      0.1256
     22  C       -159.8770   29.9740   45.3780 C.3   238  MET238      0.2010
     23  O       -160.7080   30.1780   44.4980 O.3   238  MET238     -0.2188
     24  CB      -158.8640   27.6380   45.8340 C.3   238  MET238      0.0333
     25  CG      -159.0740   26.2130   46.3910 C.3   238  MET238      0.0592
     26  SD      -158.2060   24.8540   45.5470 S.3   238  MET238     -0.1393
     27  CE      -159.0990   24.8230   43.9730 C.3   238  MET238      0.0692
     28  N       -155.6680   30.9240   45.5500 N.3   240  ILE240     -0.1231
     29  CA      -154.2520   30.5250   45.4040 C.3   240  ILE240      0.1692
     30  C       -153.3620   31.7890   45.4060 C.2   240  ILE240      0.2592
     31  O       -153.4310   32.5800   44.4610 O.2   240  ILE240     -0.2718
     32  CB      -154.0620   29.7540   44.0690 C.3   240  ILE240      0.0266
     33  CG1     -154.6010   28.3300   44.2070 C.3   240  ILE240      0.0019
     34  CG2     -152.6050   29.7130   43.6210 C.3   240  ILE240      0.0020
     35  CD1     -154.8160   27.6110   42.8940 C.3   240  ILE240      0.0001
     36  N       -152.5300   31.9760   46.4340 N.am  241  ALA241     -0.1966
     37  CA      -151.5630   33.0890   46.4420 C.3   241  ALA241      0.1728
     38  C       -150.3290   32.8630   45.5090 C.2   241  ALA241      0.2616
     39  O       -149.6940   31.7930   45.5210 O.2   241  ALA241     -0.2715
     40  CB      -151.1160   33.3900   47.8580 C.3   241  ALA241      0.0334
     41  N       -149.9960   33.9040   44.7310 N.am  242  ALA242     -0.1977
     42  CA      -148.9690   33.8710   43.6620 C.3   242  ALA242      0.1597
     43  C       -147.6600   34.6610   43.9720 C.2   242  ALA242      0.2287
     44  O       -146.5670   34.1090   43.8170 O.2   242  ALA242     -0.2864
     45  CB      -149.5850   34.3560   42.3440 C.3   242  ALA242      0.0319
     46  N       -154.5990   34.1520   42.2560 N.3   247  ILE247     -0.1245
     47  CA      -155.5470   33.4790   41.3790 C.3   247  ILE247      0.1561
     48  C       -156.7000   32.9050   42.2100 C.2   247  ILE247      0.2260
     49  O       -156.5050   32.2650   43.2530 O.2   247  ILE247     -0.2867
     50  CB      -154.9040   32.3500   40.5590 C.3   247  ILE247      0.0252
     51  CG1     -153.5870   32.8200   39.9390 C.3   247  ILE247      0.0019
     52  CG2     -155.8580   31.8860   39.4580 C.3   247  ILE247      0.0019
     53  CD1     -152.6750   31.6770   39.5390 C.3   247  ILE247      0.0001
     54  N       -159.9310   30.7510   41.3760 N.3   249  PRO249     -0.2116
     55  CA      -160.8200   29.9680   40.5170 C.3   249  PRO249      0.1372
     56  C       -162.1610   29.6490   41.1870 C.2   249  PRO249      0.2244
     57  O       -162.2220   29.4390   42.4030 O.2   249  PRO249     -0.2868
     58  CB      -160.0360   28.6900   40.3170 C.3   249  PRO249      0.0268
     59  CG      -159.3070   28.5320   41.6240 C.3   249  PRO249      0.0207
     60  CD      -158.8600   29.9250   41.9520 C.3   249  PRO249      0.0892
     61  N       -167.5360   28.7330   35.0220 N.3   264  PHE264     -0.1241
     62  CA      -166.1310   28.7370   35.4750 C.3   264  PHE264      0.1605
     63  C       -165.4970   30.1410   35.5050 C.2   264  PHE264      0.2264
     64  O       -165.2570   30.7410   34.4740 O.2   264  PHE264     -0.2867
     65  CB      -165.2790   27.7750   34.6270 C.3   264  PHE264      0.0534
     66  CG      -164.0980   27.1960   35.3800 C.ar  264  PHE264     -0.0203
     67  CD1     -162.9740   27.9820   35.6740 C.ar  264  PHE264     -0.0042
     68  CD2     -164.1070   25.8670   35.8220 C.ar  264  PHE264     -0.0042
     69  CE1     -161.8860   27.4510   36.3740 C.ar  264  PHE264     -0.0003
     70  CE2     -163.0160   25.3410   36.5230 C.ar  264  PHE264     -0.0003
     71  CZ      -161.9070   26.1320   36.8000 C.ar  264  PHE264     -0.0000
     72  N       -162.3340   32.7040   36.6680 N.3   266  LEU266     -0.1245
     73  CA      -160.8670   32.7400   36.8550 C.3   266  LEU266      0.1561
     74  C       -160.3670   34.1850   37.0490 C.2   266  LEU266      0.2260
     75  O       -160.0530   34.8870   36.0900 O.2   266  LEU266     -0.2867
     76  CB      -160.1820   32.0610   35.6600 C.3   266  LEU266      0.0270
     77  CG      -158.7550   31.5210   35.8160 C.3   266  LEU266      0.0019
     78  CD1     -158.6620   30.4800   36.9260 C.3   266  LEU266      0.0001
     79  CD2     -158.2690   30.9400   34.4880 C.3   266  LEU266      0.0001
@<TRIPOS>BOND
     1    64    63    2
     2    79    77    1
     3    65    66    1
     4    65    62    1
     5    61    62    1
     6    66    67   ar
     7    66    68   ar
     8    62    63    1
     9    76    77    1
    10    76    73    1
    11    67    69   ar
    12    77    78    1
    13    68    70   ar
    14    75    74    2
    15    69    71   ar
    16    70    71   ar
    17    72    73    1
    18    73    74    1
    19    52    50    1
    20    53    51    1
    21    51    50    1
    22    58    55    1
    23    58    59    1
    24    55    56    1
    25    55    54    1
    26    50    47    1
    27    56    57    2
    28    54    60    1
    29    47    48    1
    30    47    46    1
    31    59    60    1
    32    48    49    2
    33    45    42    1
    34    35    33    1
    35    34    32    1
    36    42    43    1
    37    42    41    1
    38    44    43    2
    39    27    26    1
    40    32    33    1
    41    32    29    1
    42    31    30    2
    43    23    22    1
    44    41    38   am
    45    22    21    1
    46    29    30    1
    47    29    28    1
    48    30    36   am
    49    20    21    1
    50    38    39    2
    51    38    37    1
    52    26    25    1
    53    24    21    1
    54    24    25    1
    55    19    18    1
    56    36    37    1
    57    37    40    1
    58    18    17    1
    59    11     9    1
    60    17    16    1
    61     8     9    2
    62     8     7    1
    63     9    10    1
    64     7     6    1
    65    16    13    1
    66     4     3    2
    67     5     6    1
    68     5     2    1
    69    13    12    1
    70    13    14    1
    71     3    12   am
    72     3     2    1
    73     2     1    1
    74    14    15    2
