@<TRIPOS>MOLECULE
tmp/5o68A03.pdb
 109 110 0 0 0
SMALL
GASTEIGER

@<TRIPOS>ATOM
      1  N       -154.6250   50.1530   47.0450 N.3    21  PHE21      -0.1227
      2  CA      -155.3410   50.1540   45.7680 C.3    21  PHE21       0.1736
      3  C       -155.4350   48.7290   45.3050 C.2    21  PHE21       0.2596
      4  O       -154.7240   47.8860   45.8240 O.2    21  PHE21      -0.2718
      5  CB      -154.5610   50.8940   44.7040 C.3    21  PHE21       0.0547
      6  CG      -154.3590   52.3570   44.9690 C.ar   21  PHE21      -0.0202
      7  CD1     -155.3260   53.2970   44.6000 C.ar   21  PHE21      -0.0042
      8  CD2     -153.1650   52.8070   45.5510 C.ar   21  PHE21      -0.0042
      9  CE1     -155.1280   54.6480   44.8330 C.ar   21  PHE21      -0.0003
     10  CE2     -152.9570   54.1590   45.7890 C.ar   21  PHE21      -0.0003
     11  CZ      -153.9370   55.0790   45.4240 C.ar   21  PHE21      -0.0000
     12  N       -156.2610   48.4630   44.2970 N.am   22  SER22      -0.1938
     13  CA      -156.3940   47.1050   43.7450 C.3    22  SER22       0.2055
     14  C       -157.0680   47.0650   42.3800 C.2    22  SER22       0.2643
     15  O       -158.1380   47.6390   42.1870 O.2    22  SER22      -0.2714
     16  CB      -157.1700   46.1900   44.6990 C.3    22  SER22       0.2130
     17  OG      -158.4830   46.6780   44.9840 O.3    22  SER22      -0.2179
     18  N       -156.4210   46.3710   41.4520 N.am   23  PHE23      -0.1973
     19  CA      -156.9100   46.1510   40.1080 C.3    23  PHE23       0.1639
     20  C       -156.9910   44.6390   39.9490 C.2    23  PHE23       0.2290
     21  O       -156.2110   43.9190   40.5580 O.2    23  PHE23      -0.2864
     22  CB      -155.9440   46.7760   39.1030 C.3    23  PHE23       0.0560
     23  CG      -156.4450   46.7620   37.6930 C.ar   23  PHE23      -0.0200
     24  CD1     -156.2060   45.6620   36.8610 C.ar   23  PHE23      -0.0042
     25  CD2     -157.1720   47.8430   37.1840 C.ar   23  PHE23      -0.0042
     26  CE1     -156.6860   45.6460   35.5500 C.ar   23  PHE23      -0.0003
     27  CE2     -157.6480   47.8320   35.8720 C.ar   23  PHE23      -0.0003
     28  CZ      -157.4050   46.7330   35.0550 C.ar   23  PHE23      -0.0000
     29  N       -161.2290   48.0490   39.3740 N.3    45  GLY45      -0.1210
     30  CA      -160.2300   48.7970   40.1190 C.3    45  GLY45       0.1956
     31  C       -160.8760   49.2590   41.3870 C.2    45  GLY45       0.2612
     32  O       -162.0500   49.5860   41.3660 O.2    45  GLY45      -0.2717
     33  N       -160.1200   49.2980   42.4830 N.am   46  ALA46      -0.1965
     34  CA      -160.6210   49.8170   43.7680 C.3    46  ALA46       0.1728
     35  C       -159.5320   50.4830   44.5980 C.2    46  ALA46       0.2616
     36  O       -158.3890   50.0240   44.5890 O.2    46  ALA46      -0.2715
     37  CB      -161.2360   48.6940   44.5750 C.3    46  ALA46       0.0334
     38  N       -159.8870   51.5510   45.3170 N.am   47  TYR47      -0.1974
     39  CA      -158.9620   52.2340   46.2410 C.3    47  TYR47       0.1639
     40  C       -159.5480   52.2230   47.6540 C.2    47  TYR47       0.2290
     41  O       -160.7590   52.0690   47.8250 O.2    47  TYR47      -0.2864
     42  CB      -158.6480   53.6690   45.7580 C.3    47  TYR47       0.0560
     43  CG      -159.3620   54.7780   46.5020 C.ar   47  TYR47      -0.0198
     44  CD1     -158.9070   55.1930   47.7720 C.ar   47  TYR47      -0.0009
     45  CD2     -160.4640   55.4380   45.9400 C.ar   47  TYR47      -0.0009
     46  CE1     -159.5400   56.1950   48.4820 C.ar   47  TYR47       0.0417
     47  CE2     -161.1000   56.4620   46.6390 C.ar   47  TYR47       0.0417
     48  CZ      -160.6250   56.8270   47.9150 C.ar   47  TYR47       0.1957
     49  OH      -161.2050   57.8200   48.6650 O.3    47  TYR47      -0.2866
     50  N       -164.0180   52.2130   47.4090 N.3    55  PHE55      -0.1227
     51  CA      -164.6840   52.6770   46.1810 C.3    55  PHE55       0.1736
     52  C       -164.1200   51.8860   44.9990 C.2    55  PHE55       0.2595
     53  O       -162.9480   51.5460   45.0040 O.2    55  PHE55      -0.2718
     54  CB      -164.4240   54.1770   45.9580 C.3    55  PHE55       0.0547
     55  CG      -164.6630   55.0550   47.1780 C.ar   55  PHE55      -0.0202
     56  CD1     -163.7760   55.0340   48.2740 C.ar   55  PHE55      -0.0042
     57  CD2     -165.7420   55.9440   47.2180 C.ar   55  PHE55      -0.0042
     58  CE1     -163.9810   55.8460   49.3870 C.ar   55  PHE55      -0.0003
     59  CE2     -165.9440   56.7600   48.3280 C.ar   55  PHE55      -0.0003
     60  CZ      -165.0640   56.7130   49.4100 C.ar   55  PHE55      -0.0000
     61  N       -164.9390   51.5840   43.9940 N.am   56  ASP56      -0.1960
     62  CA      -164.4870   50.7750   42.8410 C.3    56  ASP56       0.1840
     63  C       -165.3790   50.8470   41.6060 C.2    56  ASP56       0.2621
     64  O       -166.5940   50.9410   41.7200 O.2    56  ASP56      -0.2715
     65  CB      -164.3570   49.3070   43.2430 C.3    56  ASP56       0.1450
     66  CG      -165.6620   48.7070   43.7650 C.2    56  ASP56       0.3671
     67  OD1     -166.6620   48.6900   42.9990 O.co2  56  ASP56      -0.2456
     68  OD2     -165.6800   48.2180   44.9310 O.co2  56  ASP56      -0.2456
     69  N       -164.7650   50.7820   40.4300 N.am   57  VAL57      -0.1977
     70  CA      -165.5010   50.6260   39.1820 C.3    57  VAL57       0.1596
     71  C       -165.2310   49.2300   38.6370 C.2    57  VAL57       0.2287
     72  O       -164.2090   48.6110   38.9320 O.2    57  VAL57      -0.2864
     73  CB      -165.1650   51.7530   38.1680 C.3    57  VAL57       0.0276
     74  CG1     -165.3010   51.3190   36.7060 C.3    57  VAL57       0.0022
     75  CG2     -166.0710   52.9600   38.4190 C.3    57  VAL57       0.0022
     76  N       -170.4890   50.7960   39.6610 N.3    84  PHE84      -0.1227
     77  CA      -169.5630   51.2840   40.6560 C.3    84  PHE84       0.1736
     78  C       -170.1320   50.9660   42.0080 C.2    84  PHE84       0.2596
     79  O       -171.3480   51.0260   42.1970 O.2    84  PHE84      -0.2718
     80  CB      -169.2450   52.7910   40.5100 C.3    84  PHE84       0.0547
     81  CG      -170.4470   53.6950   40.2840 C.ar   84  PHE84      -0.0202
     82  CD1     -171.0720   53.7700   39.0140 C.ar   84  PHE84      -0.0042
     83  CD2     -170.9130   54.5340   41.3130 C.ar   84  PHE84      -0.0042
     84  CE1     -172.1570   54.6250   38.7970 C.ar   84  PHE84      -0.0003
     85  CE2     -171.9980   55.3870   41.0960 C.ar   84  PHE84      -0.0003
     86  CZ      -172.6160   55.4350   39.8390 C.ar   84  PHE84      -0.0000
     87  N       -169.2580   50.5980   42.9380 N.am   85  GLY85      -0.1942
     88  CA      -169.6740   50.3080   44.3120 C.3    85  GLY85       0.2014
     89  C       -169.1090   51.3030   45.2940 C.2    85  GLY85       0.2638
     90  O       -168.0770   51.9130   45.0210 O.2    85  GLY85      -0.2714
     91  N       -169.8060   51.4980   46.4090 N.am   86  ILE86      -0.1977
     92  CA      -169.2070   52.0910   47.6030 C.3    86  ILE86       0.1596
     93  C       -169.4620   51.0570   48.6840 C.2    86  ILE86       0.2287
     94  O       -170.5130   50.4110   48.6820 O.2    86  ILE86      -0.2864
     95  CB      -169.7970   53.4880   47.9970 C.3    86  ILE86       0.0276
     96  CG1     -169.7780   54.4940   46.8180 C.3    86  ILE86       0.0022
     97  CG2     -169.0310   54.0930   49.1810 C.3    86  ILE86       0.0022
     98  CD1     -171.0820   54.6020   46.0430 C.3    86  ILE86       0.0001
     99  N       -151.7090   46.9670   44.7160 N.3   272  PHE272     -0.1241
    100  CA      -150.5240   47.8560   44.7370 C.3   272  PHE272      0.1605
    101  C       -150.2270   48.2080   46.1940 C.2   272  PHE272      0.2264
    102  O       -151.1040   48.6800   46.9140 O.2   272  PHE272     -0.2867
    103  CB      -150.6560   49.1660   43.8980 C.3   272  PHE272      0.0534
    104  CG      -151.6290   49.1000   42.7360 C.ar  272  PHE272     -0.0203
    105  CD1     -151.6530   48.0190   41.8640 C.ar  272  PHE272     -0.0042
    106  CD2     -152.5150   50.1580   42.4930 C.ar  272  PHE272     -0.0042
    107  CE1     -152.5720   47.9890   40.8100 C.ar  272  PHE272     -0.0003
    108  CE2     -153.4310   50.1200   41.4480 C.ar  272  PHE272     -0.0003
    109  CZ      -153.4590   49.0400   40.6050 C.ar  272  PHE272     -0.0000
@<TRIPOS>BOND
     1    28    26   ar
     2    28    27   ar
     3    26    24   ar
     4    27    25   ar
     5    74    73    1
     6    24    23   ar
     7    25    23   ar
     8    23    22    1
     9    73    75    1
    10    73    70    1
    11    71    72    2
    12    71    70    1
    13    84    82   ar
    14    84    86   ar
    15    82    81   ar
    16    22    19    1
    17    70    69    1
    18    29    30    1
    19    76    77    1
    20    86    85   ar
    21    20    19    1
    22    20    21    2
    23    19    18    1
    24    30    31    1
    25    81    80    1
    26    81    83   ar
    27    69    63   am
    28    80    77    1
    29   109   107   ar
    30   109   108   ar
    31    77    78    1
    32   107   105   ar
    33    85    83   ar
    34    32    31    2
    35    31    33   am
    36   108   106   ar
    37    18    14   am
    38    63    64    2
    39    63    62    1
    40   105   104   ar
    41    78    79    2
    42    78    87   am
    43    15    14    2
    44    14    13    1
    45    33    34    1
    46   106   104   ar
    47   104   103    1
    48    62    65    1
    49    62    61    1
    50    87    88    1
    51    67    66   ar
    52    65    66    1
    53    13    12    1
    54    13    16    1
    55    66    68   ar
    56    34    37    1
    57    34    35    1
    58   103   100    1
    59    61    52   am
    60    12     3   am
    61    88    89    1
    62    36    35    2
    63    35    38   am
    64     7     9   ar
    65     7     6   ar
    66    16    17    1
    67     5     6    1
    68     5     2    1
    69    99   100    1
    70   100   101    1
    71     9    11   ar
    72     6     8   ar
    73    52    53    2
    74    52    51    1
    75    90    89    2
    76    89    91   am
    77     3     2    1
    78     3     4    2
    79    38    39    1
    80    11    10   ar
    81     8    10   ar
    82    42    39    1
    83    42    43    1
    84     2     1    1
    85    45    43   ar
    86    45    47   ar
    87    54    51    1
    88    54    55    1
    89    98    96    1
    90    51    50    1
    91   101   102    2
    92    39    40    1
    93    91    92    1
    94    43    44   ar
    95    47    48   ar
    96    96    95    1
    97    55    57   ar
    98    55    56   ar
    99    57    59   ar
   100    92    95    1
   101    92    93    1
   102    40    41    2
   103    44    46   ar
   104    48    46   ar
   105    48    49    1
   106    95    97    1
   107    56    58   ar
   108    59    60   ar
   109    94    93    2
   110    58    60   ar
