@<TRIPOS>MOLECULE
tmp/5o68B00.pdb
 75 69 0 0 0
SMALL
GASTEIGER

@<TRIPOS>ATOM
      1  N       -177.2730   13.5190   63.7140 N.3    10  GLU10      -0.1231
      2  CA      -177.6640   13.8200   62.3420 C.3    10  GLU10       0.1699
      3  C       -177.4650   12.6230   61.3660 C.2    10  GLU10       0.2592
      4  O       -178.3430   12.3000   60.5530 O.2    10  GLU10      -0.2718
      5  CB      -176.8920   15.0670   61.8690 C.3    10  GLU10       0.0402
      6  CG      -177.4110   15.7080   60.5960 C.3    10  GLU10       0.1161
      7  CD      -178.8640   16.1200   60.6890 C.2    10  GLU10       0.3649
      8  OE1     -179.3540   16.4180   61.8170 O.co2  10  GLU10      -0.2457
      9  OE2     -179.5120   16.1430   59.6180 O.co2  10  GLU10      -0.2457
     10  N       -176.3170   11.9650   61.4530 N.am   11  ALA11      -0.1966
     11  CA      -176.0090   10.8680   60.5400 C.3    11  ALA11       0.1728
     12  C       -176.8960    9.6350   60.7910 C.2    11  ALA11       0.2617
     13  O       -177.4060    9.0220   59.8400 O.2    11  ALA11      -0.2715
     14  CB      -174.5350   10.5050   60.6490 C.3    11  ALA11       0.0334
     15  N       -177.0810    9.3110   62.0750 N.am   12  SER12      -0.1936
     16  CA      -177.7460    8.0870   62.5220 C.3    12  SER12       0.2055
     17  C       -179.2660    8.1730   62.5280 C.2    12  SER12       0.2643
     18  O       -179.9540    7.1730   62.2800 O.2    12  SER12      -0.2714
     19  CB      -177.2820    7.7300   63.9440 C.3    12  SER12       0.2130
     20  OG      -177.8030    8.6410   64.8990 O.3    12  SER12      -0.2179
     21  N       -179.7830    9.3640   62.8030 N.am   13  GLY13      -0.1954
     22  CA      -181.1850    9.5350   63.1660 C.3    13  GLY13       0.1869
     23  C       -181.4720    9.1310   64.6080 C.2    13  GLY13       0.2309
     24  O       -182.6230    8.8390   64.9470 O.2    13  GLY13      -0.2863
     25  N       -182.2470    0.8800   57.9300 N.3   139  LEU139     -0.1231
     26  CA      -180.9640    0.7530   58.6120 C.3   139  LEU139      0.1693
     27  C       -180.0740    1.9910   58.3460 C.2   139  LEU139      0.2592
     28  O       -180.1620    2.6070   57.2720 O.2   139  LEU139     -0.2718
     29  CB      -180.2380   -0.5130   58.1450 C.3   139  LEU139      0.0284
     30  CG      -179.1980   -1.0160   59.1560 C.3   139  LEU139      0.0019
     31  CD1     -179.8740   -1.8640   60.2230 C.3   139  LEU139      0.0001
     32  CD2     -178.0690   -1.7800   58.4880 C.3   139  LEU139      0.0001
     33  N       -179.2410    2.3360   59.3380 N.am  140  SER140     -0.1952
     34  CA      -178.2040    3.3610   59.2240 C.3   140  SER140      0.1924
     35  C       -176.9780    2.9510   60.0510 C.2   140  SER140      0.2314
     36  O       -177.0890    2.6510   61.2500 O.2   140  SER140     -0.2863
     37  CB      -178.7230    4.7440   59.6850 C.3   140  SER140      0.2116
     38  OG      -178.3030    5.1000   61.0090 O.3   140  SER140     -0.2180
     39  N       -170.5820    7.2010   56.9130 N.3   151  PHE151     -0.1241
     40  CA      -171.9530    6.7940   57.1750 C.3   151  PHE151      0.1605
     41  C       -172.7110    6.3020   55.9430 C.2   151  PHE151      0.2264
     42  O       -172.4310    6.6920   54.7930 O.2   151  PHE151     -0.2867
     43  CB      -172.7510    7.8890   57.9110 C.3   151  PHE151      0.0534
     44  CG      -172.9750    9.1680   57.1270 C.ar  151  PHE151     -0.0203
     45  CD1     -173.8740    9.2160   56.0640 C.ar  151  PHE151     -0.0042
     46  CD2     -172.3450   10.3450   57.5150 C.ar  151  PHE151     -0.0042
     47  CE1     -174.1000   10.3890   55.3780 C.ar  151  PHE151     -0.0003
     48  CE2     -172.5730   11.5280   56.8340 C.ar  151  PHE151     -0.0003
     49  CZ      -173.4530   11.5510   55.7640 C.ar  151  PHE151     -0.0000
     50  N       -176.8890    4.2670   54.9820 N.3   153  SER153     -0.1217
     51  CA      -178.3220    4.3130   55.2610 C.3   153  SER153      0.1889
     52  C       -179.1540    3.6830   54.1180 C.2   153  SER153      0.2288
     53  O       -179.0250    4.0540   52.9340 O.2   153  SER153     -0.2866
     54  CB      -178.7660    5.7670   55.5300 C.3   153  SER153      0.2089
     55  OG      -177.8950    6.7180   54.9090 O.3   153  SER153     -0.2183
     56  N       -172.7590   14.2100   51.2040 N.3   204  SER204     -0.1217
     57  CA      -173.5030   12.9520   51.0760 C.3   204  SER204      0.1889
     58  C       -174.2360   12.8000   49.7400 C.2   204  SER204      0.2288
     59  O       -174.4960   13.7840   49.0180 O.2   204  SER204     -0.2866
     60  CB      -174.4530   12.7950   52.2710 C.3   204  SER204      0.2089
     61  OG      -175.7800   12.4850   51.8770 O.3   204  SER204     -0.2183
     62  N       -177.5590   10.3810   47.7800 N.3   206  SER206     -0.1217
     63  CA      -178.7120    9.5330   48.0230 C.3   206  SER206      0.1889
     64  C       -179.5810    9.3280   46.7980 C.2   206  SER206      0.2288
     65  O       -179.7000   10.1940   45.9340 O.2   206  SER206     -0.2866
     66  CB      -179.5590   10.0890   49.1640 C.3   206  SER206      0.2089
     67  OG      -180.0990   11.3230   48.7860 O.3   206  SER206     -0.2183
     68  N       -175.9830   16.1070   48.7840 N.3   236  ASN236     -0.1240
     69  CA      -176.1280   16.9710   49.9550 C.3   236  ASN236      0.1653
     70  C       -174.8310   17.5970   50.3640 C.2   236  ASN236      0.2266
     71  O       -173.8010   16.9200   50.3450 O.2   236  ASN236     -0.2867
     72  CB      -176.6530   16.1780   51.1560 C.3   236  ASN236      0.1155
     73  CG      -178.1400   15.8690   51.0640 C.2   236  ASN236      0.2627
     74  OD1     -178.9380   16.3770   51.8690 O.2   236  ASN236     -0.2716
     75  ND2     -178.5200   15.0290   50.0870 N.am  236  ASN236     -0.0877
@<TRIPOS>BOND
     1    65    64    2
     2    64    63    1
     3    62    63    1
     4    63    66    1
     5    68    69    1
     6    67    66    1
     7    59    58    2
     8    58    57    1
     9    69    70    1
    10    69    72    1
    11    75    73   am
    12    71    70    2
    13    73    72    1
    14    73    74    2
    15    57    56    1
    16    57    60    1
    17    61    60    1
    18    53    52    2
    19    52    51    1
    20    42    41    2
    21    55    54    1
    22    50    51    1
    23    51    54    1
    24    47    49   ar
    25    47    45   ar
    26    49    48   ar
    27    41    40    1
    28    45    44   ar
    29    48    46   ar
    30    39    40    1
    31    44    46   ar
    32    44    43    1
    33    40    43    1
    34    28    27    2
    35    25    26    1
    36    29    26    1
    37    29    30    1
    38    27    26    1
    39    27    33   am
    40    32    30    1
    41    30    31    1
    42    34    33    1
    43    34    37    1
    44    34    35    1
    45     9     7   ar
    46    37    38    1
    47    13    12    2
    48    35    36    2
    49    11    14    1
    50    11    12    1
    51    11    10    1
    52     4     3    2
    53     6     7    1
    54     6     5    1
    55     7     8   ar
    56    12    15   am
    57     3    10   am
    58     3     2    1
    59     5     2    1
    60    15    16    1
    61    18    17    2
    62     2     1    1
    63    16    17    1
    64    16    19    1
    65    17    21   am
    66    21    22    1
    67    22    23    1
    68    19    20    1
    69    23    24    2
