@<TRIPOS>MOLECULE
tmp/5o68C01.pdb
 78 73 0 0 0
SMALL
GASTEIGER

@<TRIPOS>ATOM
      1  N       -155.3120    7.8310   41.2640 N.3    11  GLU11      -0.1231
      2  CA      -156.5960    8.1610   40.6330 C.3    11  GLU11       0.1699
      3  C       -156.4480    9.4290   39.8250 C.2    11  GLU11       0.2592
      4  O       -156.8340    9.4610   38.6540 O.2    11  GLU11      -0.2718
      5  CB      -157.7280    8.2730   41.6660 C.3    11  GLU11       0.0402
      6  CG      -157.9800    6.9730   42.4430 C.3    11  GLU11       0.1161
      7  CD      -158.3980    5.7700   41.5670 C.2    11  GLU11       0.3649
      8  OE1     -159.2620    5.9420   40.6750 O.co2  11  GLU11      -0.2457
      9  OE2     -157.8820    4.6360   41.7750 O.co2  11  GLU11      -0.2457
     10  N       -155.8700   10.4570   40.4400 N.am   12  ALA12      -0.1966
     11  CA      -155.6440   11.7480   39.7740 C.3    12  ALA12       0.1728
     12  C       -154.7960   11.6300   38.5010 C.2    12  ALA12       0.2617
     13  O       -155.1320   12.2140   37.4700 O.2    12  ALA12      -0.2715
     14  CB      -154.9850   12.7240   40.7430 C.3    12  ALA12       0.0334
     15  N       -153.7130   10.8560   38.6010 N.am   13  SER13      -0.1936
     16  CA      -152.6870   10.7460   37.5660 C.3    13  SER13       0.2055
     17  C       -152.9810    9.6680   36.5250 C.2    13  SER13       0.2643
     18  O       -152.5240    9.7650   35.3810 O.2    13  SER13      -0.2714
     19  CB      -151.3300   10.4640   38.2270 C.3    13  SER13       0.2130
     20  OG      -151.3670    9.2970   39.0360 O.3    13  SER13      -0.2179
     21  N       -153.7340    8.6440   36.9180 N.am   14  GLY14      -0.1954
     22  CA      -154.0010    7.4990   36.0480 C.3    14  GLY14       0.1869
     23  C       -152.7680    6.6380   35.8410 C.2    14  GLY14       0.2309
     24  O       -152.5560    6.1140   34.7420 O.2    14  GLY14      -0.2863
     25  N       -149.9510   10.4140   27.6740 N.3    99  SER99      -0.1217
     26  CA      -150.7120    9.1800   27.5080 C.3    99  SER99       0.1889
     27  C       -151.2750    9.0890   26.1080 C.2    99  SER99       0.2288
     28  O       -151.5690   10.0960   25.5030 O.2    99  SER99      -0.2866
     29  CB      -151.8740    9.1680   28.5190 C.3    99  SER99       0.2089
     30  OG      -152.7940    8.0950   28.3040 O.3    99  SER99      -0.2183
     31  N       -154.2550    6.4940   24.2690 N.3   101  ARG101     -0.1245
     32  CA      -155.1880    5.3850   24.3830 C.3   101  ARG101      0.1563
     33  C       -155.7570    5.1120   23.0140 C.2   101  ARG101      0.2260
     34  O       -156.3330    6.0000   22.3850 O.2   101  ARG101     -0.2867
     35  CB      -156.3220    5.7330   25.3460 C.3   101  ARG101      0.0307
     36  CG      -157.3330    4.6140   25.6110 C.3   101  ARG101      0.0489
     37  CD      -158.0130    4.7940   26.9650 C.3   101  ARG101      0.2205
     38  NE      -157.0020    4.7880   28.0320 N.pl3 101  ARG101     -0.0865
     39  CZ      -156.5150    3.7040   28.6540 C.cat 101  ARG101      0.5346
     40  NH1     -156.9700    2.4760   28.4040 N.pl3 101  ARG101      0.1354
     41  NH2     -155.5700    3.8530   29.5730 N.pl3 101  ARG101      0.1354
     42  N       -153.0940   12.4760   25.6410 N.3   132  GLY132     -0.1210
     43  CA      -153.3890   13.3960   26.7390 C.3   132  GLY132      0.1956
     44  C       -152.3380   13.5620   27.8340 C.2   132  GLY132      0.2612
     45  O       -151.5610   12.6400   28.1290 O.2   132  GLY132     -0.2717
     46  N       -152.3660   14.7480   28.4550 N.am  133  LEU133     -0.1965
     47  CA      -151.4060   15.1880   29.4810 C.3   133  LEU133      0.1728
     48  C       -152.0500   15.2800   30.8740 C.2   133  LEU133      0.2616
     49  O       -153.1580   15.7900   30.9870 O.2   133  LEU133     -0.2715
     50  CB      -150.8550   16.5630   29.0970 C.3   133  LEU133      0.0311
     51  CG      -150.2610   17.4800   30.1890 C.3   133  LEU133      0.0022
     52  CD1     -149.1060   16.8690   30.9810 C.3   133  LEU133      0.0001
     53  CD2     -149.8170   18.7820   29.5280 C.3   133  LEU133      0.0001
     54  N       -151.3470   14.8270   31.9180 N.am  134  SER134     -0.1950
     55  CA      -151.7680   15.0240   33.3090 C.3   134  SER134      0.1924
     56  C       -150.7510   15.7960   34.1830 C.2   134  SER134      0.2314
     57  O       -149.5610   15.7150   33.9460 O.2   134  SER134     -0.2863
     58  CB      -152.0660   13.6680   33.9360 C.3   134  SER134      0.2116
     59  OG      -151.4940   13.5730   35.2380 O.3   134  SER134     -0.2180
     60  N       -155.9840   17.6160   33.8350 N.3   147  SER147     -0.1202
     61  CA      -155.9670   16.7050   32.6860 C.3   147  SER147      0.2020
     62  C       -156.3340   17.4650   31.4270 C.2   147  SER147      0.2619
     63  O       -157.0280   18.4640   31.5030 O.2   147  SER147     -0.2717
     64  CB      -157.0010   15.5800   32.8800 C.3   147  SER147      0.2103
     65  OG      -157.0740   15.1560   34.2360 O.3   147  SER147     -0.2182
     66  N       -155.8780   16.9790   30.2810 N.am  148  VAL148     -0.1965
     67  CA      -156.1730   17.5740   28.9800 C.3   148  VAL148      0.1727
     68  C       -156.0920   16.4760   27.9470 C.2   148  VAL148      0.2616
     69  O       -155.1170   15.7400   27.9320 O.2   148  VAL148     -0.2715
     70  CB      -155.1190   18.6310   28.5570 C.3   148  VAL148      0.0290
     71  CG1     -155.4700   19.2150   27.1860 C.3   148  VAL148      0.0023
     72  CG2     -154.9530   19.7400   29.6090 C.3   148  VAL148      0.0023
     73  N       -157.0710   16.3640   27.0600 N.am  149  SER149     -0.1950
     74  CA      -156.9380   15.4070   25.9550 C.3   149  SER149      0.1924
     75  C       -157.7770   15.7320   24.7110 C.2   149  SER149      0.2314
     76  O       -158.8700   16.2750   24.7940 O.2   149  SER149     -0.2863
     77  CB      -157.2210   13.9810   26.4370 C.3   149  SER149      0.2116
     78  OG      -158.6000   13.7590   26.6060 O.3   149  SER149     -0.2180
@<TRIPOS>BOND
     1    34    33    2
     2    33    32    1
     3    31    32    1
     4    32    35    1
     5    75    76    2
     6    75    74    1
     7    35    36    1
     8    28    27    2
     9    36    37    1
    10    42    43    1
    11    74    77    1
    12    74    73    1
    13    27    26    1
    14    77    78    1
    15    43    44    1
    16    37    38    1
    17    73    68   am
    18    71    70    1
    19    26    25    1
    20    26    29    1
    21    44    45    2
    22    44    46   am
    23    69    68    2
    24    68    67    1
    25    38    39    2
    26    30    29    1
    27    40    39    1
    28    46    47    1
    29    70    67    1
    30    70    72    1
    31    39    41    1
    32    67    66    1
    33    50    47    1
    34    50    51    1
    35    47    48    1
    36    53    51    1
    37    51    52    1
    38    66    62   am
    39    48    49    2
    40    48    54   am
    41    62    63    2
    42    62    61    1
    43    54    55    1
    44    61    64    1
    45    61    60    1
    46    64    65    1
    47    55    58    1
    48    55    56    1
    49    58    59    1
    50    57    56    2
    51    24    23    2
    52    18    17    2
    53    23    22    1
    54    22    21    1
    55    17    21   am
    56    17    16    1
    57    13    12    2
    58    16    19    1
    59    16    15    1
    60    19    20    1
    61    12    15   am
    62    12    11    1
    63     4     3    2
    64    11    10    1
    65    11    14    1
    66     3    10   am
    67     3     2    1
    68     2     1    1
    69     2     5    1
    70     8     7   ar
    71     7     9   ar
    72     7     6    1
    73     5     6    1
