@<TRIPOS>MOLECULE
tmp/5o6bA00.pdb
 151 141 0 0 0
SMALL
GASTEIGER

@<TRIPOS>ATOM
      1  N         88.1450   98.8100   -4.7800 N.3     1  GLY1       -0.1210
      2  CA        89.1250   98.7770   -3.7140 C.3     1  GLY1        0.1956
      3  C         90.2650   97.7890   -3.9140 C.2     1  GLY1        0.2612
      4  O         90.4240   96.8540   -3.1260 O.2     1  GLY1       -0.2717
      5  N         91.0730   97.9810   -4.9560 N.am    2  LEU2       -0.1965
      6  CA        92.2860   97.1840   -5.0850 C.3     2  LEU2        0.1728
      7  C         93.2470   97.5160   -3.9490 C.2     2  LEU2        0.2616
      8  O         93.2490   98.6310   -3.4170 O.2     2  LEU2       -0.2715
      9  CB        92.9540   97.4240   -6.4460 C.3     2  LEU2        0.0311
     10  CG        92.1880   96.7970   -7.6270 C.3     2  LEU2        0.0022
     11  CD1       92.9620   96.9070   -8.9400 C.3     2  LEU2        0.0001
     12  CD2       91.8470   95.3410   -7.3160 C.3     2  LEU2        0.0001
     13  N         94.0760   96.5420   -3.5740 N.am    3  SER3       -0.1950
     14  CA        94.9990   96.8090   -2.4790 C.3     3  SER3        0.1924
     15  C         96.1990   97.6250   -2.9810 C.2     3  SER3        0.2314
     16  O         96.4180   97.7970   -4.1830 O.2     3  SER3       -0.2863
     17  CB        95.4520   95.5070   -1.8170 C.3     3  SER3        0.2116
     18  OG        96.3510   94.7590   -2.6220 O.3     3  SER3       -0.2180
     19  N         98.0990   95.0990   -4.9950 N.3     6  GLN6       -0.1245
     20  CA        97.5220   94.8240   -6.3090 C.3     6  GLN6        0.1566
     21  C         97.7810   95.9750   -7.2720 C.2     6  GLN6        0.2260
     22  O         98.1400   95.7550   -8.4390 O.2     6  GLN6       -0.2867
     23  CB        96.0150   94.5730   -6.1860 C.3     6  GLN6        0.0367
     24  CG        95.6080   93.2960   -5.4510 C.3     6  GLN6        0.0905
     25  CD        94.0890   93.2100   -5.2460 C.2     6  GLN6        0.2608
     26  OE1       93.4660   94.1360   -4.7160 O.2     6  GLN6       -0.2717
     27  NE2       93.4880   92.0990   -5.6850 N.am    6  GLN6       -0.0878
     28  N         95.8240   80.9650   -3.7180 N.3    25  ALA25      -0.1231
     29  CA        94.4890   81.0130   -4.2890 C.3    25  ALA25       0.1694
     30  C         93.7290   82.2090   -3.7390 C.2    25  ALA25       0.2593
     31  O         93.8110   82.5160   -2.5480 O.2    25  ALA25      -0.2718
     32  CB        93.7340   79.7170   -3.9630 C.3    25  ALA25       0.0304
     33  N         93.0250   82.9170   -4.6220 N.am   26  GLY26      -0.1942
     34  CA        92.1140   83.9470   -4.1520 C.3    26  GLY26       0.2014
     35  C         92.7530   85.1920   -3.5640 C.2    26  GLY26       0.2640
     36  O         92.1010   85.8890   -2.7740 O.2    26  GLY26      -0.2714
     37  N         94.0110   85.4940   -3.9240 N.am   27  THR27      -0.1936
     38  CA        94.6790   86.7330   -3.5320 C.3    27  THR27       0.2028
     39  C         94.3580   87.9100   -4.4660 C.2    27  THR27       0.2643
     40  O         94.9350   88.9890   -4.2980 O.2    27  THR27      -0.2714
     41  CB        96.2040   86.5170   -3.4540 C.3    27  THR27       0.1808
     42  OG1       96.6640   85.7660   -4.5890 O.3    27  THR27      -0.2208
     43  CG2       96.5650   85.7390   -2.1860 C.3    27  THR27       0.0379
     44  N         93.4360   87.7470   -5.4170 N.am   28  GLY28      -0.1939
     45  CA        93.0560   88.8440   -6.2900 C.3    28  GLY28       0.2014
     46  C         93.9220   89.0050   -7.5230 C.2    28  GLY28       0.2639
     47  O         93.9800   90.1080   -8.0890 O.2    28  GLY28      -0.2714
     48  N         94.5820   87.9350   -7.9730 N.am   29  LYS29      -0.1963
     49  CA        95.4740   88.0440   -9.1270 C.3    29  LYS29       0.1728
     50  C         94.6930   88.3120  -10.4080 C.2    29  LYS29       0.2617
     51  O         95.1000   89.1470  -11.2310 O.2    29  LYS29      -0.2715
     52  CB        96.3030   86.7670   -9.2770 C.3    29  LYS29       0.0311
     53  CG        97.2140   86.4530   -8.0830 C.3    29  LYS29       0.0038
     54  CD        98.1380   85.3260   -8.4400 C.3    29  LYS29       0.0206
     55  CE        97.3980   84.0030   -8.6020 C.3    29  LYS29       0.1093
     56  NZ        96.6810   83.5500   -7.3680 N.3    29  LYS29      -0.1314
     57  N         93.5660   87.6240  -10.5960 N.am   30  SER30      -0.1936
     58  CA        92.8200   87.8060  -11.8350 C.3    30  SER30       0.2055
     59  C         91.9880   89.0810  -11.7970 C.2    30  SER30       0.2642
     60  O         91.8420   89.7550  -12.8230 O.2    30  SER30      -0.2714
     61  CB        91.9470   86.5750  -12.1030 C.3    30  SER30       0.2130
     62  OG        92.7860   85.4460  -12.2990 O.3    30  SER30      -0.2179
     63  N         91.4540   89.4360  -10.6230 N.am   31  ILE31      -0.1977
     64  CA        90.6620   90.6640  -10.4890 C.3    31  ILE31       0.1596
     65  C         91.5020   91.9040  -10.7940 C.2    31  ILE31       0.2287
     66  O         91.0240   92.8610  -11.4180 O.2    31  ILE31      -0.2864
     67  CB        90.0440   90.7270   -9.0810 C.3    31  ILE31       0.0276
     68  CG1       88.7660   89.8850   -9.0540 C.3    31  ILE31       0.0022
     69  CG2       89.7920   92.1720   -8.6410 C.3    31  ILE31       0.0022
     70  CD1       87.5490   90.6220   -9.5010 C.3    31  ILE31       0.0001
     71  N         87.4600   84.0390  -17.6900 N.3    61  ASN61      -0.1240
     72  CA        87.4390   84.7430  -16.4130 C.3    61  ASN61       0.1653
     73  C         88.0470   86.1370  -16.5110 C.2    61  ASN61       0.2266
     74  O         87.7440   86.9920  -15.6740 O.2    61  ASN61      -0.2867
     75  CB        88.2090   83.9410  -15.3440 C.3    61  ASN61       0.1155
     76  CG        88.0750   84.5460  -13.9540 C.2    61  ASN61       0.2627
     77  OD1       86.9700   84.8940  -13.5270 O.2    61  ASN61      -0.2716
     78  ND2       89.1990   84.6780  -13.2440 N.am   61  ASN61      -0.0877
     79  N         96.6690   81.7750  -15.1660 N.3   107  GLU107     -0.1245
     80  CA        96.7830   80.3590  -14.8010 C.3   107  GLU107      0.1567
     81  C         97.9640   79.6990  -15.5140 C.2   107  GLU107      0.2260
     82  O         97.8610   78.6300  -16.1260 O.2   107  GLU107     -0.2867
     83  CB        95.4900   79.5910  -15.0600 C.3   107  GLU107      0.0388
     84  CG        94.2850   80.0190  -14.1690 C.3   107  GLU107      0.1160
     85  CD        94.5510   79.9140  -12.6610 C.2   107  GLU107      0.3649
     86  OE1       95.6740   79.5440  -12.2460 O.co2 107  GLU107     -0.2457
     87  OE2       93.6240   80.2140  -11.8840 O.co2 107  GLU107     -0.2457
     88  N         99.3220   75.2540   -7.5330 N.3   146  GLN146     -0.1245
     89  CA        98.0690   74.7910   -8.1230 C.3   146  GLN146      0.1566
     90  C         98.4220   73.7640   -9.2140 C.2   146  GLN146      0.2260
     91  O         99.4520   73.0960   -9.1070 O.2   146  GLN146     -0.2867
     92  CB        97.2210   76.0070   -8.5190 C.3   146  GLN146      0.0367
     93  CG        96.8580   76.8490   -7.2680 C.3   146  GLN146      0.0905
     94  CD        95.8750   77.9980   -7.5300 C.2   146  GLN146      0.2608
     95  OE1       94.9680   77.8910   -8.3680 O.2   146  GLN146     -0.2717
     96  NE2       96.0540   79.1070   -6.8040 N.am  146  GLN146     -0.0878
     97  N         91.8340   87.2300   -0.2960 N.3   177  PHE177     -0.1227
     98  CA        90.5130   87.8510   -0.3090 C.3   177  PHE177      0.1736
     99  C         89.3570   86.8540   -0.3900 C.2   177  PHE177      0.2595
    100  O         88.3300   87.0870    0.2510 O.2   177  PHE177     -0.2718
    101  CB        90.3860   88.8420   -1.4710 C.3   177  PHE177      0.0547
    102  CG        91.2180   90.0810   -1.3050 C.ar  177  PHE177     -0.0202
    103  CD1       90.7900   91.1160   -0.4980 C.ar  177  PHE177     -0.0042
    104  CD2       92.4280   90.2140   -1.9730 C.ar  177  PHE177     -0.0042
    105  CE1       91.5580   92.2650   -0.3450 C.ar  177  PHE177     -0.0003
    106  CE2       93.2010   91.3640   -1.8160 C.ar  177  PHE177     -0.0003
    107  CZ        92.7650   92.3850   -1.0030 C.ar  177  PHE177     -0.0000
    108  N         89.4690   85.7830   -1.2010 N.am  178  ARG178     -0.1980
    109  CA        88.3080   84.9320   -1.4920 C.3   178  ARG178      0.1597
    110  C         87.6220   84.4400   -0.2170 C.2   178  ARG178      0.2287
    111  O         86.3950   84.4810   -0.1100 O.2   178  ARG178     -0.2864
    112  CB        88.7130   83.7390   -2.3610 C.3   178  ARG178      0.0334
    113  CG        87.5510   82.7920   -2.6940 C.3   178  ARG178      0.0492
    114  CD        87.9570   81.7260   -3.7300 C.3   178  ARG178      0.2205
    115  NE        88.3470   82.3290   -5.0120 N.pl3 178  ARG178     -0.0865
    116  CZ        89.4250   81.9990   -5.7270 C.cat 178  ARG178      0.5346
    117  NH1       90.2550   81.0480   -5.3160 N.pl3 178  ARG178      0.1354
    118  NH2       89.6600   82.6230   -6.8780 N.pl3 178  ARG178      0.1354
    119  N         88.0040   85.7790    2.9100 N.3   180  ARG180     -0.1245
    120  CA        88.4010   86.7560    3.9270 C.3   180  ARG180      0.1563
    121  C         87.5330   86.7260    5.1790 C.2   180  ARG180      0.2260
    122  O         87.9790   87.2000    6.2290 O.2   180  ARG180     -0.2867
    123  CB        88.3980   88.1760    3.3480 C.3   180  ARG180      0.0307
    124  CG        87.0990   88.6190    2.6950 C.3   180  ARG180      0.0489
    125  CD        87.2510   90.0320    2.1280 C.3   180  ARG180      0.2205
    126  NE        86.1460   90.4260    1.2490 N.pl3 180  ARG180     -0.0865
    127  CZ        85.9410   89.9430    0.0200 C.cat 180  ARG180      0.5346
    128  NH1       86.7600   89.0330   -0.4920 N.pl3 180  ARG180      0.1354
    129  NH2       84.9100   90.3700   -0.7060 N.pl3 180  ARG180      0.1354
    130  N         90.8580   78.9290  -11.0280 N.3   459  GLY459     -0.1225
    131  CA        90.5230   80.3030  -11.3600 C.3   459  GLY459      0.1811
    132  C         89.1180   80.7340  -10.9610 C.2   459  GLY459      0.2280
    133  O         88.8590   81.9460  -10.8920 O.2   459  GLY459     -0.2866
    134  N         85.6690   81.3000   -8.5390 N.3   461  THR461     -0.1218
    135  CA        85.2150   81.5600   -7.1810 C.3   461  THR461      0.1862
    136  C         83.8190   80.9630   -7.0420 C.2   461  THR461      0.2287
    137  O         82.9280   81.2990   -7.8290 O.2   461  THR461     -0.2866
    138  CB        85.1700   83.0550   -6.8760 C.3   461  THR461      0.1770
    139  OG1       86.5010   83.5910   -6.8270 O.3   461  THR461     -0.2211
    140  CG2       84.4830   83.2730   -5.5220 C.3   461  THR461      0.0375
    141  N         88.5370   76.9090   -4.0950 N.3   484  ARG484     -0.1245
    142  CA        87.4700   77.5620   -4.8490 C.3   484  ARG484      0.1563
    143  C         86.4160   78.1520   -3.9150 C.2   484  ARG484      0.2260
    144  O         85.7150   79.1010   -4.2880 O.2   484  ARG484     -0.2867
    145  CB        86.7880   76.5570   -5.7950 C.3   484  ARG484      0.0307
    146  CG        87.7090   75.8190   -6.7940 C.3   484  ARG484      0.0489
    147  CD        88.5980   76.8150   -7.5540 C.3   484  ARG484      0.2205
    148  NE        89.8780   77.0350   -6.8880 N.pl3 484  ARG484     -0.0865
    149  CZ        90.6730   78.0710   -7.1270 C.cat 484  ARG484      0.5346
    150  NH1       90.3110   79.0130   -8.0150 N.pl3 484  ARG484      0.1354
    151  NH2       91.8240   78.1800   -6.4740 N.pl3 484  ARG484      0.1354
@<TRIPOS>BOND
     1    71    72    1
     2    73    72    1
     3    73    74    2
     4    72    75    1
     5    82    81    2
     6    81    80    1
     7    75    76    1
     8    79    80    1
     9    83    80    1
    10    83    84    1
    11    84    85    1
    12    76    77    2
    13    76    78   am
    14    60    59    2
    15    85    86   ar
    16    85    87   ar
    17    62    61    1
    18    61    58    1
    19    58    59    1
    20    58    57    1
    21    59    63   am
    22    66    65    2
    23   131   130    1
    24   131   132    1
    25    51    50    2
    26   132   133    2
    27    65    64    1
    28    63    64    1
    29    57    50   am
    30    64    67    1
    31    50    49    1
    32    70    68    1
    33    52    49    1
    34    52    53    1
    35    90    91    2
    36    90    89    1
    37    49    48    1
    38    67    68    1
    39    67    69    1
    40    11    10    1
    41    55    54    1
    42    55    56    1
    43   134   135    1
    44    92    89    1
    45    92    93    1
    46    54    53    1
    47    22    21    2
    48    95    94    2
    49    89    88    1
    50    47    46    2
    51   150   149    1
    52    48    46   am
    53   137   136    2
    54    10    12    1
    55    10     9    1
    56   147   148    1
    57   147   146    1
    58    94    93    1
    59    94    96   am
    60    46    45    1
    61    21    20    1
    62   135   136    1
    63   135   138    1
    64   149   148    2
    65   149   151    1
    66   118   116    1
    67   138   139    1
    68   138   140    1
    69   146   145    1
    70     9     6    1
    71    20    23    1
    72    20    19    1
    73    45    44    1
    74    23    24    1
    75   145   142    1
    76   116   117    1
    77   116   115    2
    78    27    25   am
    79    24    25    1
    80    44    39   am
    81    25    26    2
    82     6     5    1
    83     6     7    1
    84   115   114    1
    85     5     3   am
    86   142   141    1
    87   142   143    1
    88     1     2    1
    89    33    34    1
    90    33    30   am
    91    42    41    1
    92    39    40    2
    93    39    38    1
    94    29    32    1
    95    29    30    1
    96    29    28    1
    97   144   143    2
    98    16    15    2
    99    34    35    1
   100     7    13   am
   101     7     8    2
   102    37    35   am
   103    37    38    1
   104     3     2    1
   105     3     4    2
   106    30    31    2
   107   114   113    1
   108    13    14    1
   109    35    36    2
   110    38    41    1
   111    41    43    1
   112    15    14    1
   113   113   112    1
   114    18    17    1
   115    14    17    1
   116   112   109    1
   117   104   106   ar
   118   104   102   ar
   119   106   107   ar
   120   109   108    1
   121   109   110    1
   122   101   102    1
   123   101    98    1
   124   102   103   ar
   125   108    99   am
   126   107   105   ar
   127   129   127    1
   128   103   105   ar
   129   128   127    1
   130    99    98    1
   131    99   100    2
   132    98    97    1
   133   110   111    2
   134   127   126    2
   135   126   125    1
   136   125   124    1
   137   124   123    1
   138   119   120    1
   139   123   120    1
   140   120   121    1
   141   121   122    2
