@<TRIPOS>MOLECULE
tmp/5o6dB00.pdb
 165 153 0 0 0
SMALL
GASTEIGER

@<TRIPOS>ATOM
      1  N        -58.1510   35.8500  191.0050 N.3     1  LEU1       -0.1231
      2  CA       -56.8460   36.5020  191.0290 C.3     1  LEU1        0.1693
      3  C        -55.9920   36.0550  189.8470 C.2     1  LEU1        0.2592
      4  O        -56.3920   35.1810  189.0810 O.2     1  LEU1       -0.2718
      5  CB       -56.1250   36.2110  192.3470 C.3     1  LEU1        0.0284
      6  CG       -56.7730   36.7770  193.6120 C.3     1  LEU1        0.0019
      7  CD1      -55.7550   36.8890  194.7390 C.3     1  LEU1        0.0001
      8  CD2      -57.4140   38.1270  193.3280 C.3     1  LEU1        0.0001
      9  N        -54.8120   36.6510  189.7090 N.am    2  SER2       -0.1952
     10  CA       -53.9360   36.4200  188.5690 C.3     2  SER2        0.1924
     11  C        -52.6910   35.6510  188.9930 C.2     2  SER2        0.2314
     12  O        -52.3810   35.5200  190.1800 O.2     2  SER2       -0.2863
     13  CB       -53.5390   37.7480  187.9130 C.3     2  SER2        0.2116
     14  OG       -52.4830   38.3730  188.6230 O.3     2  SER2       -0.2180
     15  N        -50.4440   37.9640  190.8470 N.3     5  GLN5       -0.1245
     16  CA       -50.8570   38.3060  192.2040 C.3     5  GLN5        0.1566
     17  C        -50.5840   37.1730  193.1880 C.2     5  GLN5        0.2260
     18  O        -49.9880   37.3950  194.2470 O.2     5  GLN5       -0.2867
     19  CB       -52.3410   38.6700  192.2250 C.3     5  GLN5        0.0367
     20  CG       -52.6660   39.9790  191.5440 C.3     5  GLN5        0.0905
     21  CD       -54.1500   40.1650  191.3310 C.2     5  GLN5        0.2608
     22  OE1      -54.8790   39.2050  191.0890 O.2     5  GLN5       -0.2717
     23  NE2      -54.6080   41.4040  191.4210 N.am    5  GLN5       -0.0878
     24  N        -55.1850   50.6410  190.3460 N.3    25  GLY25      -0.1210
     25  CA       -55.9850   49.6280  189.7060 C.3    25  GLY25       0.1956
     26  C        -55.3560   48.2510  189.6600 C.2    25  GLY25       0.2613
     27  O        -56.0680   47.2720  189.4110 O.2    25  GLY25      -0.2717
     28  N        -54.0470   48.1440  189.8930 N.am   26  THR26      -0.1938
     29  CA       -53.3440   46.8850  189.6750 C.3    26  THR26       0.2028
     30  C        -53.4730   45.9180  190.8470 C.2    26  THR26       0.2643
     31  O        -52.4630   45.4280  191.3640 O.2    26  THR26      -0.2714
     32  CB       -51.8590   47.1440  189.3990 C.3    26  THR26       0.1808
     33  OG1      -51.3100   47.9640  190.4390 O.3    26  THR26      -0.2208
     34  CG2      -51.6710   47.8400  188.0570 C.3    26  THR26       0.0379
     35  N        -54.7050   45.6350  191.2690 N.am   27  GLY27      -0.1939
     36  CA       -54.9930   44.4800  192.0970 C.3    27  GLY27       0.2014
     37  C        -54.4110   44.4680  193.4940 C.2    27  GLY27       0.2639
     38  O        -54.6960   43.5280  194.2440 O.2    27  GLY27      -0.2714
     39  N        -53.5960   45.4610  193.8630 N.am   28  LYS28      -0.1963
     40  CA       -52.8650   45.4290  195.1310 C.3    28  LYS28       0.1728
     41  C        -53.7710   45.1100  196.3200 C.2    28  LYS28       0.2617
     42  O        -53.4850   44.1980  197.1040 O.2    28  LYS28      -0.2715
     43  CB       -52.1470   46.7610  195.3550 C.3    28  LYS28       0.0311
     44  CG       -50.9620   47.0010  194.4330 C.3    28  LYS28       0.0038
     45  CD       -50.1990   48.2500  194.8390 C.3    28  LYS28       0.0206
     46  CE       -51.1160   49.4600  194.9110 C.3    28  LYS28       0.1093
     47  NZ       -51.7660   49.7370  193.6010 N.3    28  LYS28      -0.1314
     48  N        -54.8680   45.8550  196.4720 N.am   29  SER29      -0.1936
     49  CA       -55.6820   45.7360  197.6800 C.3    29  SER29       0.2055
     50  C        -56.4320   44.4100  197.7210 C.2    29  SER29       0.2642
     51  O        -56.4510   43.7320  198.7560 O.2    29  SER29      -0.2714
     52  CB       -56.6580   46.9080  197.7750 C.3    29  SER29       0.2130
     53  OG       -55.9630   48.1330  197.9260 O.3    29  SER29      -0.2179
     54  N        -57.0730   44.0310  196.6120 N.am   30  ILE30      -0.1977
     55  CA       -57.7970   42.7630  196.5700 C.3    30  ILE30       0.1596
     56  C        -56.8520   41.6060  196.8640 C.2    30  ILE30       0.2287
     57  O        -57.1570   40.7210  197.6730 O.2    30  ILE30      -0.2864
     58  CB       -58.4960   42.5860  195.2120 C.3    30  ILE30       0.0276
     59  CG1      -59.4930   43.7190  194.9760 C.3    30  ILE30       0.0022
     60  CG2      -59.1870   41.2320  195.1470 C.3    30  ILE30       0.0022
     61  CD1      -60.5560   43.8110  196.0410 C.3    30  ILE30       0.0001
     62  N        -61.0550   49.5230  203.5510 N.3    60  ASN60      -0.1240
     63  CA       -60.9300   48.8290  202.2710 C.3    60  ASN60       0.1653
     64  C        -60.4590   47.3910  202.4400 C.2    60  ASN60       0.2266
     65  O        -61.0610   46.4570  201.8980 O.2    60  ASN60      -0.2867
     66  CB       -59.9720   49.5990  201.3580 C.3    60  ASN60       0.1155
     67  CG       -60.0860   49.1830  199.9010 C.2    60  ASN60       0.2627
     68  OD1      -61.1550   48.7790  199.4390 O.2    60  ASN60      -0.2716
     69  ND2      -58.9810   49.2760  199.1700 N.am   60  ASN60      -0.0877
     70  N        -51.0950   49.6600  204.1770 N.3   105  ASP105     -0.1225
     71  CA       -51.6490   49.8450  202.8470 C.3   105  ASP105      0.1805
     72  C        -51.7580   51.3360  202.5730 C.2   105  ASP105      0.2597
     73  O        -51.8930   52.1420  203.4970 O.2   105  ASP105     -0.2718
     74  CB       -53.0170   49.1690  202.7090 C.3   105  ASP105      0.1424
     75  CG       -53.5180   49.1470  201.2810 C.2   105  ASP105      0.3668
     76  OD1      -52.6980   49.3360  200.3590 O.co2 105  ASP105     -0.2456
     77  OD2      -54.7330   48.9320  201.0810 O.co2 105  ASP105     -0.2456
     78  N        -51.7040   51.6940  201.2930 N.am  106  GLU106     -0.1979
     79  CA       -51.3950   53.0610  200.8880 C.3   106  GLU106      0.1602
     80  C        -50.1980   53.5730  201.6830 C.2   106  GLU106      0.2287
     81  O        -50.2210   54.6510  202.2800 O.2   106  GLU106     -0.2864
     82  CB       -52.6080   53.9800  201.0530 C.3   106  GLU106      0.0415
     83  CG       -53.7620   53.6820  200.1020 C.3   106  GLU106      0.1163
     84  CD       -53.3720   53.7580  198.6320 C.2   106  GLU106      0.3649
     85  OE1      -52.3580   54.4080  198.2980 O.co2 106  GLU106     -0.2457
     86  OE2      -54.0970   53.1690  197.8030 O.co2 106  GLU106     -0.2457
     87  N        -48.4280   52.6100  196.3530 N.3   142  ASP142     -0.1239
     88  CA       -47.8210   53.0860  195.1120 C.3   142  ASP142      0.1674
     89  C        -47.3670   54.5170  195.3380 C.2   142  ASP142      0.2266
     90  O        -48.1950   55.3850  195.6320 O.2   142  ASP142     -0.2867
     91  CB       -48.8100   52.9950  193.9470 C.3   142  ASP142      0.1410
     92  CG       -48.4670   53.9370  192.8090 C.2   142  ASP142      0.3668
     93  OD1      -47.2790   54.0210  192.4340 O.co2 142  ASP142     -0.2456
     94  OD2      -49.3910   54.5940  192.2860 O.co2 142  ASP142     -0.2456
     95  N        -48.9250   58.0260  194.0540 N.3   145  GLN145     -0.1245
     96  CA       -50.1510   58.5730  194.6020 C.3   145  GLN145      0.1566
     97  C        -49.8050   59.5020  195.7660 C.2   145  GLN145      0.2260
     98  O        -48.6350   59.8140  196.0070 O.2   145  GLN145     -0.2867
     99  CB       -51.0970   57.4290  194.9750 C.3   145  GLN145      0.0367
    100  CG       -51.4890   56.5880  193.7640 C.3   145  GLN145      0.0905
    101  CD       -52.5260   55.5290  194.0750 C.2   145  GLN145      0.2608
    102  OE1      -53.1900   55.5750  195.1080 O.2   145  GLN145     -0.2717
    103  NE2      -52.6730   54.5680  193.1730 N.am  145  GLN145     -0.0878
    104  N        -56.6860   46.6930  186.2640 N.3   176  PHE176     -0.1227
    105  CA       -58.0330   46.1320  186.2580 C.3   176  PHE176      0.1736
    106  C        -59.1380   47.1590  186.4690 C.2   176  PHE176      0.2595
    107  O        -60.2250   46.9920  185.9070 O.2   176  PHE176     -0.2718
    108  CB       -58.1640   45.0500  187.3360 C.3   176  PHE176      0.0547
    109  CG       -57.4510   43.7710  187.0080 C.ar  176  PHE176     -0.0202
    110  CD1      -58.0510   42.8160  186.2040 C.ar  176  PHE176     -0.0042
    111  CD2      -56.1880   43.5170  187.5140 C.ar  176  PHE176     -0.0042
    112  CE1      -57.4000   41.6350  185.9040 C.ar  176  PHE176     -0.0003
    113  CE2      -55.5320   42.3370  187.2180 C.ar  176  PHE176     -0.0003
    114  CZ       -56.1390   41.3950  186.4120 C.ar  176  PHE176     -0.0000
    115  N        -58.9030   48.1980  187.2810 N.am  177  ARG177     -0.1980
    116  CA       -59.9920   49.0850  187.6920 C.3   177  ARG177      0.1597
    117  C        -60.7370   49.6830  186.5040 C.2   177  ARG177      0.2287
    118  O        -61.9430   49.9390  186.5970 O.2   177  ARG177     -0.2864
    119  CB       -59.4660   50.1970  188.6030 C.3   177  ARG177      0.0334
    120  CG       -60.5890   50.9490  189.3080 C.3   177  ARG177      0.0492
    121  CD       -60.1040   52.0680  190.2120 C.3   177  ARG177      0.2205
    122  NE       -59.1170   51.6180  191.1860 N.pl3 177  ARG177     -0.0865
    123  CZ       -57.9670   52.2420  191.4110 C.cat 177  ARG177      0.5346
    124  NH1      -57.6720   53.3420  190.7320 N.pl3 177  ARG177      0.1354
    125  NH2      -57.1180   51.7750  192.3160 N.pl3 177  ARG177      0.1354
    126  N        -60.7310   48.0210  183.4580 N.3   179  ARG179     -0.1245
    127  CA       -60.5980   46.8800  182.5570 C.3   179  ARG179      0.1563
    128  C        -61.3810   47.0850  181.2670 C.2   179  ARG179      0.2260
    129  O        -62.6040   47.2640  181.2870 O.2   179  ARG179     -0.2867
    130  CB       -61.0770   45.6170  183.2760 C.3   179  ARG179      0.0307
    131  CG       -60.5690   44.3090  182.6990 C.3   179  ARG179      0.0489
    132  CD       -60.9700   43.1450  183.5940 C.3   179  ARG179      0.2205
    133  NE       -62.3110   43.3230  184.1460 N.pl3 179  ARG179     -0.0865
    134  CZ       -63.4310   43.0180  183.4990 C.cat 179  ARG179      0.5346
    135  NH1      -63.3740   42.5170  182.2730 N.pl3 179  ARG179      0.1354
    136  NH2      -64.6090   43.2140  184.0770 N.pl3 179  ARG179      0.1354
    137  N        -57.4010   54.7140  197.0870 N.3   458  GLY458     -0.1225
    138  CA       -57.7830   53.3510  197.3760 C.3   458  GLY458      0.1811
    139  C        -59.2050   53.0130  196.9750 C.2   458  GLY458      0.2280
    140  O        -59.5280   51.8270  196.8330 O.2   458  GLY458     -0.2866
    141  N        -62.5340   52.6080  194.5580 N.3   460  THR460     -0.1218
    142  CA       -62.8360   52.2140  193.1830 C.3   460  THR460      0.1862
    143  C        -64.2530   52.6980  192.8870 C.2   460  THR460      0.2287
    144  O        -65.2330   52.0250  193.2250 O.2   460  THR460     -0.2866
    145  CB       -62.6890   50.7040  192.9980 C.3   460  THR460      0.1770
    146  OG1      -61.3070   50.3430  193.1320 O.3   460  THR460     -0.2211
    147  CG2      -63.1860   50.2720  191.6240 C.3   460  THR460      0.0375
    148  N        -59.3880   56.9040  190.1960 N.3   483  ARG483     -0.1245
    149  CA       -60.4410   56.2410  190.9590 C.3   483  ARG483      0.1563
    150  C        -61.6580   55.8910  190.1130 C.2   483  ARG483      0.2260
    151  O        -62.5850   55.2590  190.6320 O.2   483  ARG483     -0.2867
    152  CB       -60.8910   57.1170  192.1320 C.3   483  ARG483      0.0307
    153  CG       -59.7910   57.5970  193.0630 C.3   483  ARG483      0.0489
    154  CD       -59.1180   56.4480  193.7820 C.3   483  ARG483      0.2205
    155  NE       -57.8300   56.1040  193.1870 N.pl3 483  ARG483     -0.0865
    156  CZ       -57.1890   54.9630  193.4090 C.cat 483  ARG483      0.5346
    157  NH1      -57.7230   54.0430  194.1980 N.pl3 483  ARG483      0.1354
    158  NH2      -56.0180   54.7370  192.8380 N.pl3 483  ARG483      0.1354
    159  N        -63.9550   54.0370  187.2380 N.3   485  VAL485     -0.1245
    160  CA       -64.0380   52.6910  186.6770 C.3   485  VAL485      0.1561
    161  C        -64.1040   52.6930  185.1570 C.2   485  VAL485      0.2260
    162  O        -63.9440   51.6290  184.5390 O.2   485  VAL485     -0.2867
    163  CB       -65.2720   51.9450  187.2250 C.3   485  VAL485      0.0252
    164  CG1      -66.5540   52.5430  186.6520 C.3   485  VAL485      0.0019
    165  CG2      -65.1910   50.4550  186.9290 C.3   485  VAL485      0.0019
@<TRIPOS>BOND
     1   128   129    2
     2   128   127    1
     3   135   134    1
     4   127   130    1
     5   127   126    1
     6   131   130    1
     7   131   132    1
     8   134   136    1
     9   134   133    2
    10   132   133    1
    11   162   161    2
    12   161   160    1
    13   112   110   ar
    14   112   114   ar
    15   107   106    2
    16   110   109   ar
    17   105   104    1
    18   105   106    1
    19   105   108    1
    20   114   113   ar
    21   106   115   am
    22   117   118    2
    23   117   116    1
    24   164   163    1
    25   160   163    1
    26   160   159    1
    27   165   163    1
    28   109   108    1
    29   109   111   ar
    30   113   111   ar
    31   115   116    1
    32   116   119    1
    33    13    10    1
    34    13    14    1
    35    34    32    1
    36    10    11    1
    37    10     9    1
    38   119   120    1
    39    11    12    2
    40     4     3    2
    41   120   121    1
    42    32    29    1
    43    32    33    1
    44    27    26    2
    45    26    25    1
    46    26    28   am
    47    29    28    1
    48    29    30    1
    49    25    24    1
    50     9     3   am
    51     3     2    1
    52   150   151    2
    53   150   149    1
    54   148   149    1
    55   121   122    1
    56   124   123    1
    57    15    16    1
    58    30    35   am
    59    30    31    2
    60   149   152    1
    61     1     2    1
    62     2     5    1
    63    22    21    2
    64   122   123    2
    65    35    36    1
    66    21    23   am
    67    21    20    1
    68   123   125    1
    69    20    19    1
    70   147   145    1
    71    36    37    1
    72   152   153    1
    73    16    19    1
    74    16    17    1
    75    94    92   ar
    76     5     6    1
    77    93    92   ar
    78    92    91    1
    79   158   156    1
    80   143   142    1
    81   143   144    2
    82   145   146    1
    83   145   142    1
    84   153   154    1
    85   103   101   am
    86   142   141    1
    87   155   156    2
    88   155   154    1
    89    17    18    2
    90     8     6    1
    91   156   157    1
    92    37    39   am
    93    37    38    2
    94    47    46    1
    95     6     7    1
    96   100   101    1
    97   100    99    1
    98    39    40    1
    99    91    88    1
   100    95    96    1
   101   101   102    2
   102    44    45    1
   103    44    43    1
   104    96    99    1
   105    96    97    1
   106    45    46    1
   107    59    58    1
   108    59    61    1
   109    88    89    1
   110    88    87    1
   111    40    43    1
   112    40    41    1
   113    60    58    1
   114    58    55    1
   115    89    90    2
   116    97    98    2
   117    41    48   am
   118    41    42    2
   119    48    49    1
   120    55    54    1
   121    55    56    1
   122    54    50   am
   123   140   139    2
   124    56    57    2
   125   139   138    1
   126   137   138    1
   127    49    50    1
   128    49    52    1
   129    50    51    2
   130    52    53    1
   131    86    84   ar
   132    85    84   ar
   133    84    83    1
   134    69    67   am
   135    68    67    2
   136    67    66    1
   137    83    82    1
   138    76    75   ar
   139    79    82    1
   140    79    78    1
   141    79    80    1
   142    77    75   ar
   143    75    74    1
   144    78    72   am
   145    66    63    1
   146    80    81    2
   147    65    64    2
   148    63    64    1
   149    63    62    1
   150    72    71    1
   151    72    73    2
   152    74    71    1
   153    71    70    1
