@<TRIPOS>MOLECULE
tmp/5o6hB01.pdb
 223 218 0 0 0
SMALL
GASTEIGER

@<TRIPOS>ATOM
      1  N        -13.2480   61.3960  -17.4170 N.3    66  TYR66      -0.1227
      2  CA       -14.5160   60.7370  -16.9950 C.3    66  TYR66       0.1736
      3  C        -15.5640   61.7240  -16.4750 C.2    66  TYR66       0.2595
      4  O        -15.4950   62.9250  -16.8180 O.2    66  TYR66      -0.2718
      5  CB       -14.1700   59.5840  -16.0290 C.3    66  TYR66       0.0548
      6  CG       -15.3130   58.5330  -15.8960 C.ar   66  TYR66      -0.0200
      7  CD1      -15.8450   57.9230  -17.0560 C.ar   66  TYR66      -0.0009
      8  CD2      -15.7300   58.1030  -14.6440 C.ar   66  TYR66      -0.0009
      9  CE1      -16.8750   56.9540  -16.9380 C.ar   66  TYR66       0.0417
     10  CE2      -16.7590   57.1010  -14.5110 C.ar   66  TYR66       0.0417
     11  CZ       -17.2780   56.5380  -15.6620 C.ar   66  TYR66       0.1957
     12  OH       -18.2920   55.6000  -15.5240 O.3    66  TYR66      -0.2866
     13  N        -16.5060   61.2580  -15.6450 N.am   67  VAL67      -0.1966
     14  CA       -17.7630   62.0410  -15.3250 C.3    67  VAL67       0.1727
     15  C        -17.3690   63.2730  -14.4910 C.2    67  VAL67       0.2616
     16  O        -16.6280   63.1800  -13.4830 O.2    67  VAL67      -0.2715
     17  CB       -18.7000   61.0900  -14.5470 C.3    67  VAL67       0.0290
     18  CG1      -19.9570   61.9130  -14.0190 C.3    67  VAL67       0.0023
     19  CG2      -19.0990   59.8560  -15.3920 C.3    67  VAL67       0.0023
     20  N        -17.9730   64.3990  -14.9010 N.am   68  GLU68      -0.1963
     21  CA       -17.9400   65.6850  -14.1190 C.3    68  GLU68       0.1733
     22  C        -19.3320   65.9720  -13.5850 C.2    68  GLU68       0.2616
     23  O        -20.3310   65.4930  -14.1310 O.2    68  GLU68      -0.2715
     24  CB       -17.4800   66.8170  -15.0680 C.3    68  GLU68       0.0429
     25  CG       -16.0680   66.5380  -15.5880 C.3    68  GLU68       0.1163
     26  CD       -15.5360   67.5000  -16.6460 C.2    68  GLU68       0.3649
     27  OE1      -14.3160   67.3270  -17.0240 O.co2  68  GLU68      -0.2457
     28  OE2      -16.3460   68.4300  -17.0130 O.co2  68  GLU68      -0.2457
     29  N        -19.3870   66.7840  -12.5360 N.am   69  ASP69      -0.1971
     30  CA       -20.7240   67.2300  -12.0050 C.3    69  ASP69       0.1709
     31  C        -21.3320   68.2320  -13.0250 C.2    69  ASP69       0.2293
     32  O        -20.7150   68.6680  -14.0450 O.2    69  ASP69      -0.2864
     33  CB       -20.6110   67.9020  -10.6060 C.3    69  ASP69       0.1436
     34  CG       -19.8980   69.1790  -10.6860 C.2    69  ASP69       0.3671
     35  OD1      -18.9040   69.3070  -11.3590 O.co2  69  ASP69      -0.2456
     36  OD2      -20.4020   70.1760  -10.0900 O.co2  69  ASP69      -0.2456
     37  N        -16.0390   69.4340  -10.6060 N.3    74  PHE74      -0.1241
     38  CA       -15.4510   68.2380   -9.9140 C.3    74  PHE74       0.1605
     39  C        -15.5250   67.0840  -10.9580 C.2    74  PHE74       0.2264
     40  O        -16.5520   66.9280  -11.6460 O.2    74  PHE74      -0.2867
     41  CB       -16.3080   67.8860   -8.6570 C.3    74  PHE74       0.0534
     42  CG       -16.3240   68.9980   -7.6440 C.ar   74  PHE74      -0.0203
     43  CD1      -15.1440   69.3020   -6.9790 C.ar   74  PHE74      -0.0042
     44  CD2      -17.4790   69.8020   -7.5480 C.ar   74  PHE74      -0.0042
     45  CE1      -15.1000   70.4630   -6.1000 C.ar   74  PHE74      -0.0003
     46  CE2      -17.4410   70.9740   -6.6790 C.ar   74  PHE74      -0.0003
     47  CZ       -16.2460   71.2550   -6.0550 C.ar   74  PHE74      -0.0000
     48  N        -14.7500   62.8110  -11.2400 N.3    76  PHE76      -0.1241
     49  CA       -14.4070   61.6030  -10.4360 C.3    76  PHE76       0.1605
     50  C        -12.9450   61.2310  -10.5980 C.2    76  PHE76       0.2264
     51  O        -12.3740   61.3320  -11.7160 O.2    76  PHE76      -0.2867
     52  CB       -15.2850   60.3920  -10.8300 C.3    76  PHE76       0.0534
     53  CG       -16.7070   60.4230  -10.4070 C.ar   76  PHE76      -0.0203
     54  CD1      -17.6870   59.8540  -11.2170 C.ar   76  PHE76      -0.0042
     55  CD2      -17.0930   60.9970   -9.1720 C.ar   76  PHE76      -0.0042
     56  CE1      -19.0400   59.8390  -10.8290 C.ar   76  PHE76      -0.0003
     57  CE2      -18.4640   60.9480   -8.7560 C.ar   76  PHE76      -0.0003
     58  CZ       -19.4040   60.3650   -9.5920 C.ar   76  PHE76      -0.0000
     59  N        -11.3470   57.9660   -9.6150 N.3    78  TYR78      -0.1241
     60  CA       -11.2740   56.5600   -9.1260 C.3    78  TYR78       0.1605
     61  C         -9.8050   56.1560   -8.9730 C.2    78  TYR78       0.2264
     62  O         -9.0240   56.3170   -9.9190 O.2    78  TYR78      -0.2867
     63  CB       -11.9820   55.6380  -10.2040 C.3    78  TYR78       0.0534
     64  CG       -13.4810   55.7440  -10.2780 C.ar   78  TYR78      -0.0201
     65  CD1      -14.0490   56.6300  -11.1800 C.ar   78  TYR78      -0.0009
     66  CD2      -14.3030   54.9210   -9.5180 C.ar   78  TYR78      -0.0009
     67  CE1      -15.4250   56.7450  -11.2650 C.ar   78  TYR78       0.0417
     68  CE2      -15.6820   55.0150   -9.6080 C.ar   78  TYR78       0.0417
     69  CZ       -16.2510   55.9060  -10.5160 C.ar   78  TYR78       0.1957
     70  OH       -17.6230   55.9940  -10.6740 O.3    78  TYR78      -0.2866
     71  N        -23.1160   47.4720  -17.1610 N.3   131  ILE131     -0.1231
     72  CA       -22.2070   48.2580  -18.0070 C.3   131  ILE131      0.1692
     73  C        -21.7850   49.4940  -17.2830 C.2   131  ILE131      0.2592
     74  O        -22.6620   50.1970  -16.6690 O.2   131  ILE131     -0.2718
     75  CB       -22.8770   48.6340  -19.3660 C.3   131  ILE131      0.0266
     76  CG1      -23.3150   47.3950  -20.1040 C.3   131  ILE131      0.0019
     77  CG2      -21.8960   49.4550  -20.2300 C.3   131  ILE131      0.0020
     78  CD1      -22.2250   46.3230  -20.3670 C.3   131  ILE131      0.0001
     79  N        -20.4800   49.8360  -17.2730 N.am  132  ASN132     -0.1974
     80  CA       -19.9960   50.9440  -16.4790 C.3   132  ASN132      0.1688
     81  C        -18.6670   51.3990  -17.1260 C.2   132  ASN132      0.2292
     82  O        -18.1160   50.6960  -17.9900 O.2   132  ASN132     -0.2864
     83  CB       -19.7450   50.4810  -15.0170 C.3   132  ASN132      0.1181
     84  CG       -19.9420   51.5820  -13.9720 C.2   132  ASN132      0.2629
     85  OD1      -19.7830   52.7740  -14.3100 O.2   132  ASN132     -0.2716
     86  ND2      -20.1910   51.1950  -12.7450 N.am  132  ASN132     -0.0877
     87  N        -26.5430   52.6020  -15.5280 N.3   168  THR168     -0.1203
     88  CA       -27.0440   53.9140  -14.9960 C.3   168  THR168      0.1994
     89  C        -26.3390   54.9740  -15.8030 C.2   168  THR168      0.2618
     90  O        -25.1840   54.7330  -16.3480 O.2   168  THR168     -0.2717
     91  CB       -26.7350   54.1220  -13.5300 C.3   168  THR168      0.1784
     92  OG1      -25.3070   54.1270  -13.2470 O.3   168  THR168     -0.2211
     93  CG2      -27.4160   53.1090  -12.6160 C.3   168  THR168      0.0376
     94  N        -26.9470   56.1700  -15.9350 N.am  169  ALA169     -0.1965
     95  CA       -26.3100   57.2940  -16.6230 C.3   169  ALA169      0.1728
     96  C        -26.9670   58.6100  -16.1050 C.2   169  ALA169      0.2613
     97  O        -28.1570   58.5740  -15.6700 O.2   169  ALA169     -0.2715
     98  CB       -26.3910   57.2250  -18.1260 C.3   169  ALA169      0.0334
     99  N        -26.2160   59.7100  -16.1760 N.am  170  GLY170     -0.2012
    100  CA       -26.8340   61.0250  -15.7880 C.3   170  GLY170      0.1506
    101  C        -27.5910   61.5950  -16.9240 C.3   170  GLY170      0.2054
    102  O        -28.3280   62.6230  -16.6500 O.3   170  GLY170     -0.2184
    103  N        -29.6270   62.5770   -6.5550 N.3   182  TYR182     -0.1227
    104  CA       -28.5700   62.5010   -5.5530 C.3   182  TYR182      0.1736
    105  C        -28.6010   63.6910   -4.5770 C.2   182  TYR182      0.2595
    106  O        -29.0730   64.8030   -4.9700 O.2   182  TYR182     -0.2718
    107  CB       -27.1520   62.3530   -6.1980 C.3   182  TYR182      0.0548
    108  CG       -26.9020   63.1590   -7.4440 C.ar  182  TYR182     -0.0200
    109  CD1      -26.4770   64.4830   -7.3970 C.ar  182  TYR182     -0.0009
    110  CD2      -27.0740   62.5220   -8.7140 C.ar  182  TYR182     -0.0009
    111  CE1      -26.2140   65.2270   -8.6100 C.ar  182  TYR182      0.0417
    112  CE2      -26.8200   63.2220   -9.9090 C.ar  182  TYR182      0.0417
    113  CZ       -26.4190   64.5200   -9.8320 C.ar  182  TYR182      0.1957
    114  OH       -26.1240   65.2090  -11.0300 O.3   182  TYR182     -0.2866
    115  N        -28.2240   63.4130   -3.3520 N.am  183  TRP183     -0.1976
    116  CA       -28.1840   64.3570   -2.2410 C.3   183  TRP183      0.1640
    117  C        -26.8400   64.3010   -1.6140 C.2   183  TRP183      0.2290
    118  O        -26.0530   63.3420   -1.7380 O.2   183  TRP183     -0.2864
    119  CB       -29.2560   63.9190   -1.2120 C.3   183  TRP183      0.0576
    120  CG       -30.6720   64.0620   -1.6090 C.ar  183  TRP183      0.0006
    121  CD1      -31.3210   63.3670   -2.6170 C.ar  183  TRP183      0.0946
    122  CD2      -31.6660   64.8520   -0.9320 C.ar  183  TRP183      0.0152
    123  NE1      -32.6970   63.7250   -2.6120 N.ar  183  TRP183     -0.2442
    124  CE2      -32.8960   64.6290   -1.5710 C.ar  183  TRP183      0.0810
    125  CE3      -31.5750   65.7190    0.1880 C.ar  183  TRP183      0.0012
    126  CZ2      -34.1500   65.2860   -1.1570 C.ar  183  TRP183      0.0191
    127  CZ3      -32.7680   66.4380    0.5890 C.ar  183  TRP183      0.0001
    128  CH2      -34.0350   66.1530   -0.0590 C.ar  183  TRP183      0.0015
    129  N        -17.8760   73.6940   -3.5130 N.3   197  PHE197     -0.1241
    130  CA       -18.9280   72.6440   -3.5350 C.3   197  PHE197      0.1605
    131  C        -20.2000   73.1910   -2.9080 C.2   197  PHE197      0.2264
    132  O        -21.2990   72.9340   -3.3280 O.2   197  PHE197     -0.2867
    133  CB       -18.3700   71.4040   -2.7540 C.3   197  PHE197      0.0534
    134  CG       -19.3070   70.2460   -2.7330 C.ar  197  PHE197     -0.0203
    135  CD1      -19.1160   69.1730   -3.6730 C.ar  197  PHE197     -0.0042
    136  CD2      -20.3630   70.1930   -1.8490 C.ar  197  PHE197     -0.0042
    137  CE1      -19.9920   68.0670   -3.5940 C.ar  197  PHE197     -0.0003
    138  CE2      -21.2420   69.1160   -1.8320 C.ar  197  PHE197     -0.0003
    139  CZ       -21.0710   68.0840   -2.7350 C.ar  197  PHE197     -0.0000
    140  N        -18.7180   53.5510   -0.1250 N.3   287  TYR287     -0.1241
    141  CA       -17.4490   53.4260   -0.8930 C.3   287  TYR287      0.1605
    142  C        -16.7270   54.8160   -1.0250 C.2   287  TYR287      0.2264
    143  O        -17.3760   55.8840   -0.8290 O.2   287  TYR287     -0.2867
    144  CB       -17.6540   52.7150   -2.2670 C.3   287  TYR287      0.0534
    145  CG       -18.6150   53.4070   -3.2620 C.ar  287  TYR287     -0.0201
    146  CD1      -18.1820   54.4490   -4.1050 C.ar  287  TYR287     -0.0009
    147  CD2      -19.9590   52.9660   -3.3750 C.ar  287  TYR287     -0.0009
    148  CE1      -19.0570   55.0190   -5.0530 C.ar  287  TYR287      0.0417
    149  CE2      -20.8250   53.5090   -4.2680 C.ar  287  TYR287      0.0417
    150  CZ       -20.3570   54.5370   -5.0990 C.ar  287  TYR287      0.1957
    151  OH       -21.2070   55.1800   -5.9870 O.3   287  TYR287     -0.2866
    152  N        -13.2100   63.3730   -5.8170 N.3   291  SER291     -0.1217
    153  CA       -13.2890   64.1250   -7.0960 C.3   291  SER291      0.1889
    154  C        -12.1480   65.1290   -7.1760 C.2   291  SER291      0.2288
    155  O        -11.8330   65.8430   -6.1740 O.2   291  SER291     -0.2866
    156  CB       -14.6110   64.8360   -7.2540 C.3   291  SER291      0.2089
    157  OG       -15.7180   63.8900   -7.5720 O.3   291  SER291     -0.2183
    158  N        -11.4850   66.5950   -3.4270 N.3   302  LEU302     -0.1245
    159  CA       -12.6310   66.5270   -2.5360 C.3   302  LEU302      0.1561
    160  C        -12.7680   65.0690   -2.0740 C.2   302  LEU302      0.2260
    161  O        -12.8420   64.1370   -2.9420 O.2   302  LEU302     -0.2867
    162  CB       -13.8560   66.9420   -3.3420 C.3   302  LEU302      0.0270
    163  CG       -15.3470   66.7230   -2.8640 C.3   302  LEU302      0.0019
    164  CD1      -15.5890   67.8170   -1.8180 C.3   302  LEU302      0.0001
    165  CD2      -16.4560   66.6860   -3.9160 C.3   302  LEU302      0.0001
    166  N        -19.7140   57.5280   -0.6030 N.3   306  TYR306     -0.1241
    167  CA       -20.9910   57.2580   -1.2550 C.3   306  TYR306      0.1605
    168  C        -21.7020   56.1260   -0.5600 C.2   306  TYR306      0.2264
    169  O        -21.1740   54.9860   -0.4570 O.2   306  TYR306     -0.2867
    170  CB       -20.7700   56.8740   -2.7740 C.3   306  TYR306      0.0534
    171  CG       -20.2670   58.0610   -3.5450 C.ar  306  TYR306     -0.0201
    172  CD1      -21.1770   58.7280   -4.3400 C.ar  306  TYR306     -0.0009
    173  CD2      -18.9450   58.5510   -3.4240 C.ar  306  TYR306     -0.0009
    174  CE1      -20.8480   59.9050   -5.0360 C.ar  306  TYR306      0.0417
    175  CE2      -18.5890   59.7220   -4.1400 C.ar  306  TYR306      0.0417
    176  CZ       -19.5870   60.4080   -4.9040 C.ar  306  TYR306      0.1957
    177  OH       -19.1910   61.6070   -5.5500 O.3   306  TYR306     -0.2866
    178  N        -22.4680   61.2700    0.2130 N.3   337  ASN337     -0.1225
    179  CA       -23.4370   61.3480   -0.8980 C.3   337  ASN337      0.1785
    180  C        -24.3620   60.1920   -0.8760 C.2   337  ASN337      0.2597
    181  O        -23.8940   59.0320   -0.6050 O.2   337  ASN337     -0.2718
    182  CB       -22.6820   61.3790   -2.2410 C.3   337  ASN337      0.1169
    183  CG       -21.7440   62.5760   -2.3750 C.2   337  ASN337      0.2627
    184  OD1      -22.1800   63.6460   -2.4560 O.2   337  ASN337     -0.2716
    185  ND2      -20.4810   62.3620   -2.1690 N.am  337  ASN337     -0.0877
    186  N        -25.6220   60.3550   -1.1960 N.am  338  ALA338     -0.1966
    187  CA       -26.5870   59.2430   -1.2560 C.3   338  ALA338      0.1728
    188  C        -27.6210   59.5320   -2.2730 C.2   338  ALA338      0.2616
    189  O        -27.9970   60.7420   -2.5030 O.2   338  ALA338     -0.2715
    190  CB       -27.2480   58.9880    0.1190 C.3   338  ALA338      0.0334
    191  N        -28.1810   58.5400   -2.9260 N.am  339  LEU339     -0.1977
    192  CA       -29.3240   58.7000   -3.7940 C.3   339  LEU339      0.1596
    193  C        -30.6280   58.5950   -3.0190 C.2   339  LEU339      0.2287
    194  O        -30.6160   58.1760   -1.8190 O.2   339  LEU339     -0.2864
    195  CB       -29.2800   57.5490   -4.8570 C.3   339  LEU339      0.0297
    196  CG       -28.0360   57.6430   -5.7940 C.3   339  LEU339      0.0022
    197  CD1      -27.7650   56.2900   -6.4090 C.3   339  LEU339      0.0001
    198  CD2      -28.2630   58.6890   -6.8890 C.3   339  LEU339      0.0001
    199  N        -29.6970   60.5070  -11.5400 N.3   360  LEU360     -0.1301
    200  CA       -29.0360   59.2440  -12.0410 C.3   360  LEU360      0.1247
    201  C        -30.1780   58.4180  -12.5020 C.3   360  LEU360      0.2009
    202  O        -31.0880   58.0050  -11.6900 O.3   360  LEU360     -0.2188
    203  CB       -28.2240   58.5900  -10.9180 C.3   360  LEU360      0.0217
    204  CG       -27.4050   57.3830  -11.4430 C.3   360  LEU360      0.0015
    205  CD1      -26.2940   57.8030  -12.4190 C.3   360  LEU360      0.0000
    206  CD2      -26.8310   56.6050  -10.2570 C.3   360  LEU360      0.0000
    207  N        -24.6940   51.1160   -8.3990 N.3   381  LEU381     -0.1231
    208  CA       -23.4330   50.8620   -9.1960 C.3   381  LEU381      0.1693
    209  C        -22.3640   51.9000   -8.8280 C.2   381  LEU381      0.2588
    210  O        -22.7320   53.0640   -8.5170 O.2   381  LEU381     -0.2718
    211  CB       -23.7180   50.9630  -10.7200 C.3   381  LEU381      0.0284
    212  CG       -24.6210   49.8800  -11.2900 C.3   381  LEU381      0.0019
    213  CD1      -24.5930   49.9930  -12.8140 C.3   381  LEU381      0.0001
    214  CD2      -24.5000   48.4750  -10.8100 C.3   381  LEU381      0.0001
    215  N        -21.1030   51.5620   -8.9040 N.am  382  GLN382     -0.2033
    216  CA       -20.0460   52.5030   -8.5850 C.3   382  GLN382      0.1287
    217  C        -19.8590   53.5330   -9.6430 C.3   382  GLN382      0.2036
    218  O        -19.2490   54.5730   -9.2650 O.3   382  GLN382     -0.2185
    219  CB       -18.6970   51.7340   -8.4580 C.3   382  GLN382      0.0340
    220  CG       -18.6120   50.7350   -7.2840 C.3   382  GLN382      0.0904
    221  CD       -19.3530   49.4420   -7.5290 C.2   382  GLN382      0.2608
    222  OE1      -19.7360   49.0810   -8.6550 O.2   382  GLN382     -0.2717
    223  NE2      -19.6660   48.7180   -6.4660 N.am  382  GLN382     -0.0878
@<TRIPOS>BOND
     1    78    76    1
     2    77    75    1
     3    76    75    1
     4    75    72    1
     5    98    95    1
     6    72    73    1
     7    72    71    1
     8    82    81    2
     9     1     2    1
    10    73    79   am
    11    73    74    2
    12    79    80    1
    13    81    80    1
    14     7     9   ar
    15     7     6   ar
    16    27    26   ar
    17    28    26   ar
    18     2     3    1
    19     2     5    1
    20     9    11   ar
    21   101   102    1
    22   101   100    1
    23     4     3    2
    24    26    25    1
    25    95    96    1
    26    95    94    1
    27    80    83    1
    28     3    13   am
    29    90    89    2
    30    99    96   am
    31    99   100    1
    32    96    97    2
    33     5     6    1
    34    94    89   am
    35     6     8   ar
    36    89    88    1
    37    11    12    1
    38    11    10   ar
    39    13    14    1
    40    25    24    1
    41    87    88    1
    42    19    17    1
    43    14    17    1
    44    14    15    1
    45    24    21    1
    46    83    84    1
    47    88    91    1
    48    20    15   am
    49    20    21    1
    50     8    10   ar
    51    17    18    1
    52    15    16    2
    53    85    84    2
    54    23    22    2
    55    21    22    1
    56    32    31    2
    57    84    86   am
    58    22    29   am
    59    91    92    1
    60    91    93    1
    61    31    30    1
    62   213   212    1
    63    29    30    1
    64   201   200    1
    65   201   202    1
    66   205   204    1
    67   200   199    1
    68   200   203    1
    69    30    33    1
    70    51    50    2
    71    40    39    2
    72   204   203    1
    73   204   206    1
    74    35    34   ar
    75   212   214    1
    76   212   211    1
    77    67    65   ar
    78    67    69   ar
    79    48    49    1
    80    54    56   ar
    81    54    53   ar
    82    65    64   ar
    83   114   113    1
    84    39    38    1
    85    52    49    1
    86    52    53    1
    87    56    58   ar
    88   211   208    1
    89    34    33    1
    90    34    36   ar
    91    70    69    1
    92    37    38    1
    93    50    49    1
    94    69    68   ar
    95    53    55   ar
    96    64    63    1
    97    64    66   ar
    98    63    60    1
    99    62    61    2
   100    38    41    1
   101   112   113   ar
   102   112   110   ar
   103   113   111   ar
   104   217   218    1
   105   217   216    1
   106    59    60    1
   107    68    66   ar
   108    58    57   ar
   109   208   209    1
   110   208   207    1
   111    55    57   ar
   112    60    61    1
   113   215   209   am
   114   215   216    1
   115   209   210    2
   116   110   108   ar
   117    41    42    1
   118   222   221    2
   119   111   109   ar
   120   216   219    1
   121   219   220    1
   122    42    44   ar
   123    42    43   ar
   124   157   156    1
   125    44    46   ar
   126   221   220    1
   127   221   223   am
   128   108   109   ar
   129   108   107    1
   130   156   153    1
   131   154   153    1
   132   154   155    2
   133   153   152    1
   134    43    45   ar
   135   198   196    1
   136    46    47   ar
   137   103   104    1
   138   197   196    1
   139   107   104    1
   140    45    47   ar
   141   151   150    1
   142   196   195    1
   143   104   105    1
   144   177   176    1
   145   150   148   ar
   146   150   149   ar
   147   148   146   ar
   148   174   176   ar
   149   174   172   ar
   150   106   105    2
   151   176   175   ar
   152   195   192    1
   153   105   115   am
   154   172   171   ar
   155   149   147   ar
   156   175   173   ar
   157   146   145   ar
   158   165   163    1
   159   192   193    1
   160   192   191    1
   161   135   137   ar
   162   135   134   ar
   163   137   139   ar
   164   171   173   ar
   165   171   170    1
   166   130   129    1
   167   130   131    1
   168   130   133    1
   169   158   159    1
   170   147   145   ar
   171   115   116    1
   172   162   163    1
   173   162   159    1
   174   132   131    2
   175   145   144    1
   176   193   194    2
   177   161   160    2
   178   191   188   am
   179   163   164    1
   180   170   167    1
   181   133   134    1
   182   139   138   ar
   183   134   136   ar
   184   121   123   ar
   185   121   120   ar
   186   123   124   ar
   187   159   160    1
   188   189   188    2
   189   184   183    2
   190   183   182    1
   191   183   185   am
   192   188   187    1
   193   144   141    1
   194   182   179    1
   195   116   117    1
   196   116   119    1
   197   136   138   ar
   198   118   117    2
   199   120   119    1
   200   120   122   ar
   201   124   126   ar
   202   124   122   ar
   203   187   186    1
   204   187   190    1
   205   167   166    1
   206   167   168    1
   207   186   180   am
   208   126   128   ar
   209   142   141    1
   210   142   143    2
   211   122   125   ar
   212   179   180    1
   213   179   178    1
   214   141   140    1
   215   180   181    2
   216   168   169    2
   217   128   127   ar
   218   125   127   ar
