@<TRIPOS>MOLECULE
tmp/5o6mD00.pdb
 190 181 0 0 0
SMALL
GASTEIGER

@<TRIPOS>ATOM
      1  N        -16.9090  -29.7130  -35.2700 N.3    66  ASP66      -0.1239
      2  CA       -17.0310  -31.1370  -35.5510 C.3    66  ASP66       0.1674
      3  C        -16.9410  -31.3780  -37.0510 C.2    66  ASP66       0.2266
      4  O        -17.5660  -30.6690  -37.8450 O.2    66  ASP66      -0.2867
      5  CB       -18.3520  -31.6750  -35.0010 C.3    66  ASP66       0.1410
      6  CG       -18.4650  -31.5170  -33.4990 C.2    66  ASP66       0.3668
      7  OD1      -17.4130  -31.4740  -32.8250 O.co2  66  ASP66      -0.2456
      8  OD2      -19.6050  -31.4330  -32.9940 O.co2  66  ASP66      -0.2456
      9  N         -9.7300  -32.1880  -37.9600 N.3    70  LYS70      -0.1231
     10  CA        -8.5830  -32.3830  -37.0750 C.3    70  LYS70       0.1693
     11  C         -7.9730  -33.7690  -37.2680 C.2    70  LYS70       0.2592
     12  O         -6.7440  -33.9080  -37.3340 O.2    70  LYS70      -0.2718
     13  CB        -8.9690  -32.1440  -35.6110 C.3    70  LYS70       0.0285
     14  CG       -10.1100  -32.9910  -35.0760 C.3    70  LYS70       0.0035
     15  CD       -10.5110  -32.5240  -33.6760 C.3    70  LYS70       0.0206
     16  CE       -11.3700  -33.5630  -32.9600 C.3    70  LYS70       0.1093
     17  NZ       -10.9720  -34.9650  -33.3060 N.3    70  LYS70      -0.1314
     18  N         -8.8120  -34.8060  -37.3810 N.am   71  ASP71      -0.1974
     19  CA        -8.2840  -36.1480  -37.6100 C.3    71  ASP71       0.1709
     20  C         -7.5150  -36.2240  -38.9250 C.2    71  ASP71       0.2293
     21  O         -6.4300  -36.8140  -38.9830 O.2    71  ASP71      -0.2864
     22  CB        -9.4150  -37.1820  -37.5910 C.3    71  ASP71       0.1436
     23  CG       -10.0860  -37.3060  -36.2250 C.2    71  ASP71       0.3671
     24  OD1       -9.4290  -37.0370  -35.1940 O.co2  71  ASP71      -0.2456
     25  OD2      -11.2790  -37.6770  -36.1830 O.co2  71  ASP71      -0.2456
     26  N         -5.4680  -37.2230  -26.9180 N.3    90  SER90      -0.1202
     27  CA        -6.8490  -36.8680  -27.2000 C.3    90  SER90       0.2020
     28  C         -7.5650  -36.5230  -25.9050 C.2    90  SER90       0.2619
     29  O         -7.3100  -37.1310  -24.8630 O.2    90  SER90      -0.2717
     30  CB        -7.5790  -38.0200  -27.8930 C.3    90  SER90       0.2103
     31  OG        -7.0020  -38.3110  -29.1460 O.3    90  SER90      -0.2182
     32  N         -8.4510  -35.5350  -25.9720 N.am   91  PHE91      -0.1961
     33  CA        -9.2470  -35.1210  -24.8260 C.3    91  PHE91       0.1771
     34  C        -10.7210  -35.2560  -25.1800 C.2    91  PHE91       0.2620
     35  O        -11.2150  -34.5580  -26.0710 O.2    91  PHE91      -0.2715
     36  CB        -8.9070  -33.6900  -24.3990 C.3    91  PHE91       0.0574
     37  CG        -7.5030  -33.5300  -23.8760 C.ar   91  PHE91      -0.0200
     38  CD1       -7.1910  -33.9020  -22.5740 C.ar   91  PHE91      -0.0042
     39  CD2       -6.5000  -33.0070  -24.6800 C.ar   91  PHE91      -0.0042
     40  CE1       -5.9070  -33.7620  -22.0840 C.ar   91  PHE91      -0.0003
     41  CE2       -5.2100  -32.8610  -24.1960 C.ar   91  PHE91      -0.0003
     42  CZ        -4.9120  -33.2400  -22.8980 C.ar   91  PHE91      -0.0000
     43  N        -11.4150  -36.1550  -24.4790 N.am   92  GLY92      -0.1940
     44  CA       -12.8350  -36.3440  -24.6190 C.3    92  GLY92       0.2014
     45  C        -13.5940  -35.8430  -23.4070 C.2    92  GLY92       0.2639
     46  O        -13.0880  -35.0490  -22.6060 O.2    92  GLY92      -0.2714
     47  N        -14.8230  -36.3190  -23.2620 N.am   93  VAL93      -0.1963
     48  CA       -15.6540  -35.8080  -22.1660 C.3    93  VAL93       0.1712
     49  C        -15.0290  -36.2090  -20.8320 C.2    93  VAL93       0.2458
     50  O        -14.6960  -37.3900  -20.6320 O.2    93  VAL93      -0.2730
     51  CB       -17.0930  -36.3200  -22.2940 C.3    93  VAL93       0.0289
     52  CG1      -17.2680  -37.1220  -23.5730 C.3    93  VAL93       0.0023
     53  CG2      -17.5050  -37.1280  -21.0630 C.3    93  VAL93       0.0023
     54  N        -14.8310  -35.2720  -19.9070 N.am   94  PRO94      -0.2727
     55  CA       -14.0860  -35.5810  -18.6780 C.3    94  PRO94       0.1402
     56  C        -14.7400  -36.6870  -17.8590 C.2    94  PRO94       0.2269
     57  O        -15.9650  -36.7580  -17.7400 O.2    94  PRO94      -0.2865
     58  CB       -14.0950  -34.2500  -17.9170 C.3    94  PRO94       0.0296
     59  CG       -14.2680  -33.2090  -18.9720 C.3    94  PRO94       0.0237
     60  CD       -15.1390  -33.8380  -20.0310 C.3    94  PRO94       0.0939
     61  N         -5.8910  -32.6850  -16.0220 N.3   106  ARG106     -0.1245
     62  CA        -5.7550  -33.7420  -17.0170 C.3   106  ARG106      0.1563
     63  C         -5.0000  -33.2840  -18.2590 C.2   106  ARG106      0.2260
     64  O         -4.4510  -34.1240  -18.9780 O.2   106  ARG106     -0.2867
     65  CB        -7.1300  -34.2810  -17.4150 C.3   106  ARG106      0.0307
     66  CG        -7.9650  -33.3150  -18.2300 C.3   106  ARG106      0.0489
     67  CD        -9.1840  -34.0150  -18.7940 C.3   106  ARG106      0.2205
     68  NE        -9.8780  -33.1930  -19.7800 N.pl3 106  ARG106     -0.0865
     69  CZ       -10.7930  -33.6610  -20.6210 C.cat 106  ARG106      0.5346
     70  NH1      -11.1260  -34.9450  -20.5880 N.pl3 106  ARG106      0.1354
     71  NH2      -11.3740  -32.8460  -21.4920 N.pl3 106  ARG106      0.1354
     72  N         -5.2160  -33.3500  -29.5710 N.3   121  ASP121     -0.1225
     73  CA        -6.4320  -33.5720  -30.3520 C.3   121  ASP121      0.1805
     74  C         -7.5880  -33.1120  -29.4750 C.2   121  ASP121      0.2597
     75  O         -8.1070  -33.8620  -28.6460 O.2   121  ASP121     -0.2718
     76  CB        -6.5480  -35.0360  -30.7590 C.3   121  ASP121      0.1424
     77  CG        -7.9200  -35.3920  -31.2950 C.2   121  ASP121      0.3668
     78  OD1       -8.6090  -34.4980  -31.8240 O.co2 121  ASP121     -0.2456
     79  OD2       -8.3070  -36.5740  -31.1870 O.co2 121  ASP121     -0.2456
     80  N         -7.9900  -31.8520  -29.6610 N.am  122  ARG122     -0.1979
     81  CA        -8.7750  -31.1240  -28.6690 C.3   122  ARG122      0.1597
     82  C         -7.8830  -30.8430  -27.4650 C.2   122  ARG122      0.2287
     83  O         -6.8030  -31.4320  -27.3480 O.2   122  ARG122     -0.2864
     84  CB       -10.0250  -31.9080  -28.2680 C.3   122  ARG122      0.0334
     85  CG       -11.0450  -32.0430  -29.3910 C.3   122  ARG122      0.0492
     86  CD       -12.3370  -32.6710  -28.8940 C.3   122  ARG122      0.2205
     87  NE       -13.1980  -33.0760  -30.0010 N.pl3 122  ARG122     -0.0865
     88  CZ       -14.0830  -32.2810  -30.5920 C.cat 122  ARG122      0.5346
     89  NH1      -14.2360  -31.0290  -30.1780 N.pl3 122  ARG122      0.1354
     90  NH2      -14.8200  -32.7420  -31.5920 N.pl3 122  ARG122      0.1354
     91  N        -11.4800  -26.7430  -24.8270 N.3   126  GLU126     -0.1231
     92  CA       -12.8340  -27.2670  -24.6810 C.3   126  GLU126      0.1699
     93  C        -13.5070  -26.7730  -23.4070 C.2   126  GLU126      0.2592
     94  O        -14.7410  -26.7510  -23.3410 O.2   126  GLU126     -0.2718
     95  CB       -12.8160  -28.7970  -24.7070 C.3   126  GLU126      0.0402
     96  CG       -12.3730  -29.3920  -26.0350 C.3   126  GLU126      0.1161
     97  CD       -13.4110  -29.2150  -27.1330 C.2   126  GLU126      0.3649
     98  OE1      -14.6140  -29.1250  -26.8060 O.co2 126  GLU126     -0.2457
     99  OE2      -13.0270  -29.1720  -28.3220 O.co2 126  GLU126     -0.2457
    100  N        -12.7350  -26.3890  -22.3900 N.am  127  ASP127     -0.1974
    101  CA       -13.3120  -25.9050  -21.1420 C.3   127  ASP127      0.1709
    102  C        -13.7380  -24.4420  -21.2050 C.2   127  ASP127      0.2293
    103  O        -14.1970  -23.9050  -20.1900 O.2   127  ASP127     -0.2864
    104  CB       -12.3300  -26.1250  -19.9880 C.3   127  ASP127      0.1436
    105  CG       -12.2000  -27.5910  -19.6090 C.2   127  ASP127      0.3671
    106  OD1      -13.1790  -28.1540  -19.0720 O.co2 127  ASP127     -0.2456
    107  OD2      -11.1280  -28.1860  -19.8470 O.co2 127  ASP127     -0.2456
    108  N        -17.2150  -26.0460  -25.5080 N.3   130  VAL130     -0.1231
    109  CA       -18.4040  -26.8280  -25.1810 C.3   130  VAL130      0.1692
    110  C        -18.8670  -26.5190  -23.7600 C.2   130  VAL130      0.2591
    111  O        -20.0690  -26.5070  -23.4740 O.2   130  VAL130     -0.2718
    112  CB       -18.1410  -28.3320  -25.3870 C.3   130  VAL130      0.0266
    113  CG1      -17.0120  -28.8120  -24.4830 C.3   130  VAL130      0.0020
    114  CG2      -19.4120  -29.1270  -25.1310 C.3   130  VAL130      0.0020
    115  N        -17.9220  -26.2710  -22.8480 N.am  131  VAL131     -0.1980
    116  CA       -18.2870  -25.9300  -21.4750 C.3   131  VAL131      0.1595
    117  C        -19.0580  -24.6160  -21.4440 C.2   131  VAL131      0.2287
    118  O        -20.0140  -24.4560  -20.6760 O.2   131  VAL131     -0.2864
    119  CB       -17.0300  -25.8730  -20.5870 C.3   131  VAL131      0.0276
    120  CG1      -17.3360  -25.1550  -19.2720 C.3   131  VAL131      0.0022
    121  CG2      -16.5000  -27.2720  -20.3260 C.3   131  VAL131      0.0022
    122  N        -21.8090  -25.7190  -18.9970 N.3   136  LEU136     -0.1245
    123  CA       -21.4530  -26.7990  -18.0850 C.3   136  LEU136      0.1561
    124  C        -20.9640  -26.2640  -16.7480 C.2   136  LEU136      0.2260
    125  O        -20.9690  -27.0010  -15.7580 O.2   136  LEU136     -0.2867
    126  CB       -20.3980  -27.7010  -18.7240 C.3   136  LEU136      0.0270
    127  CG       -20.8400  -28.3890  -20.0180 C.3   136  LEU136      0.0019
    128  CD1      -19.7630  -29.3370  -20.5280 C.3   136  LEU136      0.0001
    129  CD2      -22.1580  -29.1260  -19.8160 C.3   136  LEU136      0.0001
    130  N        -19.8880  -38.4050  -43.9740 N.3   182  ARG182     -0.1245
    131  CA       -19.5770  -39.2990  -42.8640 C.3   182  ARG182      0.1563
    132  C        -20.6250  -40.3990  -42.7370 C.2   182  ARG182      0.2260
    133  O        -20.2960  -41.5440  -42.4020 O.2   182  ARG182     -0.2867
    134  CB       -19.4850  -38.4900  -41.5700 C.3   182  ARG182      0.0307
    135  CG       -18.7410  -39.1590  -40.4240 C.3   182  ARG182      0.0489
    136  CD       -18.4560  -38.1380  -39.3250 C.3   182  ARG182      0.2205
    137  NE       -17.2410  -37.3660  -39.5790 N.pl3 182  ARG182     -0.0865
    138  CZ       -16.4920  -36.8200  -38.6250 C.cat 182  ARG182      0.5346
    139  NH1      -15.3960  -36.1390  -38.9390 N.pl3 182  ARG182      0.1354
    140  NH2      -16.8520  -36.9360  -37.3570 N.pl3 182  ARG182      0.1354
    141  N        -18.8820  -44.9480  -38.2730 N.3   190  TRP190     -0.1227
    142  CA       -18.5550  -45.0670  -36.8570 C.3   190  TRP190      0.1737
    143  C        -18.1900  -43.7220  -36.2400 C.2   190  TRP190      0.2595
    144  O        -18.3330  -43.5520  -35.0250 O.2   190  TRP190     -0.2718
    145  CB       -17.4020  -46.0540  -36.6540 C.3   190  TRP190      0.0564
    146  CG       -16.1150  -45.5740  -37.2400 C.ar  190  TRP190      0.0003
    147  CD1      -15.7180  -45.6620  -38.5410 C.ar  190  TRP190      0.0946
    148  CD2      -15.0610  -44.9000  -36.5420 C.ar  190  TRP190      0.0152
    149  NE1      -14.4750  -45.0960  -38.6960 N.ar  190  TRP190     -0.2442
    150  CE2      -14.0510  -44.6180  -37.4830 C.ar  190  TRP190      0.0810
    151  CE3      -14.8730  -44.5120  -35.2090 C.ar  190  TRP190      0.0012
    152  CZ2      -12.8680  -43.9680  -37.1350 C.ar  190  TRP190      0.0191
    153  CZ3      -13.6980  -43.8630  -34.8660 C.ar  190  TRP190      0.0001
    154  CH2      -12.7100  -43.5990  -35.8260 C.ar  190  TRP190      0.0015
    155  N        -17.7260  -42.7620  -37.0470 N.am  191  LYS191     -0.1980
    156  CA       -17.3770  -41.4400  -36.5380 C.3   191  LYS191      0.1596
    157  C        -18.5840  -40.5620  -36.2390 C.2   191  LYS191      0.2287
    158  O        -18.4420  -39.5700  -35.5160 O.2   191  LYS191     -0.2864
    159  CB       -16.4780  -40.6990  -37.5320 C.3   191  LYS191      0.0298
    160  CG       -15.0690  -41.2360  -37.6680 C.3   191  LYS191      0.0038
    161  CD       -14.3870  -40.6080  -38.8760 C.3   191  LYS191      0.0206
    162  CE       -12.8860  -40.8140  -38.8420 C.3   191  LYS191      0.1093
    163  NZ       -12.2430  -39.9280  -37.8270 N.3   191  LYS191     -0.1314
    164  N        -21.8710  -39.2460  -34.5470 N.3   193  ARG193     -0.1245
    165  CA       -22.7020  -39.2930  -33.3560 C.3   193  ARG193      0.1563
    166  C        -23.9320  -38.4180  -33.5530 C.2   193  ARG193      0.2260
    167  O        -23.9190  -37.4680  -34.3420 O.2   193  ARG193     -0.2867
    168  CB       -21.9410  -38.8100  -32.1180 C.3   193  ARG193      0.0307
    169  CG       -20.7480  -39.6510  -31.7180 C.3   193  ARG193      0.0489
    170  CD       -20.1910  -39.1400  -30.4030 C.3   193  ARG193      0.2205
    171  NE       -18.9610  -39.8150  -30.0070 N.pl3 193  ARG193     -0.0865
    172  CZ       -18.2830  -39.5260  -28.9030 C.cat 193  ARG193      0.5346
    173  NH1      -18.7200  -38.5740  -28.0870 N.pl3 193  ARG193      0.1354
    174  NH2      -17.1700  -40.1870  -28.6120 N.pl3 193  ARG193      0.1354
    175  N        -23.4020  -34.9430  -32.6450 N.3   196  ASP196     -0.1239
    176  CA       -22.8960  -34.0990  -33.7230 C.3   196  ASP196      0.1674
    177  C        -23.9830  -33.1580  -34.2250 C.2   196  ASP196      0.2266
    178  O        -23.7070  -32.0090  -34.5900 O.2   196  ASP196     -0.2867
    179  CB       -22.3730  -34.9660  -34.8720 C.3   196  ASP196      0.1410
    180  CG       -20.9430  -35.4370  -34.6570 C.2   196  ASP196      0.3668
    181  OD1      -20.3800  -36.0620  -35.5840 O.co2 196  ASP196     -0.2456
    182  OD2      -20.3780  -35.1760  -33.5730 O.co2 196  ASP196     -0.2456
    183  N        -24.7420  -30.3510  -31.6350 N.3   199  ASP199     -0.1239
    184  CA       -23.6860  -29.3470  -31.7170 C.3   199  ASP199      0.1674
    185  C        -23.7940  -28.5350  -33.0010 C.2   199  ASP199      0.2266
    186  O        -23.4860  -27.3380  -33.0030 O.2   199  ASP199     -0.2867
    187  CB       -22.3120  -30.0120  -31.6170 C.3   199  ASP199      0.1410
    188  CG       -21.9950  -30.4940  -30.2100 C.2   199  ASP199      0.3668
    189  OD1      -22.5220  -29.9080  -29.2390 O.co2 199  ASP199     -0.2456
    190  OD2      -21.2180  -31.4630  -30.0760 O.co2 199  ASP199     -0.2456
@<TRIPOS>BOND
     1   130   131    1
     2   131   132    1
     3   131   134    1
     4   132   133    2
     5   134   135    1
     6   135   136    1
     7   137   136    1
     8   137   138    2
     9    21    20    2
    10   139   138    1
    11    20    19    1
    12   161   162    1
    13   161   160    1
    14   162   163    1
    15   149   147   ar
    16   149   150   ar
    17   138   140    1
    18   147   146   ar
    19   141   142    1
    20     9    10    1
    21     4     3    2
    22   160   159    1
    23    19    22    1
    24    19    18    1
    25    22    23    1
    26   159   156    1
    27   150   152   ar
    28   150   148   ar
    29    18    11   am
    30    12    11    2
    31    11    10    1
    32   146   145    1
    33   146   148   ar
    34   152   154   ar
    35    10    13    1
    36     3     2    1
    37   155   156    1
    38   155   143   am
    39   142   145    1
    40   142   143    1
    41   148   151   ar
    42   156   157    1
    43   143   144    2
    44   157   158    2
    45    23    25   ar
    46    23    24   ar
    47   154   153   ar
    48    13    14    1
    49   181   180   ar
    50     2     1    1
    51     2     5    1
    52   151   153   ar
    53    14    15    1
    54     5     6    1
    55   179   180    1
    56   179   176    1
    57   180   182   ar
    58   178   177    2
    59   164   165    1
    60   167   166    2
    61   177   176    1
    62   176   175    1
    63    15    16    1
    64   166   165    1
    65     6     8   ar
    66     6     7   ar
    67   165   168    1
    68    17    16    1
    69   186   185    2
    70   185   184    1
    71   168   169    1
    72    78    77   ar
    73   169   170    1
    74   184   183    1
    75   184   187    1
    76   187   188    1
    77    90    88    1
    78    77    79   ar
    79    77    76    1
    80    76    73    1
    81    88    89    1
    82    88    87    2
    83   170   171    1
    84    73    72    1
    85    73    74    1
    86   188   190   ar
    87   188   189   ar
    88   171   172    2
    89    87    86    1
    90    80    74   am
    91    80    81    1
    92    74    75    2
    93    85    86    1
    94    85    84    1
    95    31    30    1
    96   172   174    1
    97   172   173    1
    98    81    84    1
    99    81    82    1
   100    99    97   ar
   101    30    27    1
   102    82    83    2
   103    27    26    1
   104    27    28    1
   105    97    98   ar
   106    97    96    1
   107    35    34    2
   108    96    95    1
   109    32    28   am
   110    32    33    1
   111    28    29    2
   112   108   109    1
   113   112   109    1
   114   112   114    1
   115   112   113    1
   116   109   110    1
   117    34    33    1
   118    34    43   am
   119    91    92    1
   120    33    36    1
   121    95    92    1
   122    92    93    1
   123    39    41   ar
   124    39    37   ar
   125    44    43    1
   126    44    45    1
   127    36    37    1
   128    41    42   ar
   129    37    38   ar
   130   110   111    2
   131   110   115   am
   132    52    51    1
   133    93    94    2
   134    93   100   am
   135    45    47   am
   136    45    46    2
   137    47    48    1
   138    42    40   ar
   139   115   116    1
   140    38    40   ar
   141   100   101    1
   142    51    48    1
   143    51    53    1
   144    48    49    1
   145    71    69    1
   146   116   117    1
   147   116   119    1
   148   117   118    2
   149   102   101    1
   150   102   103    2
   151   101   104    1
   152    49    50    2
   153    49    54   am
   154    69    70    1
   155    69    68    2
   156   119   121    1
   157   119   120    1
   158   128   127    1
   159    60    54    1
   160    60    59    1
   161   127   129    1
   162   127   126    1
   163   104   105    1
   164    54    55    1
   165   107   105   ar
   166    68    67    1
   167   105   106   ar
   168   122   123    1
   169    64    63    2
   170    59    58    1
   171    67    66    1
   172   126   123    1
   173    55    58    1
   174    55    56    1
   175    63    62    1
   176    66    65    1
   177   123   124    1
   178    56    57    2
   179    65    62    1
   180    62    61    1
   181   124   125    2
