@<TRIPOS>MOLECULE
tmp/5o6oA02.pdb
 110 107 0 0 0
SMALL
GASTEIGER

@<TRIPOS>ATOM
      1  N        -12.0770  -37.4460  -19.4420 N.3    90  HIS90      -0.1227
      2  CA       -12.6640  -38.6720  -18.9220 C.3    90  HIS90       0.1737
      3  C        -13.7270  -39.1480  -19.9010 C.2    90  HIS90       0.2438
      4  O        -14.7230  -38.4360  -20.1190 O.2    90  HIS90      -0.2733
      5  CB       -13.2800  -38.4460  -17.5490 C.3    90  HIS90       0.0758
      6  CG       -13.5200  -39.7070  -16.7750 C.ar   90  HIS90       0.0818
      7  ND1      -14.2440  -40.7710  -17.2810 N.ar   90  HIS90      -0.2268
      8  CD2      -13.1490  -40.0660  -15.5220 C.ar   90  HIS90       0.1154
      9  CE1      -14.2820  -41.7390  -16.3800 C.ar   90  HIS90       0.1986
     10  NE2      -13.6310  -41.3340  -15.3050 N.ar   90  HIS90      -0.2212
     11  N        -13.5700  -40.3150  -20.5130 N.am   91  PRO91      -0.2729
     12  CA       -14.6300  -40.8500  -21.3660 C.3    91  PRO91       0.1401
     13  C        -15.8870  -41.1250  -20.5650 C.2    91  PRO91       0.2269
     14  O        -15.8470  -41.2370  -19.3310 O.2    91  PRO91      -0.2865
     15  CB       -14.0320  -42.1740  -21.8760 C.3    91  PRO91       0.0296
     16  CG       -12.5610  -42.0060  -21.7780 C.3    91  PRO91       0.0237
     17  CD       -12.3590  -41.1550  -20.5460 C.3    91  PRO91       0.0939
     18  N        -18.7370  -43.5020  -18.8960 N.3    93  PRO93      -0.2116
     19  CA       -18.6290  -44.8420  -18.3060 C.3    93  PRO93       0.1372
     20  C        -18.6030  -45.9100  -19.3900 C.2    93  PRO93       0.2244
     21  O        -19.4110  -45.8920  -20.3220 O.2    93  PRO93      -0.2868
     22  CB       -19.8930  -44.9500  -17.4480 C.3    93  PRO93       0.0268
     23  CG       -20.2690  -43.5450  -17.1410 C.3    93  PRO93       0.0207
     24  CD       -19.8520  -42.7260  -18.3250 C.3    93  PRO93       0.0892
     25  N        -11.6830  -46.6770  -10.0470 N.3   145  GLN145     -0.1231
     26  CA       -13.0350  -46.2110  -10.3140 C.3   145  GLN145      0.1698
     27  C        -13.7110  -47.2710  -11.1630 C.2   145  GLN145      0.2592
     28  O        -13.0560  -47.9700  -11.9360 O.2   145  GLN145     -0.2718
     29  CB       -12.9730  -44.8890  -11.1020 C.3   145  GLN145      0.0381
     30  CG       -14.2780  -44.1690  -11.3260 C.3   145  GLN145      0.0905
     31  CD       -14.0870  -42.8890  -12.1180 C.2   145  GLN145      0.2608
     32  OE1      -13.3320  -42.8530  -13.0970 O.2   145  GLN145     -0.2717
     33  NE2      -14.7190  -41.8140  -11.6610 N.am  145  GLN145     -0.0878
     34  N        -15.0280  -47.3800  -11.0270 N.am  146  ALA146     -0.1966
     35  CA       -15.7690  -48.3210  -11.8490 C.3   146  ALA146      0.1728
     36  C        -16.0290  -47.7510  -13.2400 C.2   146  ALA146      0.2616
     37  O        -16.1370  -46.5320  -13.4340 O.2   146  ALA146     -0.2715
     38  CB       -17.0950  -48.6770  -11.1750 C.3   146  ALA146      0.0334
     39  N        -16.0780  -48.6590  -14.2200 N.am  147  GLN147     -0.1963
     40  CA       -16.4090  -48.3490  -15.6170 C.3   147  GLN147      0.1733
     41  C        -15.4650  -47.3030  -16.2150 C.2   147  GLN147      0.2616
     42  O        -15.8800  -46.4130  -16.9570 O.2   147  GLN147     -0.2715
     43  CB       -17.8970  -47.9820  -15.7830 C.3   147  GLN147      0.0408
     44  CG       -18.7840  -49.1280  -15.2800 C.3   147  GLN147      0.0908
     45  CD       -20.1950  -49.0920  -15.7880 C.2   147  GLN147      0.2608
     46  OE1      -20.6560  -48.0920  -16.3120 O.2   147  GLN147     -0.2717
     47  NE2      -20.8940  -50.2090  -15.6310 N.am  147  GLN147     -0.0878
     48  N        -14.1720  -47.4430  -15.9230 N.am  148  ALA148     -0.1977
     49  CA       -13.1930  -46.4560  -16.3710 C.3   148  ALA148      0.1597
     50  C        -11.7790  -47.0360  -16.4610 C.2   148  ALA148      0.2287
     51  O        -10.8000  -46.3830  -16.0820 O.2   148  ALA148     -0.2864
     52  CB       -13.2080  -45.2580  -15.4180 C.3   148  ALA148      0.0319
     53  N        -13.7140  -35.3630   -6.8250 N.3   183  ASN183     -0.1240
     54  CA       -14.8300  -34.7610   -7.5410 C.3   183  ASN183      0.1653
     55  C        -14.7460  -33.2430   -7.4750 C.2   183  ASN183      0.2266
     56  O        -14.9560  -32.6460   -6.4140 O.2   183  ASN183     -0.2867
     57  CB       -16.1390  -35.2400   -6.9240 C.3   183  ASN183      0.1155
     58  CG       -16.4420  -36.6790   -7.2610 C.2   183  ASN183      0.2627
     59  OD1      -16.3210  -37.1060   -8.4070 O.2   183  ASN183     -0.2716
     60  ND2      -16.8240  -37.4490   -6.2530 N.am  183  ASN183     -0.0877
     61  N        -16.6630  -30.7790  -17.4450 N.3   188  LEU188     -0.1231
     62  CA       -16.5680  -32.2140  -17.6710 C.3   188  LEU188      0.1693
     63  C        -17.4940  -32.9780  -16.7300 C.2   188  LEU188      0.2592
     64  O        -18.1670  -33.9320  -17.1410 O.2   188  LEU188     -0.2718
     65  CB       -15.1250  -32.6770  -17.4660 C.3   188  LEU188      0.0284
     66  CG       -14.8190  -34.1730  -17.5940 C.3   188  LEU188      0.0019
     67  CD1      -15.2600  -34.6760  -18.9720 C.3   188  LEU188      0.0001
     68  CD2      -13.3440  -34.4090  -17.3740 C.3   188  LEU188      0.0001
     69  N        -17.4990  -32.6210  -15.4460 N.am  189  TRP189     -0.1976
     70  CA       -18.3900  -33.3180  -14.5240 C.3   189  TRP189      0.1640
     71  C        -19.8410  -33.1440  -14.9590 C.2   189  TRP189      0.2290
     72  O        -20.6240  -34.1010  -14.9750 O.2   189  TRP189     -0.2864
     73  CB       -18.1740  -32.8060  -13.0960 C.3   189  TRP189      0.0576
     74  CG       -18.1580  -33.8890  -12.0450 C.ar  189  TRP189      0.0006
     75  CD1      -17.0580  -34.3280  -11.3570 C.ar  189  TRP189      0.0946
     76  CD2      -19.2660  -34.6860  -11.5880 C.ar  189  TRP189      0.0152
     77  NE1      -17.4150  -35.3450  -10.5040 N.ar  189  TRP189     -0.2442
     78  CE2      -18.7630  -35.5640  -10.6010 C.ar  189  TRP189      0.0810
     79  CE3      -20.6370  -34.7230  -11.8880 C.ar  189  TRP189      0.0012
     80  CZ2      -19.5780  -36.5030   -9.9470 C.ar  189  TRP189      0.0191
     81  CZ3      -21.4500  -35.6550  -11.2180 C.ar  189  TRP189      0.0001
     82  CH2      -20.9130  -36.5210  -10.2570 C.ar  189  TRP189      0.0015
     83  N        -20.5730  -35.3070  -18.1520 N.3   192  LEU192     -0.1231
     84  CA       -20.7010  -36.7230  -17.8260 C.3   192  LEU192      0.1693
     85  C        -22.0240  -37.0050  -17.1330 C.2   192  LEU192      0.2591
     86  O        -22.7250  -37.9660  -17.4770 O.2   192  LEU192     -0.2718
     87  CB       -19.5380  -37.1610  -16.9400 C.3   192  LEU192      0.0284
     88  CG       -18.2660  -37.5550  -17.6900 C.3   192  LEU192      0.0019
     89  CD1      -17.0900  -37.6430  -16.7450 C.3   192  LEU192      0.0001
     90  CD2      -18.4680  -38.8870  -18.3850 C.3   192  LEU192      0.0001
     91  N        -22.3950  -36.1740  -16.1550 N.am  193  ALA193     -0.1980
     92  CA       -23.6660  -36.3920  -15.4570 C.3   193  ALA193      0.1597
     93  C        -24.8590  -36.3100  -16.4010 C.2   193  ALA193      0.2287
     94  O        -25.8450  -37.0300  -16.2070 O.2   193  ALA193     -0.2864
     95  CB       -23.8320  -35.3830  -14.3220 C.3   193  ALA193      0.0319
     96  N        -26.2310  -39.5140  -17.9150 N.3   196  MET196     -0.1245
     97  CA       -26.7840  -40.5580  -17.0690 C.3   196  MET196      0.1570
     98  C        -28.3020  -40.5450  -17.1120 C.2   196  MET196      0.2261
     99  O        -28.9150  -39.5260  -17.4360 O.2   196  MET196     -0.2867
    100  CB       -26.3640  -40.3440  -15.6210 C.3   196  MET196      0.0387
    101  CG       -24.8860  -40.2810  -15.4250 C.3   196  MET196      0.0595
    102  SD       -24.0180  -41.7380  -16.0220 S.3   196  MET196     -0.1393
    103  CE       -22.3720  -41.0110  -16.0420 C.3   196  MET196      0.0692
    104  N        -27.0290  -38.5990  -10.0500 N.3   202  THR202     -0.1218
    105  CA       -25.5890  -38.7600  -10.2140 C.3   202  THR202      0.1862
    106  C        -24.8350  -37.6340   -9.5240 C.2   202  THR202      0.2287
    107  O        -23.8380  -37.8740   -8.8390 O.2   202  THR202     -0.2866
    108  CB       -25.2640  -38.8180  -11.7050 C.3   202  THR202      0.1770
    109  OG1      -25.9330  -39.9520  -12.2790 O.3   202  THR202     -0.2211
    110  CG2      -23.7750  -38.9330  -11.9380 C.3   202  THR202      0.0375
@<TRIPOS>BOND
     1    15    16    1
     2    15    12    1
     3    16    17    1
     4    12    13    1
     5    12    11    1
     6    13    14    2
     7    17    11    1
     8    11     3   am
     9    21    20    2
    10     4     3    2
    11     3     2    1
    12     1     2    1
    13    20    19    1
    14    67    66    1
    15     2     5    1
    16    18    24    1
    17    18    19    1
    18    90    88    1
    19    24    23    1
    20    19    22    1
    21    83    84    1
    22    96    97    1
    23    84    85    1
    24    84    87    1
    25    88    87    1
    26    88    89    1
    27    62    65    1
    28    62    61    1
    29    62    63    1
    30    66    65    1
    31    66    68    1
    32     5     6    1
    33    86    85    2
    34    22    23    1
    35    99    98    2
    36     7     6   ar
    37     7     9   ar
    38    64    63    2
    39    85    91   am
    40    98    97    1
    41    97   100    1
    42    42    41    2
    43     6     8   ar
    44    63    69   am
    45    50    49    1
    46    50    51    2
    47    93    94    2
    48    93    92    1
    49     9    10   ar
    50    49    48    1
    51    49    52    1
    52    46    45    2
    53    41    48   am
    54    41    40    1
    55    91    92    1
    56   103   102    1
    57   102   101    1
    58    45    47   am
    59    45    44    1
    60    43    40    1
    61    43    44    1
    62   100   101    1
    63    40    39    1
    64     8    10   ar
    65    92    95    1
    66    69    70    1
    67    72    71    2
    68    71    70    1
    69    70    73    1
    70    39    36   am
    71    37    36    2
    72    36    35    1
    73    32    31    2
    74    73    74    1
    75   109   108    1
    76    31    33   am
    77    31    30    1
    78    74    76   ar
    79    74    75   ar
    80   110   108    1
    81    28    27    2
    82    79    76   ar
    83    79    81   ar
    84    35    38    1
    85    35    34    1
    86   108   105    1
    87    76    78   ar
    88    75    77   ar
    89    30    29    1
    90    81    82   ar
    91    27    34   am
    92    27    26    1
    93    29    26    1
    94    78    77   ar
    95    78    80   ar
    96    26    25    1
    97    82    80   ar
    98   105   104    1
    99   105   106    1
   100   106   107    2
   101    59    58    2
   102    54    55    1
   103    54    57    1
   104    54    53    1
   105    55    56    2
   106    58    57    1
   107    58    60   am
