@<TRIPOS>MOLECULE
tmp/5o6xA02.pdb
 128 123 0 0 0
SMALL
GASTEIGER

@<TRIPOS>ATOM
      1  N         -8.2340   33.5690  -19.0900 N.3    89  HIS89      -0.1241
      2  CA        -7.0320   32.9650  -18.5370 C.3    89  HIS89       0.1621
      3  C         -6.6060   31.8580  -19.4810 C.2    89  HIS89       0.2264
      4  O         -7.3690   30.8940  -19.6450 O.2    89  HIS89      -0.2867
      5  CB        -7.3190   32.3860  -17.1500 C.3    89  HIS89       0.0745
      6  CG        -6.0870   32.0110  -16.3760 C.ar   89  HIS89       0.0817
      7  ND1       -5.1670   31.0810  -16.8150 N.ar   89  HIS89      -0.2268
      8  CD2       -5.6360   32.4400  -15.1750 C.ar   89  HIS89       0.1154
      9  CE1       -4.2040   30.9590  -15.9180 C.ar   89  HIS89       0.1986
     10  NE2       -4.4620   31.7760  -14.9160 N.ar   89  HIS89      -0.2212
     11  N         -2.4020   26.7810  -18.5710 N.3    92  PRO92      -0.2116
     12  CA        -1.0720   26.9310  -17.9720 C.3    92  PRO92       0.1372
     13  C          0.0160   26.8830  -19.0350 C.2    92  PRO92       0.2244
     14  O          0.0010   26.0320  -19.9270 O.2    92  PRO92      -0.2868
     15  CB        -0.9880   25.7350  -17.0210 C.3    92  PRO92       0.0268
     16  CG        -2.4330   25.4460  -16.6650 C.3    92  PRO92       0.0207
     17  CD        -3.2110   25.7480  -17.8970 C.3    92  PRO92       0.0892
     18  N         -7.9380   40.2890  -10.6760 N.3   137  SER137     -0.1202
     19  CA        -7.6050   38.9380  -10.2670 C.3   137  SER137      0.2020
     20  C         -6.6770   39.0300   -9.0730 C.2   137  SER137      0.2619
     21  O         -5.7500   39.8410   -9.0600 O.2   137  SER137     -0.2717
     22  CB        -6.8780   38.2170  -11.4020 C.3   137  SER137      0.2103
     23  OG        -7.0080   36.8170  -11.3290 O.3   137  SER137     -0.2182
     24  N         -6.9050   38.1650   -8.0920 N.am  138  LEU138     -0.1965
     25  CA        -5.9930   38.0710   -6.9600 C.3   138  LEU138      0.1728
     26  C         -4.5520   37.8740   -7.4020 C.2   138  LEU138      0.2616
     27  O         -3.6330   38.4450   -6.8100 O.2   138  LEU138     -0.2715
     28  CB        -6.4240   36.9180   -6.0610 C.3   138  LEU138      0.0311
     29  CG        -5.4390   36.5550   -4.9500 C.3   138  LEU138      0.0022
     30  CD1       -5.2020   37.7240   -3.9940 C.3   138  LEU138      0.0001
     31  CD2       -5.9180   35.3200   -4.2000 C.3   138  LEU138      0.0001
     32  N         -4.3250   37.0620   -8.4330 N.am  139  VAL139     -0.1977
     33  CA        -2.9530   36.7670   -8.8200 C.3   139  VAL139      0.1596
     34  C         -2.2390   37.9500   -9.4500 C.2   139  VAL139      0.2287
     35  O         -1.0180   37.9160   -9.5680 O.2   139  VAL139     -0.2864
     36  CB        -2.8440   35.4930   -9.6780 C.3   139  VAL139      0.0276
     37  CG1       -3.3580   34.2890   -8.8940 C.3   139  VAL139      0.0022
     38  CG2       -3.5470   35.6580  -11.0160 C.3   139  VAL139      0.0022
     39  N          1.0570   33.9220   -9.8470 N.3   144  GLN144     -0.1245
     40  CA         0.5510   32.5820  -10.0860 C.3   144  GLN144      0.1566
     41  C          1.5810   31.8740  -10.9430 C.2   144  GLN144      0.2260
     42  O          2.2810   32.5130  -11.7350 O.2   144  GLN144     -0.2867
     43  CB        -0.7690   32.6490  -10.8700 C.3   144  GLN144      0.0367
     44  CG        -1.5350   31.3420  -11.0240 C.3   144  GLN144      0.0905
     45  CD        -2.8240   31.5240  -11.8120 C.2   144  GLN144      0.2608
     46  OE1       -2.8780   32.2670  -12.7970 O.2   144  GLN144     -0.2717
     47  NE2       -3.8720   30.8450  -11.3780 N.am  144  GLN144     -0.0878
     48  N         -0.9590   36.3480  -18.1910 N.3   150  TYR150     -0.1241
     49  CA        -2.2040   36.6210  -17.4760 C.3   150  TYR150      0.1605
     50  C         -1.9550   37.4980  -16.2620 C.2   150  TYR150      0.2264
     51  O         -2.6410   38.5050  -16.0500 O.2   150  TYR150     -0.2867
     52  CB        -2.8660   35.3080  -17.0470 C.3   150  TYR150      0.0534
     53  CG        -4.1270   35.5230  -16.2410 C.ar  150  TYR150     -0.0201
     54  CD1       -5.3300   35.8050  -16.8690 C.ar  150  TYR150     -0.0009
     55  CD2       -4.1040   35.4670  -14.8560 C.ar  150  TYR150     -0.0009
     56  CE1       -6.4780   36.0090  -16.1470 C.ar  150  TYR150      0.0417
     57  CE2       -5.2450   35.6740  -14.1220 C.ar  150  TYR150      0.0417
     58  CZ        -6.4390   35.9320  -14.7720 C.ar  150  TYR150      0.1957
     59  OH        -7.5930   36.1400  -14.0360 O.3   150  TYR150     -0.2866
     60  N        -11.2120   38.6460   -7.8730 N.3   180  PRO180     -0.2102
     61  CA       -11.6290   37.3010   -7.4790 C.3   180  PRO180      0.1504
     62  C        -10.4340   36.3730   -7.3810 C.2   180  PRO180      0.2576
     63  O         -9.3970   36.5750   -8.0220 O.2   180  PRO180     -0.2718
     64  CB       -12.5450   36.8610   -8.6340 C.3   180  PRO180      0.0282
     65  CG       -12.7810   38.1030   -9.4810 C.3   180  PRO180      0.0208
     66  CD       -11.5470   38.9170   -9.2820 C.3   180  PRO180      0.0893
     67  N        -10.5900   35.3490   -6.5570 N.am  181  GLY181     -0.1943
     68  CA        -9.7380   34.1780   -6.5740 C.3   181  GLY181      0.2014
     69  C        -10.3960   33.1030   -7.4030 C.2   181  GLY181      0.2638
     70  O        -10.9860   33.3860   -8.4460 O.2   181  GLY181     -0.2714
     71  N        -10.3020   31.8620   -6.9470 N.am  182  ASN182     -0.1972
     72  CA       -10.9150   30.7290   -7.6390 C.3   182  ASN182      0.1688
     73  C        -12.4320   30.8260   -7.5690 C.2   182  ASN182      0.2292
     74  O        -13.0190   30.6360   -6.4980 O.2   182  ASN182     -0.2864
     75  CB       -10.4450   29.4460   -6.9690 C.3   182  ASN182      0.1181
     76  CG        -9.0280   29.0960   -7.3270 C.2   182  ASN182      0.2629
     77  OD1       -8.6840   28.9950   -8.5040 O.2   182  ASN182     -0.2716
     78  ND2       -8.1920   28.9130   -6.3200 N.am  182  ASN182     -0.0877
     79  N        -15.0250   28.8360  -17.4840 N.3   187  LEU187     -0.1231
     80  CA       -13.5870   28.9210  -17.7170 C.3   187  LEU187      0.1693
     81  C        -12.8340   27.9670  -16.8010 C.2   187  LEU187      0.2592
     82  O        -11.9310   27.2450  -17.2450 O.2   187  LEU187     -0.2718
     83  CB       -13.1170   30.3560  -17.4850 C.3   187  LEU187      0.0284
     84  CG       -11.6140   30.6110  -17.5410 C.3   187  LEU187      0.0019
     85  CD1      -11.0640   30.2250  -18.9000 C.3   187  LEU187      0.0001
     86  CD2      -11.3430   32.0680  -17.2240 C.3   187  LEU187      0.0001
     87  N        -13.1690   27.9670  -15.5070 N.am  188  TRP188     -0.1976
     88  CA       -12.5000   27.0430  -14.5900 C.3   188  TRP188      0.1640
     89  C        -12.7160   25.6030  -15.0370 C.2   188  TRP188      0.2290
     90  O        -11.7710   24.8070  -15.0820 O.2   188  TRP188     -0.2864
     91  CB       -13.0010   27.2410  -13.1560 C.3   188  TRP188      0.0576
     92  CG       -11.8980   27.2470  -12.1160 C.ar  188  TRP188      0.0006
     93  CD1      -11.4790   28.3300  -11.3920 C.ar  188  TRP188      0.0946
     94  CD2      -11.0870   26.1400  -11.6760 C.ar  188  TRP188      0.0152
     95  NE1      -10.4610   27.9760  -10.5510 N.ar  188  TRP188     -0.2442
     96  CE2      -10.2000   26.6400  -10.6960 C.ar  188  TRP188      0.0810
     97  CE3      -11.0220   24.7830  -12.0100 C.ar  188  TRP188      0.0012
     98  CZ2       -9.2570   25.8370  -10.0590 C.ar  188  TRP188      0.0191
     99  CZ3      -10.0840   23.9870  -11.3670 C.ar  188  TRP188      0.0001
    100  CH2       -9.2170   24.5130  -10.4030 C.ar  188  TRP188      0.0015
    101  N        -10.5650   24.8060  -18.1710 N.3   191  LEU191     -0.1245
    102  CA        -9.1490   24.6430  -17.8820 C.3   191  LEU191      0.1561
    103  C         -8.8890   23.3380  -17.1460 C.2   191  LEU191      0.2260
    104  O         -7.9170   22.6380  -17.4460 O.2   191  LEU191     -0.2867
    105  CB        -8.6250   25.8370  -17.0900 C.3   191  LEU191      0.0270
    106  CG        -8.5490   27.1520  -17.8750 C.3   191  LEU191      0.0019
    107  CD1       -8.1380   28.3230  -16.9730 C.3   191  LEU191      0.0001
    108  CD2       -7.6090   27.0360  -19.0620 C.3   191  LEU191      0.0001
    109  N         -6.5050   19.1090  -18.0300 N.3   195  MET195     -0.1245
    110  CA        -5.4600   18.5470  -17.1960 C.3   195  MET195      0.1570
    111  C         -5.5520   17.0290  -17.1730 C.2   195  MET195      0.2261
    112  O         -6.5880   16.4470  -17.5080 O.2   195  MET195     -0.2867
    113  CB        -5.5830   19.0970  -15.7790 C.3   195  MET195      0.0387
    114  CG        -5.4950   20.6260  -15.7080 C.3   195  MET195      0.0595
    115  SD        -3.8830   21.2510  -16.2410 S.3   195  MET195     -0.1393
    116  CE        -2.8890   20.7510  -14.8460 C.3   195  MET195      0.0692
    117  N         -7.4940   18.2350  -10.0830 N.3   201  THR201     -0.1218
    118  CA        -7.2350   19.6630  -10.2380 C.3   201  THR201      0.1862
    119  C         -8.3270   20.4960   -9.5770 C.2   201  THR201      0.2287
    120  O         -8.0380   21.4950   -8.9080 O.2   201  THR201     -0.2866
    121  CB        -7.1290   19.9880  -11.7270 C.3   201  THR201      0.1770
    122  OG1       -5.9950   19.3010  -12.2790 O.3   201  THR201     -0.2211
    123  CG2       -6.9890   21.4860  -11.9710 C.3   201  THR201      0.0375
    124  N         -7.6230   32.9080    0.0430 N.3   245  ALA245     -0.1245
    125  CA        -6.5000   32.2120   -0.5860 C.3   245  ALA245      0.1562
    126  C         -5.1690   32.9280   -0.3820 C.2   245  ALA245      0.2260
    127  O         -4.1110   32.2820   -0.3900 O.2   245  ALA245     -0.2867
    128  CB        -6.7810   32.0360   -2.0720 C.3   245  ALA245      0.0290
@<TRIPOS>BOND
     1    14    13    2
     2     4     3    2
     3     3     2    1
     4     1     2    1
     5   108   106    1
     6    13    12    1
     7    85    84    1
     8    11    12    1
     9    11    17    1
    10     2     5    1
    11    48    49    1
    12   101   102    1
    13   109   110    1
    14    12    15    1
    15    17    16    1
    16   102   103    1
    17   102   105    1
    18   106   105    1
    19   106   107    1
    20    80    83    1
    21    80    79    1
    22    80    81    1
    23    84    83    1
    24    84    86    1
    25   112   111    2
    26    49    52    1
    27    49    50    1
    28   104   103    2
    29    82    81    2
    30   110   111    1
    31   110   113    1
    32     5     6    1
    33    52    53    1
    34    15    16    1
    35    54    53   ar
    36    54    56   ar
    37     7     6   ar
    38     7     9   ar
    39    81    87   am
    40     6     8   ar
    41    50    51    2
    42   115   114    1
    43   115   116    1
    44    53    55   ar
    45    56    58   ar
    46     9    10   ar
    47   113   114    1
    48    87    88    1
    49     8    10   ar
    50    90    89    2
    51    89    88    1
    52    55    57   ar
    53    58    57   ar
    54    58    59    1
    55    88    91    1
    56    91    92    1
    57    46    45    2
    58   122   121    1
    59    92    94   ar
    60    92    93   ar
    61    97    94   ar
    62    97    99   ar
    63   123   121    1
    64    45    47   am
    65    45    44    1
    66    42    41    2
    67   121   118    1
    68    94    96   ar
    69    22    23    1
    70    22    19    1
    71    93    95   ar
    72    99   100   ar
    73    44    43    1
    74    38    36    1
    75    41    40    1
    76    43    40    1
    77    96    95   ar
    78    96    98   ar
    79    18    19    1
    80   100    98   ar
    81    19    20    1
    82   118   117    1
    83   118   119    1
    84    40    39    1
    85    36    37    1
    86    36    33    1
    87   119   120    2
    88    35    34    2
    89    65    66    1
    90    65    64    1
    91    34    33    1
    92    66    60    1
    93    20    21    2
    94    20    24   am
    95    33    32    1
    96    64    61    1
    97    77    76    2
    98    70    69    2
    99    32    26   am
   100    24    25    1
   101    63    62    2
   102    60    61    1
   103    72    73    1
   104    72    75    1
   105    72    71    1
   106    73    74    2
   107    61    62    1
   108    69    71   am
   109    69    68    1
   110    26    25    1
   111    26    27    2
   112    62    67   am
   113    76    75    1
   114    76    78   am
   115    25    28    1
   116    68    67    1
   117    28    29    1
   118    29    31    1
   119    29    30    1
   120   128   125    1
   121   125   126    1
   122   125   124    1
   123   127   126    2
