@<TRIPOS>MOLECULE
tmp/5o6yA00.pdb
 147 147 0 0 0
SMALL
GASTEIGER

@<TRIPOS>ATOM
      1  N         27.8140    9.8140  -14.4800 N.3    28  ASP28      -0.1225
      2  CA        27.7660   10.6430  -13.2850 C.3    28  ASP28       0.1805
      3  C         26.8150   10.0690  -12.2430 C.2    28  ASP28       0.2597
      4  O         25.8820    9.3280  -12.5670 O.2    28  ASP28      -0.2718
      5  CB        27.3300   12.0700  -13.6300 C.3    28  ASP28       0.1424
      6  CG        28.4640   12.9050  -14.1810 C.2    28  ASP28       0.3668
      7  OD1       29.5800   12.3720  -14.3240 O.co2  28  ASP28      -0.2456
      8  OD2       28.2460   14.0970  -14.4650 O.co2  28  ASP28      -0.2456
      9  N         27.0810   10.4280  -10.9850 N.am   29  ASP29      -0.1974
     10  CA        26.2590   10.2650   -9.7870 C.3    29  ASP29       0.1709
     11  C         26.4150    8.8980   -9.1340 C.2    29  ASP29       0.2293
     12  O         25.8730    8.6910   -8.0520 O.2    29  ASP29      -0.2864
     13  CB        24.7630   10.5340  -10.0330 C.3    29  ASP29       0.1436
     14  CG        24.4990   11.9410  -10.5100 C.2    29  ASP29       0.3671
     15  OD1       25.3260   12.8320  -10.2370 O.co2  29  ASP29      -0.2456
     16  OD2       23.4660   12.1610  -11.1670 O.co2  29  ASP29      -0.2456
     17  N         33.2950   13.7070   -8.3020 N.3    79  HIS79      -0.1241
     18  CA        32.0410   14.4030   -8.5710 C.3    79  HIS79       0.1621
     19  C         31.4840   15.0560   -7.3080 C.2    79  HIS79       0.2264
     20  O         30.2670   15.1780   -7.1520 O.2    79  HIS79      -0.2867
     21  CB        31.0180   13.4420   -9.1800 C.3    79  HIS79       0.0745
     22  CG        29.9290   14.1210   -9.9530 C.ar   79  HIS79       0.0817
     23  ND1       30.1140   15.3180  -10.6100 N.ar   79  HIS79      -0.2268
     24  CD2       28.6400   13.7670  -10.1740 C.ar   79  HIS79       0.1154
     25  CE1       28.9880   15.6730  -11.2020 C.ar   79  HIS79       0.1986
     26  NE2       28.0770   14.7490  -10.9530 N.ar   79  HIS79      -0.2212
     27  N         26.9210   16.4420   -3.8180 N.3    83  HIS83      -0.1241
     28  CA        26.3280   17.0350   -5.0140 C.3    83  HIS83       0.1621
     29  C         25.6890   18.3970   -4.7480 C.2    83  HIS83       0.2264
     30  O         24.4850   18.5620   -4.9830 O.2    83  HIS83      -0.2867
     31  CB        25.2840   16.0750   -5.5950 C.3    83  HIS83       0.0745
     32  CG        25.1020   16.1930   -7.0760 C.ar   83  HIS83       0.0817
     33  ND1       24.0720   16.9110   -7.6450 N.ar   83  HIS83      -0.2268
     34  CD2       25.8080   15.6690   -8.1050 C.ar   83  HIS83       0.1154
     35  CE1       24.1570   16.8300   -8.9610 C.ar   83  HIS83       0.1986
     36  NE2       25.2010   16.0820   -9.2660 N.ar   83  HIS83      -0.2212
     37  N         34.5220   16.8240  -12.0410 N.3   117  ARG117     -0.1231
     38  CA        33.3900   17.3600  -12.7900 C.3   117  ARG117      0.1679
     39  C         32.4520   18.0270  -11.7950 C.2   117  ARG117      0.2434
     40  O         31.9580   17.3550  -10.8660 O.2   117  ARG117     -0.2733
     41  CB        32.6560   16.2840  -13.5900 C.3   117  ARG117      0.0321
     42  CG        31.4260   16.8230  -14.3080 C.3   117  ARG117      0.0489
     43  CD        30.8450   15.8160  -15.2820 C.3   117  ARG117      0.2205
     44  NE        31.6520   15.6840  -16.4910 N.pl3 117  ARG117     -0.0865
     45  CZ        31.4500   14.7530  -17.4180 C.cat 117  ARG117      0.5346
     46  NH1       30.4720   13.8700  -17.2660 N.pl3 117  ARG117      0.1354
     47  NH2       32.2280   14.7000  -18.4910 N.pl3 117  ARG117      0.1354
     48  N         32.1820   19.3210  -11.9300 N.am  118  PRO118     -0.2718
     49  CA        31.2800   19.9890  -10.9950 C.3   118  PRO118      0.1520
     50  C         29.8350   19.6520  -11.3080 C.2   118  PRO118      0.2440
     51  O         29.4300   19.6410  -12.4810 O.2   118  PRO118     -0.2731
     52  CB        31.5740   21.4780  -11.2280 C.3   118  PRO118      0.0310
     53  CG        32.0050   21.5400  -12.6560 C.3   118  PRO118      0.0237
     54  CD        32.7280   20.2460  -12.9390 C.3   118  PRO118      0.0939
     55  N         29.0320   19.3480  -10.2900 N.am  119  PRO119     -0.2716
     56  CA        27.6090   19.0770  -10.5280 C.3   119  PRO119      0.1536
     57  C         26.9130   20.2810  -11.1440 C.2   119  PRO119      0.2599
     58  O         27.2150   21.4310  -10.8180 O.2   119  PRO119     -0.2715
     59  CB        27.0660   18.7610   -9.1290 C.3   119  PRO119      0.0310
     60  CG        28.0940   19.2880   -8.1760 C.3   119  PRO119      0.0237
     61  CD        29.4040   19.1700   -8.8780 C.3   119  PRO119      0.0939
     62  N         25.9810   20.0000  -12.0540 N.am  120  TYR120     -0.1960
     63  CA        25.2650   20.9910  -12.8540 C.3   120  TYR120      0.1771
     64  C         26.1950   21.8450  -13.7090 C.2   120  TYR120      0.2620
     65  O         25.7450   22.8260  -14.3120 O.2   120  TYR120     -0.2715
     66  CB        24.3900   21.9060  -11.9840 C.3   120  TYR120      0.0574
     67  CG        23.7410   21.2260  -10.8000 C.ar  120  TYR120     -0.0198
     68  CD1       22.6380   20.3980  -10.9640 C.ar  120  TYR120     -0.0009
     69  CD2       24.2210   21.4300   -9.5110 C.ar  120  TYR120     -0.0009
     70  CE1       22.0400   19.7810   -9.8800 C.ar  120  TYR120      0.0417
     71  CE2       23.6300   20.8190   -8.4220 C.ar  120  TYR120      0.0417
     72  CZ        22.5400   19.9960   -8.6110 C.ar  120  TYR120      0.1957
     73  OH        21.9500   19.3860   -7.5280 O.3   120  TYR120     -0.2866
     74  N         27.4800   21.5020  -13.7800 N.am  121  GLY121     -0.1954
     75  CA        28.4410   22.3090  -14.5040 C.3   121  GLY121      0.1869
     76  C         28.7560   23.6470  -13.8780 C.2   121  GLY121      0.2309
     77  O         29.4200   24.4710  -14.5140 O.2   121  GLY121     -0.2863
     78  N         31.4220   18.7210  -20.5840 N.3   141  TRP141     -0.1241
     79  CA        30.9190   17.8410  -21.6310 C.3   141  TRP141      0.1605
     80  C         30.4770   18.6890  -22.8140 C.2   141  TRP141      0.2264
     81  O         30.2320   19.8910  -22.6820 O.2   141  TRP141     -0.2867
     82  CB        29.7570   16.9760  -21.1300 C.3   141  TRP141      0.0550
     83  CG        28.5770   17.7800  -20.6810 C.ar  141  TRP141      0.0003
     84  CD1       27.5030   18.1570  -21.4370 C.ar  141  TRP141      0.0946
     85  CD2       28.3540   18.3200  -19.3730 C.ar  141  TRP141      0.0152
     86  NE1       26.6250   18.8930  -20.6790 N.ar  141  TRP141     -0.2442
     87  CE2       27.1240   19.0080  -19.4080 C.ar  141  TRP141      0.0810
     88  CE3       29.0730   18.2870  -18.1750 C.ar  141  TRP141      0.0012
     89  CZ2       26.6020   19.6580  -18.2940 C.ar  141  TRP141      0.0191
     90  CZ3       28.5500   18.9310  -17.0670 C.ar  141  TRP141      0.0001
     91  CH2       27.3270   19.6070  -17.1350 C.ar  141  TRP141      0.0015
     92  N         25.1270   16.2010  -24.5670 N.3   144  ASP144     -0.1239
     93  CA        24.2590   15.9170  -23.4330 C.3   144  ASP144      0.1674
     94  C         23.1600   14.9610  -23.8730 C.2   144  ASP144      0.2266
     95  O         22.3620   15.2910  -24.7560 O.2   144  ASP144     -0.2867
     96  CB        23.6570   17.2020  -22.8670 C.3   144  ASP144      0.1410
     97  CG        22.9220   16.9700  -21.5640 C.2   144  ASP144      0.3668
     98  OD1       23.0460   15.8630  -20.9990 O.co2 144  ASP144     -0.2456
     99  OD2       22.2170   17.8920  -21.1080 O.co2 144  ASP144     -0.2456
    100  N         20.7200   14.1730  -22.0120 N.3   146  VAL146     -0.1245
    101  CA        19.5630   14.5800  -21.2120 C.3   146  VAL146      0.1561
    102  C         18.7760   13.3440  -20.7730 C.2   146  VAL146      0.2260
    103  O         17.5390   13.3210  -20.7940 O.2   146  VAL146     -0.2867
    104  CB        18.7000   15.6250  -21.9650 C.3   146  VAL146      0.0252
    105  CG1       17.9590   15.0440  -23.1770 C.3   146  VAL146      0.0019
    106  CG2       17.7480   16.3530  -21.0100 C.3   146  VAL146      0.0019
    107  N         18.4750   12.0850  -17.7860 N.3   148  TRP148     -0.1227
    108  CA        17.7710   12.2190  -16.5160 C.3   148  TRP148      0.1737
    109  C         16.2860   12.4870  -16.7140 C.2   148  TRP148      0.2595
    110  O         15.4880   12.1840  -15.8210 O.2   148  TRP148     -0.2718
    111  CB        18.3960   13.3360  -15.6800 C.3   148  TRP148      0.0564
    112  CG        18.3490   14.6740  -16.3470 C.ar  148  TRP148      0.0003
    113  CD1       19.3030   15.2200  -17.1540 C.ar  148  TRP148      0.0946
    114  CD2       17.2900   15.6360  -16.2700 C.ar  148  TRP148      0.0152
    115  NE1       18.9060   16.4630  -17.5830 N.ar  148  TRP148     -0.2442
    116  CE2       17.6730   16.7420  -17.0540 C.ar  148  TRP148      0.0810
    117  CE3       16.0560   15.6700  -15.6130 C.ar  148  TRP148      0.0012
    118  CZ2       16.8680   17.8700  -17.1990 C.ar  148  TRP148      0.0191
    119  CZ3       15.2560   16.7900  -15.7590 C.ar  148  TRP148      0.0001
    120  CH2       15.6660   17.8740  -16.5460 C.ar  148  TRP148      0.0015
    121  N         15.8980   13.0440  -17.8640 N.am  149  LYS149     -0.1980
    122  CA        14.4890   13.2310  -18.1860 C.3   149  LYS149      0.1596
    123  C         13.7450   11.9160  -18.3800 C.2   149  LYS149      0.2287
    124  O         12.5240   11.9410  -18.5610 O.2   149  LYS149     -0.2864
    125  CB        14.3410   14.0830  -19.4500 C.3   149  LYS149      0.0298
    126  CG        14.4620   15.5840  -19.2340 C.3   149  LYS149      0.0038
    127  CD        14.0950   16.3370  -20.5060 C.3   149  LYS149      0.0206
    128  CE        13.9210   17.8280  -20.2540 C.3   149  LYS149      0.1093
    129  NZ        15.1900   18.4920  -19.8510 N.3   149  LYS149     -0.1314
    130  N         27.8180   12.8780  -21.8860 N.3   171  LEU171     -0.1245
    131  CA        27.3930   12.8510  -20.4930 C.3   171  LEU171      0.1561
    132  C         26.2170   11.8950  -20.3380 C.2   171  LEU171      0.2260
    133  O         25.1930   12.0470  -21.0100 O.2   171  LEU171     -0.2867
    134  CB        27.0240   14.2540  -20.0130 C.3   171  LEU171      0.0270
    135  CG        26.2460   14.3940  -18.7020 C.3   171  LEU171      0.0019
    136  CD1       26.9170   13.6590  -17.5540 C.3   171  LEU171      0.0001
    137  CD2       26.0820   15.8590  -18.3720 C.3   171  LEU171      0.0001
    138  N         24.2390    9.3210  -16.9800 N.3   173  HIS173     -0.1241
    139  CA        24.0810    9.2420  -15.5350 C.3   173  HIS173      0.1621
    140  C         23.8730    7.8050  -15.0870 C.2   173  HIS173      0.2264
    141  O         23.2380    7.0060  -15.7820 O.2   173  HIS173     -0.2867
    142  CB        22.9050   10.1030  -15.0530 C.3   173  HIS173      0.0745
    143  CG        23.1010   11.5710  -15.2720 C.ar  173  HIS173      0.0817
    144  ND1       22.6310   12.2270  -16.3900 N.ar  173  HIS173     -0.2268
    145  CD2       23.7190   12.5110  -14.5170 C.ar  173  HIS173      0.1154
    146  CE1       22.9490   13.5070  -16.3130 C.ar  173  HIS173      0.1986
    147  NE2       23.6100   13.7050  -15.1870 N.ar  173  HIS173     -0.2212
@<TRIPOS>BOND
     1    95    94    2
     2    92    93    1
     3    94    93    1
     4    93    96    1
     5   105   104    1
     6    96    97    1
     7    80    81    2
     8    80    79    1
     9   100   101    1
    10   104   101    1
    11   104   106    1
    12   130   131    1
    13    79    82    1
    14    79    78    1
    15    97    99   ar
    16    97    98   ar
    17    84    83   ar
    18    84    86   ar
    19   101   102    1
    20    82    83    1
    21   133   132    2
    22   103   102    2
    23    83    85   ar
    24    86    87   ar
    25   127   128    1
    26   127   126    1
    27   131   132    1
    28   131   134    1
    29   128   129    1
    30   134   135    1
    31   125   126    1
    32   125   122    1
    33    87    85   ar
    34    87    89   ar
    35    85    88   ar
    36   135   137    1
    37   135   136    1
    38   124   123    2
    39    47    45    1
    40   123   122    1
    41    89    91   ar
    42   122   121    1
    43    88    90   ar
    44   121   109   am
    45   107   108    1
    46   115   113   ar
    47   115   116   ar
    48    45    46    1
    49    45    44    2
    50   118   116   ar
    51   118   120   ar
    52   113   112   ar
    53    91    90   ar
    54   116   114   ar
    55   138   139    1
    56   109   108    1
    57   109   110    2
    58   120   119   ar
    59   108   111    1
    60    44    43    1
    61   144   146   ar
    62   144   143   ar
    63   112   114   ar
    64   112   111    1
    65   146   147   ar
    66   114   117   ar
    67   141   140    2
    68   119   117   ar
    69   139   140    1
    70   139   142    1
    71    43    42    1
    72   143   142    1
    73   143   145   ar
    74   147   145   ar
    75    77    76    2
    76    75    76    1
    77    75    74    1
    78     1     2    1
    79     8     6   ar
    80     7     6   ar
    81    65    64    2
    82    42    41    1
    83     6     5    1
    84    74    64   am
    85    64    63    1
    86     5     2    1
    87    41    38    1
    88     2     3    1
    89    54    53    1
    90    54    48    1
    91    63    62    1
    92    63    66    1
    93    38    37    1
    94    38    39    1
    95    53    52    1
    96     4     3    2
    97    51    50    2
    98     3     9   am
    99    62    57   am
   100    66    67    1
   101    48    39   am
   102    48    49    1
   103    39    40    2
   104    50    49    1
   105    50    55   am
   106    52    49    1
   107    25    26   ar
   108    25    23   ar
   109    16    14   ar
   110    57    58    2
   111    57    56    1
   112     9    10    1
   113    68    67   ar
   114    68    70   ar
   115    26    24   ar
   116    67    69   ar
   117    23    22   ar
   118    56    55    1
   119    56    59    1
   120    14    15   ar
   121    14    13    1
   122    55    61    1
   123    24    22   ar
   124    13    10    1
   125    22    21    1
   126    70    72   ar
   127    10    11    1
   128    69    71   ar
   129    36    35   ar
   130    36    34   ar
   131    21    18    1
   132    11    12    2
   133    59    60    1
   134    35    33   ar
   135    61    60    1
   136    72    71   ar
   137    72    73    1
   138    18    17    1
   139    18    19    1
   140    34    32   ar
   141    33    32   ar
   142    19    20    2
   143    32    31    1
   144    31    28    1
   145    28    29    1
   146    28    27    1
   147    30    29    2
