@<TRIPOS>MOLECULE
tmp/5o70A01.pdb
 140 132 0 0 0
SMALL
GASTEIGER

@<TRIPOS>ATOM
      1  N         -8.6050   -9.0660  -15.0560 N.3    26  ASP26      -0.1239
      2  CA        -8.0040   -9.1390  -16.3740 C.3    26  ASP26       0.1674
      3  C         -8.4510  -10.4300  -17.0490 C.2    26  ASP26       0.2266
      4  O         -9.3160  -11.1590  -16.5340 O.2    26  ASP26      -0.2867
      5  CB        -6.4750   -9.0400  -16.2800 C.3    26  ASP26       0.1410
      6  CG        -5.8520  -10.1060  -15.3700 C.2    26  ASP26       0.3668
      7  OD1       -6.5060  -11.1200  -15.0390 O.co2  26  ASP26      -0.2456
      8  OD2       -4.6860   -9.9280  -14.9610 O.co2  26  ASP26      -0.2456
      9  N         -6.9100  -13.3730  -17.4980 N.3    28  ASP28      -0.1239
     10  CA        -6.6960  -14.6180  -16.7590 C.3    28  ASP28       0.1674
     11  C         -7.6930  -14.7660  -15.6140 C.2    28  ASP28       0.2266
     12  O         -8.0940  -15.8900  -15.2790 O.2    28  ASP28      -0.2867
     13  CB        -5.2590  -14.6880  -16.2440 C.3    28  ASP28       0.1410
     14  CG        -4.8230  -16.0910  -15.8670 C.2    28  ASP28       0.3668
     15  OD1       -5.5060  -17.0860  -16.2300 O.co2  28  ASP28      -0.2456
     16  OD2       -3.7790  -16.1950  -15.1830 O.co2  28  ASP28      -0.2456
     17  N         -6.4560  -17.2030   -9.1690 N.3    83  ASN83      -0.1240
     18  CA        -5.6300  -16.1540   -9.7590 C.3    83  ASN83       0.1653
     19  C         -5.4780  -14.9310   -8.8640 C.2    83  ASN83       0.2266
     20  O         -5.0690  -13.8650   -9.3420 O.2    83  ASN83      -0.2867
     21  CB        -6.1820  -15.7300  -11.1190 C.3    83  ASN83       0.1155
     22  CG        -5.1350  -15.0590  -11.9800 C.2    83  ASN83       0.2627
     23  OD1       -4.0030  -15.5410  -12.0800 O.2    83  ASN83      -0.2716
     24  ND2       -5.4960  -13.9400  -12.5900 N.am   83  ASN83      -0.0877
     25  N         -1.0510  -19.0880  -10.2080 N.3   107  HIS107     -0.1226
     26  CA         0.2930  -19.2110  -10.7470 C.3   107  HIS107      0.1752
     27  C          1.2440  -18.1450  -10.2190 C.2   107  HIS107      0.2596
     28  O          2.4360  -18.2100  -10.5190 O.2   107  HIS107     -0.2718
     29  CB         0.2680  -19.1410  -12.2880 C.3   107  HIS107      0.0759
     30  CG         0.1420  -17.7450  -12.8070 C.ar  107  HIS107      0.0818
     31  ND1       -1.0650  -17.0840  -12.8730 N.ar  107  HIS107     -0.2268
     32  CD2        1.0820  -16.8540  -13.2150 C.ar  107  HIS107      0.1154
     33  CE1       -0.8690  -15.8570  -13.3200 C.ar  107  HIS107      0.1986
     34  NE2        0.4240  -15.6860  -13.5230 N.ar  107  HIS107     -0.2212
     35  N          0.7600  -17.1730   -9.4390 N.am  108  HIS108     -0.1975
     36  CA         1.6240  -16.0890   -8.9700 C.3   108  HIS108      0.1656
     37  C          2.5730  -16.5920   -7.8860 C.2   108  HIS108      0.2291
     38  O          2.1270  -17.1030   -6.8550 O.2   108  HIS108     -0.2864
     39  CB         0.7890  -14.9380   -8.4070 C.3   108  HIS108      0.0771
     40  CG        -0.0190  -14.2110   -9.4340 C.ar  108  HIS108      0.0820
     41  ND1       -1.3050  -14.5790   -9.7680 N.ar  108  HIS108     -0.2267
     42  CD2        0.2710  -13.1260  -10.1940 C.ar  108  HIS108      0.1154
     43  CE1       -1.7690  -13.7600  -10.6970 C.ar  108  HIS108      0.1986
     44  NE2       -0.8330  -12.8660  -10.9680 N.ar  108  HIS108     -0.2212
     45  N          2.2910  -19.9800  -17.0620 N.3   125  ALA125     -0.1245
     46  CA         2.1380  -18.5860  -17.4580 C.3   125  ALA125      0.1562
     47  C          0.8040  -18.0190  -17.0030 C.2   125  ALA125      0.2260
     48  O          0.6780  -16.8020  -16.8210 O.2   125  ALA125     -0.2867
     49  CB         2.2610  -18.4540  -18.9780 C.3   125  ALA125      0.0290
     50  N         -4.1100  -13.8590  -22.9400 N.3   156  THR156     -0.1203
     51  CA        -3.8570  -12.5180  -22.4050 C.3   156  THR156      0.1994
     52  C         -2.6060  -12.4830  -21.5340 C.2   156  THR156      0.2617
     53  O         -1.8460  -11.5010  -21.5680 O.2   156  THR156     -0.2717
     54  CB        -5.0670  -11.9720  -21.6310 C.3   156  THR156      0.1784
     55  OG1       -5.4490  -12.8810  -20.5910 O.3   156  THR156     -0.2211
     56  CG2       -6.2420  -11.7660  -22.5610 C.3   156  THR156      0.0376
     57  N         -2.3640  -13.5320  -20.7420 N.am  157  ASN157     -0.1974
     58  CA        -1.2170  -13.4790  -19.8470 C.3   157  ASN157      0.1688
     59  C          0.1140  -13.6250  -20.5810 C.2   157  ASN157      0.2292
     60  O          1.1500  -13.2530  -20.0240 O.2   157  ASN157     -0.2864
     61  CB        -1.3530  -14.5360  -18.7530 C.3   157  ASN157      0.1181
     62  CG        -1.5770  -13.9210  -17.4020 C.2   157  ASN157      0.2629
     63  OD1       -2.2530  -12.8990  -17.2720 O.2   157  ASN157     -0.2716
     64  ND2       -1.0100  -14.5360  -16.3800 N.am  157  ASN157     -0.0877
     65  N          0.5470  -12.0780  -23.5530 N.3   159  GLY159     -0.1225
     66  CA         0.5320  -11.0210  -24.5420 C.3   159  GLY159      0.1811
     67  C          0.2030  -11.5560  -25.9050 C.2   159  GLY159      0.2280
     68  O          0.7470  -11.0690  -26.9080 O.2   159  GLY159     -0.2866
     69  N          5.2360  -12.8990  -25.0090 N.3   163  HIS163     -0.1226
     70  CA         6.0880  -12.6590  -23.8530 C.3   163  HIS163      0.1752
     71  C          6.9780  -13.8640  -23.5540 C.2   163  HIS163      0.2597
     72  O          6.8000  -14.9560  -24.0980 O.2   163  HIS163     -0.2718
     73  CB         5.2430  -12.3190  -22.6240 C.3   163  HIS163      0.0759
     74  CG         4.4130  -11.0770  -22.7760 C.ar  163  HIS163      0.0818
     75  ND1        4.8120   -9.9960  -23.5270 N.ar  163  HIS163     -0.2268
     76  CD2        3.2060  -10.7520  -22.2550 C.ar  163  HIS163      0.1154
     77  CE1        3.8850   -9.0550  -23.4630 C.ar  163  HIS163      0.1986
     78  NE2        2.8920   -9.4980  -22.7150 N.ar  163  HIS163     -0.2212
     79  N          7.9380  -13.6510  -22.6440 N.am  164  SER164     -0.1938
     80  CA         8.9190  -14.6750  -22.3010 C.3   164  SER164      0.2055
     81  C          8.2970  -15.8990  -21.6420 C.2   164  SER164      0.2643
     82  O          8.9470  -16.9480  -21.5980 O.2   164  SER164     -0.2714
     83  CB         9.9880  -14.0990  -21.3720 C.3   164  SER164      0.2130
     84  OG         9.4140  -13.6280  -20.1700 O.3   164  SER164     -0.2179
     85  N          7.0690  -15.7950  -21.1410 N.am  165  ASN165     -0.1971
     86  CA         6.4060  -16.9160  -20.5000 C.3   165  ASN165      0.1688
     87  C          5.6740  -17.8050  -21.4890 C.2   165  ASN165      0.2292
     88  O          5.0170  -18.7630  -21.0720 O.2   165  ASN165     -0.2864
     89  CB         5.4290  -16.4230  -19.4200 C.3   165  ASN165      0.1181
     90  CG         4.3920  -15.4610  -19.9690 C.2   165  ASN165      0.2629
     91  OD1        4.4220  -15.1060  -21.1540 O.2   165  ASN165     -0.2716
     92  ND2        3.4580  -15.0420  -19.1150 N.am  165  ASN165     -0.0877
     93  N          8.0670   -0.3250  -23.7360 N.3   246  ARG246     -0.1245
     94  CA         9.0910   -1.3590  -23.9100 C.3   246  ARG246      0.1563
     95  C          9.3940   -1.6060  -25.3810 C.2   246  ARG246      0.2260
     96  O         10.5120   -2.0050  -25.7310 O.2   246  ARG246     -0.2867
     97  CB         8.6370   -2.6690  -23.2380 C.3   246  ARG246      0.0307
     98  CG         9.6330   -3.8560  -23.3310 C.3   246  ARG246      0.0489
     99  CD         8.9550   -5.1760  -22.8870 C.3   246  ARG246      0.2205
    100  NE         7.7640   -5.3830  -23.7020 N.pl3 246  ARG246     -0.0865
    101  CZ         6.5980   -5.8490  -23.2680 C.cat 246  ARG246      0.5346
    102  NH1        6.4410   -6.2180  -22.0030 N.pl3 246  ARG246      0.1354
    103  NH2        5.5810   -5.9450  -24.1180 N.pl3 246  ARG246      0.1354
    104  N          8.3890   -3.1860  -17.0330 N.3   270  ARG270     -0.1245
    105  CA         8.5910   -4.2220  -18.0390 C.3   270  ARG270      0.1563
    106  C         10.0500   -4.2030  -18.4600 C.2   270  ARG270      0.2260
    107  O         10.6540   -3.1310  -18.5670 O.2   270  ARG270     -0.2867
    108  CB         7.7090   -3.9890  -19.2670 C.3   270  ARG270      0.0307
    109  CG         6.2310   -4.0040  -18.9730 C.3   270  ARG270      0.0489
    110  CD         5.7710   -5.3810  -18.5540 C.3   270  ARG270      0.2205
    111  NE         4.3160   -5.4440  -18.4650 N.pl3 270  ARG270     -0.0865
    112  CZ         3.6210   -5.1450  -17.3650 C.cat 270  ARG270      0.5346
    113  NH1        4.2520   -4.7790  -16.2380 N.pl3 270  ARG270      0.1354
    114  NH2        2.2890   -5.2190  -17.3860 N.pl3 270  ARG270      0.1354
    115  N          7.2290  -10.7000  -11.7940 N.3   289  HIS289     -0.1241
    116  CA         8.0210  -11.6040  -12.6120 C.3   289  HIS289      0.1621
    117  C          9.2990  -10.9220  -13.0800 C.2   289  HIS289      0.2264
    118  O          9.3820   -9.6920  -13.0970 O.2   289  HIS289     -0.2867
    119  CB         7.2300  -12.0460  -13.8550 C.3   289  HIS289      0.0745
    120  CG         5.8400  -12.5260  -13.5720 C.ar  289  HIS289      0.0817
    121  ND1        5.5730  -13.7680  -13.0390 N.ar  289  HIS289     -0.2268
    122  CD2        4.6360  -11.9450  -13.7940 C.ar  289  HIS289      0.1154
    123  CE1        4.2660  -13.9250  -12.9250 C.ar  289  HIS289      0.1986
    124  NE2        3.6730  -12.8380  -13.3850 N.ar  289  HIS289     -0.2212
    125  N         10.3800  -10.2020  -15.9690 N.3   291  ARG291     -0.1231
    126  CA        10.1780   -9.2760  -17.0750 C.3   291  ARG291      0.1694
    127  C          8.9600   -8.3830  -16.9020 C.2   291  ARG291      0.2591
    128  O          8.7190   -7.5260  -17.7610 O.2   291  ARG291     -0.2718
    129  CB        10.0610  -10.0260  -18.4110 C.3   291  ARG291      0.0321
    130  CG        11.2550  -10.8930  -18.7400 C.3   291  ARG291      0.0489
    131  CD        12.5280  -10.0720  -18.9310 C.3   291  ARG291      0.2205
    132  NE        13.6730  -10.9680  -19.0650 N.pl3 291  ARG291     -0.0865
    133  CZ        14.5780  -11.1660  -18.1150 C.cat 291  ARG291      0.5346
    134  NH1       14.4960  -10.5030  -16.9670 N.pl3 291  ARG291      0.1354
    135  NH2       15.5780  -12.0150  -18.3190 N.pl3 291  ARG291      0.1354
    136  N          8.1940   -8.5430  -15.8260 N.am  292  ALA292     -0.1980
    137  CA         7.0060   -7.7120  -15.6240 C.3   292  ALA292      0.1597
    138  C          6.6800   -7.7210  -14.1420 C.2   292  ALA292      0.2287
    139  O          6.4340   -8.7890  -13.5750 O.2   292  ALA292     -0.2864
    140  CB         5.8250   -8.2390  -16.4470 C.3   292  ALA292      0.0319
@<TRIPOS>BOND
     1    68    67    2
     2    67    66    1
     3    96    95    2
     4    95    94    1
     5    69    70    1
     6    66    65    1
     7   103   101    1
     8    72    71    2
     9    94    93    1
    10    94    97    1
    11    70    71    1
    12    70    73    1
    13   100   101    2
    14   100    99    1
    15    71    79   am
    16    75    77   ar
    17    75    74   ar
    18    77    78   ar
    19    98    97    1
    20    98    99    1
    21   101   102    1
    22    50    51    1
    23    74    73    1
    24    74    76   ar
    25    78    76   ar
    26    79    80    1
    27    56    54    1
    28    51    54    1
    29    51    52    1
    30    80    81    1
    31    80    83    1
    32    81    82    2
    33    81    85   am
    34    54    55    1
    35    53    52    2
    36    52    57   am
    37    87    88    2
    38    87    86    1
    39    83    84    1
    40    91    90    2
    41    85    86    1
    42    57    58    1
    43    59    60    2
    44    59    58    1
    45    86    89    1
    46    90    89    1
    47    90    92   am
    48    58    61    1
    49   108   109    1
    50   108   105    1
    51   132   131    1
    52   132   133    2
    53    49    46    1
    54   109   110    1
    55   131   130    1
    56    61    62    1
    57   130   129    1
    58   107   106    2
    59   110   111    1
    60   111   112    2
    61   106   105    1
    62   129   126    1
    63   135   133    1
    64   133   134    1
    65   105   104    1
    66   128   127    2
    67     9    10    1
    68    46    45    1
    69    46    47    1
    70    62    63    2
    71    62    64   am
    72   114   112    1
    73   112   113    1
    74   126   127    1
    75   126   125    1
    76     3     4    2
    77     3     2    1
    78    47    48    2
    79   127   136   am
    80    10    13    1
    81    10    11    1
    82   140   137    1
    83     2     5    1
    84     2     1    1
    85     5     6    1
    86    13    14    1
    87    15    14   ar
    88    14    16   ar
    89   136   137    1
    90   137   138    1
    91    11    12    2
    92     6     7   ar
    93     6     8   ar
    94   138   139    2
    95   119   120    1
    96   119   116    1
    97   122   120   ar
    98   122   124   ar
    99   120   121   ar
   100    34    33   ar
   101    34    32   ar
   102   124   123   ar
   103    33    31   ar
   104    32    30   ar
   105   118   117    2
   106   117   116    1
   107   121   123   ar
   108    31    30   ar
   109    30    29    1
   110   116   115    1
   111    24    22   am
   112    29    26    1
   113    23    22    2
   114    22    21    1
   115    21    18    1
   116    44    43   ar
   117    44    42   ar
   118    26    27    1
   119    26    25    1
   120    43    41   ar
   121    28    27    2
   122    27    35   am
   123    42    40   ar
   124    41    40   ar
   125    18    17    1
   126    18    19    1
   127    35    36    1
   128    40    39    1
   129    20    19    2
   130    36    39    1
   131    36    37    1
   132    37    38    2
