@<TRIPOS>MOLECULE
tmp/5o72A01.pdb
 151 146 0 0 0
SMALL
GASTEIGER

@<TRIPOS>ATOM
      1  N         -8.3680   34.0300  -19.4130 N.3    89  HIS89      -0.1241
      2  CA        -7.1560   33.4180  -18.8590 C.3    89  HIS89       0.1621
      3  C         -6.7200   32.3120  -19.7990 C.2    89  HIS89       0.2264
      4  O         -7.4590   31.3290  -19.9690 O.2    89  HIS89      -0.2867
      5  CB        -7.3980   32.8590  -17.4610 C.3    89  HIS89       0.0745
      6  CG        -6.1490   32.4580  -16.7080 C.ar   89  HIS89       0.0817
      7  ND1       -5.2170   31.5590  -17.1940 N.ar   89  HIS89      -0.2268
      8  CD2       -5.7150   32.8080  -15.4700 C.ar   89  HIS89       0.1154
      9  CE1       -4.2480   31.4040  -16.3060 C.ar   89  HIS89       0.1986
     10  NE2       -4.5270   32.1500  -15.2510 N.ar   89  HIS89      -0.2212
     11  N         -2.4200   27.3690  -18.8350 N.3    92  PRO92      -0.2116
     12  CA        -1.0720   27.5140  -18.2650 C.3    92  PRO92       0.1372
     13  C          0.0270   27.4330  -19.3220 C.2    92  PRO92       0.2244
     14  O          0.0460   26.5220  -20.1520 O.2    92  PRO92      -0.2868
     15  CB        -0.9930   26.3450  -17.2830 C.3    92  PRO92       0.0268
     16  CG        -2.4160   26.0470  -16.9110 C.3    92  PRO92       0.0207
     17  CD        -3.2160   26.3370  -18.1400 C.3    92  PRO92       0.0892
     18  N         -7.9720   40.7810  -10.8240 N.3   137  SER137     -0.1202
     19  CA        -7.7130   39.4690  -10.2820 C.3   137  SER137      0.2020
     20  C         -6.7800   39.5930   -9.0830 C.2   137  SER137      0.2619
     21  O         -5.8600   40.4100   -9.0770 O.2   137  SER137     -0.2717
     22  CB        -7.0890   38.5410  -11.3380 C.3   137  SER137      0.2103
     23  OG        -6.7790   37.3000  -10.7420 O.3   137  SER137     -0.2182
     24  N         -6.9850   38.7180   -8.1060 N.am  138  LEU138     -0.1965
     25  CA        -6.0030   38.5670   -7.0390 C.3   138  LEU138      0.1728
     26  C         -4.6070   38.2830   -7.5890 C.2   138  LEU138      0.2616
     27  O         -3.6140   38.7070   -6.9870 O.2   138  LEU138     -0.2715
     28  CB        -6.4300   37.4690   -6.0890 C.3   138  LEU138      0.0311
     29  CG        -5.4530   37.0310   -4.9870 C.3   138  LEU138      0.0022
     30  CD1       -5.1110   38.1890   -4.0830 C.3   138  LEU138      0.0001
     31  CD2       -6.0290   35.8930   -4.1920 C.3   138  LEU138      0.0001
     32  N         -4.4880   37.5890   -8.7290 N.am  139  VAL139     -0.1977
     33  CA        -3.1360   37.2040   -9.1480 C.3   139  VAL139      0.1596
     34  C         -2.3480   38.3730   -9.6860 C.2   139  VAL139      0.2287
     35  O         -1.1100   38.2840   -9.7640 O.2   139  VAL139     -0.2864
     36  CB        -3.1240   36.0450  -10.1630 C.3   139  VAL139      0.0276
     37  CG1       -3.7840   34.8020   -9.5450 C.3   139  VAL139      0.0022
     38  CG2       -3.7850   36.4260  -11.4760 C.3   139  VAL139      0.0022
     39  N          1.0090   34.5030  -10.0710 N.3   144  GLN144     -0.1231
     40  CA         0.5230   33.1600  -10.3300 C.3   144  GLN144      0.1698
     41  C          1.5470   32.4500  -11.2010 C.2   144  GLN144      0.2592
     42  O          2.2230   33.0740  -12.0280 O.2   144  GLN144     -0.2718
     43  CB        -0.8430   33.1640  -11.0490 C.3   144  GLN144      0.0381
     44  CG        -1.4990   31.7830  -11.2790 C.3   144  GLN144      0.0905
     45  CD        -2.8570   31.8730  -12.0110 C.2   144  GLN144      0.2608
     46  OE1       -3.0400   32.6500  -12.9640 O.2   144  GLN144     -0.2717
     47  NE2       -3.8150   31.0700  -11.5530 N.am  144  GLN144     -0.0878
     48  N          1.6210   31.1410  -11.0350 N.am  145  ALA145     -0.1966
     49  CA         2.5130   30.3060  -11.8340 C.3   145  ALA145      0.1728
     50  C          1.9340   30.0460  -13.2280 C.2   145  ALA145      0.2616
     51  O          0.7170   29.9670  -13.4170 O.2   145  ALA145     -0.2715
     52  CB         2.7630   28.9740  -11.1280 C.3   145  ALA145      0.0334
     53  N          2.8360   29.9180  -14.2030 N.am  146  GLN146     -0.1977
     54  CA         2.5120   29.6620  -15.6090 C.3   146  GLN146      0.1601
     55  C          1.4320   30.5950  -16.1570 C.2   146  GLN146      0.2287
     56  O          0.5070   30.1630  -16.8510 O.2   146  GLN146     -0.2864
     57  CB         2.1190   28.1920  -15.7980 C.3   146  GLN146      0.0394
     58  CG         3.2770   27.2620  -15.4230 C.3   146  GLN146      0.0908
     59  CD         2.9630   25.7820  -15.4880 C.2   146  GLN146      0.2608
     60  OE1        1.8150   25.3610  -15.3980 O.2   146  GLN146     -0.2717
     61  NE2        4.0110   24.9770  -15.6200 N.am  146  GLN146     -0.0878
     62  N         -1.1040   36.8160  -18.4970 N.3   150  TYR150     -0.1241
     63  CA        -2.3290   37.0830  -17.7430 C.3   150  TYR150      0.1605
     64  C         -2.0410   37.9460  -16.5190 C.2   150  TYR150      0.2264
     65  O         -2.6880   38.9820  -16.3010 O.2   150  TYR150     -0.2867
     66  CB        -2.9990   35.7630  -17.3150 C.3   150  TYR150      0.0534
     67  CG        -4.2840   35.9750  -16.5220 C.ar  150  TYR150     -0.0201
     68  CD1       -5.4770   36.2420  -17.1710 C.ar  150  TYR150     -0.0009
     69  CD2       -4.2940   35.9070  -15.1280 C.ar  150  TYR150     -0.0009
     70  CE1       -6.6700   36.4390  -16.4580 C.ar  150  TYR150      0.0417
     71  CE2       -5.4720   36.1040  -14.4120 C.ar  150  TYR150      0.0417
     72  CZ        -6.6600   36.3740  -15.0870 C.ar  150  TYR150      0.1957
     73  OH        -7.8400   36.5680  -14.4090 O.3   150  TYR150     -0.2866
     74  N        -11.2780   39.1810   -7.8550 N.3   180  PRO180     -0.2102
     75  CA       -11.6950   37.8540   -7.4290 C.3   180  PRO180      0.1504
     76  C        -10.4980   36.9140   -7.3660 C.2   180  PRO180      0.2576
     77  O         -9.4880   37.1020   -8.0530 O.2   180  PRO180     -0.2718
     78  CB       -12.6850   37.4210   -8.5190 C.3   180  PRO180      0.0282
     79  CG       -12.8850   38.6520   -9.4290 C.3   180  PRO180      0.0208
     80  CD       -11.6650   39.4660   -9.2440 C.3   180  PRO180      0.0893
     81  N        -10.6150   35.9150   -6.5140 N.am  181  GLY181     -0.1943
     82  CA        -9.7530   34.7370   -6.5500 C.3   181  GLY181      0.2014
     83  C        -10.4390   33.6430   -7.3460 C.2   181  GLY181      0.2638
     84  O        -11.1680   33.9120   -8.3080 O.2   181  GLY181     -0.2714
     85  N        -10.2430   32.3940   -6.9330 N.am  182  ASN182     -0.1972
     86  CA       -10.8580   31.2750   -7.6450 C.3   182  ASN182      0.1688
     87  C        -12.3850   31.3460   -7.5720 C.2   182  ASN182      0.2292
     88  O        -12.9600   31.1240   -6.5050 O.2   182  ASN182     -0.2864
     89  CB       -10.3520   29.9400   -7.0750 C.3   182  ASN182      0.1181
     90  CG        -8.8880   29.6910   -7.4090 C.2   182  ASN182      0.2629
     91  OD1       -8.4960   29.7420   -8.5730 O.2   182  ASN182     -0.2716
     92  ND2       -8.0730   29.4820   -6.3910 N.am  182  ASN182     -0.0877
     93  N        -15.1560   29.2120  -17.5140 N.3   187  LEU187     -0.1231
     94  CA       -13.7310   29.2920  -17.8260 C.3   187  LEU187      0.1693
     95  C        -12.9080   28.3980  -16.8980 C.2   187  LEU187      0.2592
     96  O        -12.0190   27.6680  -17.3610 O.2   187  LEU187     -0.2718
     97  CB       -13.2390   30.7350  -17.7480 C.3   187  LEU187      0.0284
     98  CG       -11.7140   30.9590  -17.8870 C.3   187  LEU187      0.0019
     99  CD1      -11.1560   30.4450  -19.2050 C.3   187  LEU187      0.0001
    100  CD2      -11.3730   32.4400  -17.7480 C.3   187  LEU187      0.0001
    101  N        -13.1600   28.4670  -15.5770 N.am  188  TRP188     -0.1976
    102  CA       -12.4920   27.5460  -14.6590 C.3   188  TRP188      0.1640
    103  C        -12.7140   26.1030  -15.0960 C.2   188  TRP188      0.2290
    104  O        -11.7660   25.3170  -15.1770 O.2   188  TRP188     -0.2864
    105  CB       -12.9790   27.7540  -13.2100 C.3   188  TRP188      0.0576
    106  CG       -11.8420   27.8040  -12.1970 C.ar  188  TRP188      0.0006
    107  CD1      -11.3710   28.9110  -11.5490 C.ar  188  TRP188      0.0946
    108  CD2      -11.0380   26.7070  -11.7380 C.ar  188  TRP188      0.0152
    109  NE1      -10.3210   28.5720  -10.7210 N.ar  188  TRP188     -0.2442
    110  CE2      -10.0960   27.2290  -10.8190 C.ar  188  TRP188      0.0810
    111  CE3      -11.0220   25.3360  -12.0120 C.ar  188  TRP188      0.0012
    112  CZ2       -9.1400   26.4260  -10.1760 C.ar  188  TRP188      0.0191
    113  CZ3      -10.0800   24.5390  -11.3710 C.ar  188  TRP188      0.0001
    114  CH2       -9.1530   25.0900  -10.4570 C.ar  188  TRP188      0.0015
    115  N        -10.5660   25.2760  -18.2700 N.3   191  LEU191     -0.1231
    116  CA        -9.1500   25.0910  -17.9800 C.3   191  LEU191      0.1693
    117  C         -8.8930   23.7860  -17.2370 C.2   191  LEU191      0.2591
    118  O         -7.9410   23.0620  -17.5620 O.2   191  LEU191     -0.2718
    119  CB        -8.6220   26.2950  -17.1880 C.3   191  LEU191      0.0284
    120  CG        -8.5380   27.6230  -17.9760 C.3   191  LEU191      0.0019
    121  CD1       -7.9470   28.7660  -17.1410 C.3   191  LEU191      0.0001
    122  CD2       -7.7470   27.4850  -19.2490 C.3   191  LEU191      0.0001
    123  N         -9.7330   23.4530  -16.2500 N.am  192  ALA192     -0.1980
    124  CA        -9.5230   22.1970  -15.5310 C.3   192  ALA192      0.1597
    125  C         -9.6280   21.0060  -16.4710 C.2   192  ALA192      0.2287
    126  O         -8.8820   20.0290  -16.3290 O.2   192  ALA192     -0.2864
    127  CB       -10.5240   22.0530  -14.3840 C.3   192  ALA192      0.0319
    128  N         -6.4660   19.5800  -18.0990 N.3   195  MET195     -0.1245
    129  CA        -5.3720   19.0850  -17.2810 C.3   195  MET195      0.1570
    130  C         -5.3930   17.5640  -17.2240 C.2   195  MET195      0.2261
    131  O         -6.4230   16.9350  -17.4610 O.2   195  MET195     -0.2867
    132  CB        -5.4680   19.6600  -15.8620 C.3   195  MET195      0.0387
    133  CG        -5.5740   21.1660  -15.8300 C.3   195  MET195      0.0595
    134  SD        -4.0590   21.9760  -16.3420 S.3   195  MET195     -0.1393
    135  CE        -3.0360   21.6330  -14.9120 C.3   195  MET195      0.0692
    136  N         -7.3760   18.7810  -10.0890 N.3   201  THR201     -0.1218
    137  CA        -7.0790   20.1930  -10.2810 C.3   201  THR201      0.1862
    138  C         -8.1440   21.0480   -9.6200 C.2   201  THR201      0.2287
    139  O         -7.8310   22.0980   -9.0520 O.2   201  THR201     -0.2866
    140  CB        -6.9560   20.5030  -11.7770 C.3   201  THR201      0.1770
    141  OG1       -5.7990   19.8460  -12.3060 O.3   201  THR201     -0.2211
    142  CG2       -6.7970   21.9960  -12.0250 C.3   201  THR201      0.0375
    143  N         -7.5870   20.8890   -5.7550 N.3   204  GLU204     -0.1245
    144  CA        -6.5360   21.8680   -5.5000 C.3   204  GLU204      0.1567
    145  C         -7.0870   23.2910   -5.4490 C.2   204  GLU204      0.2260
    146  O         -6.7460   24.0630   -4.5510 O.2   204  GLU204     -0.2867
    147  CB        -5.4650   21.7750   -6.5900 C.3   204  GLU204      0.0388
    148  CG        -4.4410   20.6590   -6.3940 C.3   204  GLU204      0.1160
    149  CD        -3.3670   20.6170   -7.4880 C.2   204  GLU204      0.3649
    150  OE1       -3.2770   21.5660   -8.3050 O.co2 204  GLU204     -0.2457
    151  OE2       -2.6100   19.6200   -7.5330 O.co2 204  GLU204     -0.2457
@<TRIPOS>BOND
     1    14    13    2
     2     4     3    2
     3     3     2    1
     4     1     2    1
     5    13    12    1
     6   122   120    1
     7    99    98    1
     8     2     5    1
     9    11    12    1
    10    11    17    1
    11    62    63    1
    12   115   116    1
    13    12    15    1
    14    17    16    1
    15   128   129    1
    16   116   117    1
    17   116   119    1
    18   120   119    1
    19   120   121    1
    20    98   100    1
    21    98    97    1
    22    94    97    1
    23    94    93    1
    24    94    95    1
    25    63    66    1
    26    63    64    1
    27   118   117    2
    28     5     6    1
    29   131   130    2
    30    96    95    2
    31    66    67    1
    32    15    16    1
    33   129   130    1
    34   129   132    1
    35   117   123   am
    36     7     6   ar
    37     7     9   ar
    38    68    67   ar
    39    68    70   ar
    40    95   101   am
    41    56    55    2
    42     6     8   ar
    43    67    69   ar
    44    64    65    2
    45   125   126    2
    46   125   124    1
    47    70    72   ar
    48   134   133    1
    49   134   135    1
    50     9    10   ar
    51   123   124    1
    52    55    54    1
    53   132   133    1
    54    57    54    1
    55    57    58    1
    56    61    59   am
    57    54    53    1
    58   101   102    1
    59   124   127    1
    60    59    58    1
    61    59    60    2
    62     8    10   ar
    63   104   103    2
    64    69    71   ar
    65   103   102    1
    66    72    71   ar
    67    72    73    1
    68   102   105    1
    69    53    50   am
    70    51    50    2
    71    50    49    1
    72   105   106    1
    73    46    45    2
    74   141   140    1
    75   106   108   ar
    76   106   107   ar
    77    42    41    2
    78   142   140    1
    79   111   108   ar
    80   111   113   ar
    81    45    47   am
    82    45    44    1
    83    49    52    1
    84    49    48    1
    85   140   137    1
    86   108   110   ar
    87   107   109   ar
    88    38    36    1
    89   113   114   ar
    90    22    23    1
    91    22    19    1
    92    44    43    1
    93    41    48   am
    94    41    40    1
    95    43    40    1
    96    18    19    1
    97   110   109   ar
    98   110   112   ar
    99   114   112   ar
   100    40    39    1
   101    19    20    1
   102   137   136    1
   103   137   138    1
   104    36    37    1
   105    36    33    1
   106    35    34    2
   107    34    33    1
   108   138   139    2
   109    79    80    1
   110    79    78    1
   111    80    74    1
   112    33    32    1
   113    20    21    2
   114    20    24   am
   115    32    26   am
   116    91    90    2
   117    78    75    1
   118    84    83    2
   119   150   149   ar
   120    24    25    1
   121    77    76    2
   122    74    75    1
   123    86    87    1
   124    86    89    1
   125    86    85    1
   126    26    25    1
   127    26    27    2
   128    87    88    2
   129   151   149   ar
   130   149   148    1
   131    75    76    1
   132    90    89    1
   133    90    92   am
   134    76    81   am
   135    83    85   am
   136    83    82    1
   137    25    28    1
   138   147   148    1
   139   147   144    1
   140    82    81    1
   141    28    29    1
   142   143   144    1
   143   144   145    1
   144   145   146    2
   145    29    31    1
   146    29    30    1
