@<TRIPOS>MOLECULE
tmp/5o77A02.pdb
 92 85 0 0 0
SMALL
GASTEIGER

@<TRIPOS>ATOM
      1  N        -29.4360  -14.7100  -14.2270 N.3    43  GLY43      -0.1210
      2  CA       -29.9890  -13.8050  -15.1840 C.3    43  GLY43       0.1956
      3  C        -28.9460  -12.8990  -15.7860 C.2    43  GLY43       0.2611
      4  O        -28.0600  -12.4690  -15.0640 O.2    43  GLY43      -0.2717
      5  N        -29.0990  -12.5130  -17.0550 N.am   44  GLU44      -0.1979
      6  CA       -28.1980  -11.5660  -17.7290 C.3    44  GLU44       0.1602
      7  C        -28.9270  -10.7150  -18.6940 C.2    44  GLU44       0.2287
      8  O        -29.7600  -11.2370  -19.4630 O.2    44  GLU44      -0.2864
      9  CB       -27.0650  -12.3410  -18.4900 C.3    44  GLU44       0.0415
     10  CG       -26.0140  -11.5180  -19.1680 C.3    44  GLU44       0.1163
     11  CD       -25.0640  -12.3610  -20.0370 C.2    44  GLU44       0.3649
     12  OE1      -24.9720  -13.6090  -19.7640 O.co2  44  GLU44      -0.2457
     13  OE2      -24.4510  -11.7530  -21.0040 O.co2  44  GLU44      -0.2457
     14  N        -23.3950   -4.8360  -19.1390 N.3    52  ILE52      -0.1245
     15  CA       -24.2850   -5.9950  -18.9310 C.3    52  ILE52       0.1561
     16  C        -24.7520   -5.9700  -17.5080 C.2    52  ILE52       0.2260
     17  O        -23.9230   -5.7570  -16.6000 O.2    52  ILE52      -0.2867
     18  CB       -23.5420   -7.3450  -19.2530 C.3    52  ILE52       0.0252
     19  CG1      -23.2680   -7.3550  -20.7890 C.3    52  ILE52       0.0019
     20  CG2      -24.2480   -8.5630  -18.7750 C.3    52  ILE52       0.0019
     21  CD1      -22.2530   -8.3740  -21.2040 C.3    52  ILE52       0.0001
     22  N        -26.5830   -8.3010  -14.3140 N.3    54  TYR54      -0.1241
     23  CA       -26.7330   -9.6920  -13.9700 C.3    54  TYR54       0.1605
     24  C        -27.2580   -9.9170  -12.5740 C.2    54  TYR54       0.2264
     25  O        -27.1380   -9.0370  -11.7380 O.2    54  TYR54      -0.2867
     26  CB       -25.4440  -10.4530  -14.1810 C.3    54  TYR54       0.0534
     27  CG       -24.2650   -9.9560  -13.3700 C.ar   54  TYR54      -0.0201
     28  CD1      -23.9850  -10.4890  -12.0950 C.ar   54  TYR54      -0.0009
     29  CD2      -23.4250   -8.9840  -13.8640 C.ar   54  TYR54      -0.0009
     30  CE1      -22.8680  -10.0410  -11.3550 C.ar   54  TYR54       0.0417
     31  CE2      -22.3140   -8.5300  -13.1030 C.ar   54  TYR54       0.0417
     32  CZ       -22.0250   -9.1160  -11.8650 C.ar   54  TYR54       0.1957
     33  OH       -20.8930   -8.5880  -11.1810 O.3    54  TYR54      -0.2866
     34  N        -27.5390  -11.9630   -5.2640 N.3    78  PHE78      -0.1241
     35  CA       -26.7960  -10.7320   -5.5530 C.3    78  PHE78       0.1605
     36  C        -27.1830  -10.2490   -6.9290 C.2    78  PHE78       0.2264
     37  O        -27.6750  -10.9910   -7.7850 O.2    78  PHE78      -0.2867
     38  CB       -25.3010  -10.9100   -5.3640 C.3    78  PHE78       0.0534
     39  CG       -24.6680  -11.9930   -6.2340 C.ar   78  PHE78      -0.0203
     40  CD1      -24.3020  -11.7040   -7.5490 C.ar   78  PHE78      -0.0042
     41  CD2      -24.4380  -13.2720   -5.7570 C.ar   78  PHE78      -0.0042
     42  CE1      -23.7020  -12.6460   -8.3150 C.ar   78  PHE78      -0.0003
     43  CE2      -23.8490  -14.2590   -6.5800 C.ar   78  PHE78      -0.0003
     44  CZ       -23.4740  -13.9330   -7.8240 C.ar   78  PHE78      -0.0000
     45  N        -21.4670   -5.2610  -15.1840 N.3    82  LYS82      -0.1245
     46  CA       -20.1140   -5.5340  -15.6800 C.3    82  LYS82       0.1561
     47  C        -19.8710   -4.7110  -16.9360 C.2    82  LYS82       0.2260
     48  O        -20.7700   -4.5950  -17.7850 O.2    82  LYS82      -0.2867
     49  CB       -19.8670   -6.9980  -15.8680 C.3    82  LYS82       0.0271
     50  CG       -20.6790   -7.6700  -16.8500 C.3    82  LYS82       0.0035
     51  CD       -20.4900   -9.1990  -16.8180 C.3    82  LYS82       0.0206
     52  CE       -19.0900   -9.7520  -16.9850 C.3    82  LYS82       0.1093
     53  NZ       -19.0180  -11.2550  -16.6720 N.3    82  LYS82      -0.1314
     54  N        -16.2800   -5.4410  -12.9650 N.3    88  SER88      -0.1217
     55  CA       -17.6620   -5.7250  -12.5360 C.3    88  SER88       0.1889
     56  C        -17.8190   -5.3720  -11.0840 C.2    88  SER88       0.2288
     57  O        -16.8320   -5.2810  -10.3340 O.2    88  SER88      -0.2866
     58  CB       -17.9880   -7.2080  -12.6930 C.3    88  SER88       0.2089
     59  OG       -17.1200   -8.0550  -11.9200 O.3    88  SER88      -0.2183
     60  N        -20.7190   -6.3500   -7.8830 N.3    90  ASP90      -0.1239
     61  CA       -21.9480   -6.8880   -7.4110 C.3    90  ASP90       0.1674
     62  C        -22.0960   -6.7420   -5.8780 C.2    90  ASP90       0.2266
     63  O        -21.0750   -6.5500   -5.1690 O.2    90  ASP90      -0.2867
     64  CB       -22.1290   -8.3250   -7.8690 C.3    90  ASP90       0.1410
     65  CG       -20.9150   -9.1890   -7.7280 C.2    90  ASP90       0.3668
     66  OD1      -20.4880   -9.4500   -6.5590 O.co2  90  ASP90      -0.2456
     67  OD2      -20.3620   -9.6360   -8.7860 O.co2  90  ASP90      -0.2456
     68  N        -14.5400   -6.8450   -9.3040 N.3   134  ARG134     -0.1245
     69  CA       -13.6610   -7.7970   -9.9810 C.3   134  ARG134      0.1563
     70  C        -13.1750   -7.2500  -11.2880 C.2   134  ARG134      0.2260
     71  O        -13.8340   -6.3950  -11.9200 O.2   134  ARG134     -0.2867
     72  CB       -14.3500   -9.1800  -10.1580 C.3   134  ARG134      0.0307
     73  CG       -14.5850   -9.9130   -8.8250 C.3   134  ARG134      0.0489
     74  CD       -15.3430  -11.2320   -9.0460 C.3   134  ARG134      0.2205
     75  NE       -15.4830  -12.0300   -7.8060 N.pl3 134  ARG134     -0.0865
     76  CZ       -14.5100  -12.8230   -7.3300 C.cat 134  ARG134      0.5346
     77  NH1      -13.3990  -13.0060   -7.9920 N.pl3 134  ARG134      0.1354
     78  NH2      -14.7080  -13.4370   -6.1190 N.pl3 134  ARG134      0.1354
     79  N        -11.1960   -8.9690  -14.8630 N.3   136  SER136     -0.1202
     80  CA       -10.7580  -10.2920  -15.4270 C.3   136  SER136      0.2020
     81  C         -9.4410  -10.4660  -16.1820 C.2   136  SER136      0.2618
     82  O         -9.0050  -11.6270  -16.4140 O.2   136  SER136     -0.2717
     83  CB       -11.9120  -10.8460  -16.2790 C.3   136  SER136      0.2103
     84  OG       -12.0650  -10.0980  -17.4660 O.3   136  SER136     -0.2182
     85  N         -8.8660   -9.3790  -16.6460 N.am  137  ASP137     -0.1973
     86  CA        -7.6420   -9.4580  -17.4990 C.3   137  ASP137      0.1709
     87  C         -6.8720   -8.1710  -17.3460 C.2   137  ASP137      0.2293
     88  O         -6.2520   -7.6710  -18.3170 O.2   137  ASP137     -0.2864
     89  CB        -7.9400   -9.7510  -18.9980 C.3   137  ASP137      0.1436
     90  CG        -8.6050  -11.0710  -19.2240 C.2   137  ASP137      0.3671
     91  OD1       -7.9220  -12.1400  -19.2120 O.co2 137  ASP137     -0.2456
     92  OD2       -9.8740  -11.0570  -19.2970 O.co2 137  ASP137     -0.2456
@<TRIPOS>BOND
     1    21    19    1
     2    13    11   ar
     3    19    18    1
     4    11    12   ar
     5    11    10    1
     6     8     7    2
     7    92    90   ar
     8    18    15    1
     9    18    20    1
    10    90    91   ar
    11    90    89    1
    12    10     9    1
    13    14    15    1
    14    89    86    1
    15    15    16    1
    16     7     6    1
    17     9     6    1
    18    88    87    2
    19    48    47    2
    20     6     5    1
    21    16    17    2
    22    86    87    1
    23    86    85    1
    24    84    83    1
    25     5     3   am
    26    52    51    1
    27    52    53    1
    28    47    46    1
    29    50    51    1
    30    50    49    1
    31    85    81   am
    32    82    81    2
    33    83    80    1
    34    81    80    1
    35    49    46    1
    36     3     2    1
    37     3     4    2
    38    46    45    1
    39    80    79    1
    40     2     1    1
    41    22    23    1
    42    26    23    1
    43    26    27    1
    44    23    24    1
    45    29    27   ar
    46    29    31   ar
    47    27    28   ar
    48    31    32   ar
    49    54    55    1
    50    58    55    1
    51    58    59    1
    52    24    25    2
    53    55    56    1
    54    28    30   ar
    55    71    70    2
    56    32    30   ar
    57    32    33    1
    58    70    69    1
    59    56    57    2
    60    72    69    1
    61    72    73    1
    62    69    68    1
    63    74    73    1
    64    74    75    1
    65    67    65   ar
    66    42    44   ar
    67    42    40   ar
    68    77    76    1
    69    60    61    1
    70    64    65    1
    71    64    61    1
    72    44    43   ar
    73    75    76    2
    74    37    36    2
    75    65    66   ar
    76    40    39   ar
    77    61    62    1
    78    76    78    1
    79    36    35    1
    80    43    41   ar
    81    39    41   ar
    82    39    38    1
    83    62    63    2
    84    35    38    1
    85    35    34    1
