@<TRIPOS>MOLECULE
tmp/5o7aD01.pdb
 227 212 0 0 0
SMALL
GASTEIGER

@<TRIPOS>ATOM
      1  N         22.3770   13.2330  -34.4290 N.3     3  ILE3       -0.1245
      2  CA        22.6640   11.8030  -34.4490 C.3     3  ILE3        0.1561
      3  C         23.2590   11.4430  -35.8050 C.2     3  ILE3        0.2260
      4  O         22.8110   11.9420  -36.8480 O.2     3  ILE3       -0.2867
      5  CB        21.3980   10.9680  -34.1630 C.3     3  ILE3        0.0252
      6  CG1       20.8550   11.3120  -32.7660 C.3     3  ILE3        0.0019
      7  CG2       21.7060    9.4790  -34.3100 C.3     3  ILE3        0.0019
      8  CD1       19.7040   10.4380  -32.2640 C.3     3  ILE3        0.0001
      9  N         18.2000   14.0490  -37.2840 N.3    49  TYR49      -0.1241
     10  CA        18.5700   13.0010  -38.2310 C.3    49  TYR49       0.1605
     11  C         18.8290   13.4930  -39.6450 C.2    49  TYR49       0.2264
     12  O         19.0970   12.6640  -40.5200 O.2    49  TYR49      -0.2867
     13  CB        17.4890   11.9140  -38.2940 C.3    49  TYR49       0.0534
     14  CG        17.4950   10.9620  -37.1130 C.ar   49  TYR49      -0.0201
     15  CD1       18.2220    9.7810  -37.1590 C.ar   49  TYR49      -0.0009
     16  CD2       16.7540   11.2330  -35.9680 C.ar   49  TYR49      -0.0009
     17  CE1       18.2370    8.9060  -36.0770 C.ar   49  TYR49       0.0417
     18  CE2       16.7520   10.3570  -34.8900 C.ar   49  TYR49       0.0417
     19  CZ        17.5010    9.1990  -34.9500 C.ar   49  TYR49       0.1957
     20  OH        17.5160    8.3270  -33.8900 O.3    49  TYR49      -0.2866
     21  N         24.1280    5.4830  -33.8670 N.3   133  GLN133     -0.1245
     22  CA        23.2610    4.3110  -33.8030 C.3   133  GLN133      0.1566
     23  C         23.5750    3.4480  -35.0130 C.2   133  GLN133      0.2260
     24  O         23.6500    3.9540  -36.1380 O.2   133  GLN133     -0.2867
     25  CB        21.7510    4.6720  -33.7540 C.3   133  GLN133      0.0367
     26  CG        21.2890    5.7690  -34.7290 C.3   133  GLN133      0.0905
     27  CD        19.7640    5.8700  -34.8730 C.2   133  GLN133      0.2608
     28  OE1       19.0770    6.4320  -34.0210 O.2   133  GLN133     -0.2717
     29  NE2       19.2380    5.3420  -35.9840 N.am  133  GLN133     -0.0878
     30  N         24.8730    3.4430  -29.7640 N.3   164  ASN164     -0.1240
     31  CA        23.7830    2.4830  -29.6400 C.3   164  ASN164      0.1653
     32  C         23.7370    1.5650  -30.8530 C.2   164  ASN164      0.2266
     33  O         24.0610    1.9740  -31.9670 O.2   164  ASN164     -0.2867
     34  CB        22.4350    3.1830  -29.4930 C.3   164  ASN164      0.1155
     35  CG        22.3800    4.0900  -28.2800 C.2   164  ASN164      0.2627
     36  OD1       21.7330    5.1350  -28.3150 O.2   164  ASN164     -0.2716
     37  ND2       23.0730    3.7060  -27.2000 N.am  164  ASN164     -0.0877
     38  N         21.0730   -1.3690  -32.8710 N.3   166  PHE166     -0.1241
     39  CA        19.8200   -2.0960  -33.0520 C.3   166  PHE166      0.1605
     40  C         20.2270   -3.4300  -33.6590 C.2   166  PHE166      0.2264
     41  O         20.5180   -3.5070  -34.8490 O.2   166  PHE166     -0.2867
     42  CB        18.8750   -1.3270  -33.9700 C.3   166  PHE166      0.0534
     43  CG        18.4010   -0.0470  -33.3890 C.ar  166  PHE166     -0.0203
     44  CD1       17.2530   -0.0130  -32.6110 C.ar  166  PHE166     -0.0042
     45  CD2       19.1220    1.1180  -33.5710 C.ar  166  PHE166     -0.0042
     46  CE1       16.8120    1.1750  -32.0370 C.ar  166  PHE166     -0.0003
     47  CE2       18.6920    2.3190  -33.0010 C.ar  166  PHE166     -0.0003
     48  CZ        17.5320    2.3450  -32.2240 C.ar  166  PHE166     -0.0000
     49  N         24.0460    1.1780  -25.4260 N.3   196  GLU196     -0.1245
     50  CA        22.7360    0.5430  -25.4520 C.3   196  GLU196      0.1567
     51  C         22.5690   -0.3640  -26.6710 C.2   196  GLU196      0.2260
     52  O         22.9560   -0.0060  -27.7900 O.2   196  GLU196     -0.2867
     53  CB        21.6350    1.5760  -25.4880 C.3   196  GLU196      0.0388
     54  CG        21.6150    2.5300  -24.3560 C.3   196  GLU196      0.1160
     55  CD        20.5700    3.5810  -24.5970 C.2   196  GLU196      0.3649
     56  OE1       20.5280    4.5930  -23.8680 O.co2 196  GLU196     -0.2457
     57  OE2       19.7820    3.3860  -25.5480 O.co2 196  GLU196     -0.2457
     58  N         19.4350   -2.6230  -28.5130 N.3   198  TYR198     -0.1241
     59  CA        18.0780   -3.1210  -28.6720 C.3   198  TYR198      0.1605
     60  C         18.1510   -4.5040  -29.3010 C.2   198  TYR198      0.2264
     61  O         18.5920   -4.6570  -30.4440 O.2   198  TYR198     -0.2867
     62  CB        17.2640   -2.1390  -29.5020 C.3   198  TYR198      0.0534
     63  CG        17.1740   -0.8450  -28.7580 C.ar  198  TYR198     -0.0201
     64  CD1       18.2640    0.0200  -28.6900 C.ar  198  TYR198     -0.0009
     65  CD2       16.0280   -0.5140  -28.0550 C.ar  198  TYR198     -0.0009
     66  CE1       18.2010    1.1900  -27.9720 C.ar  198  TYR198      0.0417
     67  CE2       15.9510    0.6570  -27.3370 C.ar  198  TYR198      0.0417
     68  CZ        17.0390    1.5010  -27.2960 C.ar  198  TYR198      0.1957
     69  OH        16.9420    2.6600  -26.5640 O.3   198  TYR198     -0.2866
     70  N          9.1820    4.2790  -32.8220 N.3   233  GLY233     -0.1210
     71  CA         8.7150    4.5840  -31.4820 C.3   233  GLY233      0.1956
     72  C          9.8090    5.0070  -30.5190 C.2   233  GLY233      0.2612
     73  O          9.6460    5.9950  -29.7900 O.2   233  GLY233     -0.2717
     74  N         10.9340    4.2780  -30.4940 N.am  234  VAL234     -0.1965
     75  CA        11.9680    4.6000  -29.5080 C.3   234  VAL234      0.1727
     76  C         12.6480    5.9280  -29.8110 C.2   234  VAL234      0.2616
     77  O         13.2240    6.5370  -28.9090 O.2   234  VAL234     -0.2715
     78  CB        13.0450    3.4990  -29.3720 C.3   234  VAL234      0.0290
     79  CG1       12.4300    2.1470  -29.3660 C.3   234  VAL234      0.0023
     80  CG2       14.0880    3.6150  -30.4550 C.3   234  VAL234      0.0023
     81  N         12.6150    6.3890  -31.0590 N.am  235  THR235     -0.1951
     82  CA        13.2190    7.6580  -31.4370 C.3   235  THR235      0.1897
     83  C         12.2120    8.8060  -31.4120 C.2   235  THR235      0.2313
     84  O         12.5600    9.9260  -31.7900 O.2   235  THR235     -0.2863
     85  CB        13.8820    7.5420  -32.8250 C.3   235  THR235      0.1794
     86  OG1       12.8990    7.2860  -33.8410 O.3   235  THR235     -0.2208
     87  CG2       14.8790    6.4050  -32.8480 C.3   235  THR235      0.0378
     88  N         10.9320   10.4870  -28.9200 N.3   237  CYS237     -0.1221
     89  CA        11.2670   11.5430  -27.9710 C.3   237  CYS237      0.1808
     90  C         12.4850   12.3470  -28.4230 C.2   237  CYS237      0.2601
     91  O         12.6440   13.5060  -28.0290 O.2   237  CYS237     -0.2717
     92  CB        11.5030   10.9270  -26.6020 C.3   237  CYS237      0.0970
     93  SG        12.9750    9.8990  -26.6240 S.3   237  CYS237     -0.0800
     94  N         13.3530   11.7480  -29.2390 N.am  238  LEU238     -0.1979
     95  CA        14.4490   12.4880  -29.8570 C.3   238  LEU238      0.1596
     96  C         13.9740   13.3740  -31.0090 C.2   238  LEU238      0.2287
     97  O         14.5910   14.4140  -31.2940 O.2   238  LEU238     -0.2864
     98  CB        15.5080   11.5070  -30.3630 C.3   238  LEU238      0.0297
     99  CG        16.0900   10.5790  -29.2960 C.3   238  LEU238      0.0022
    100  CD1       16.5140    9.2290  -29.8930 C.3   238  LEU238      0.0001
    101  CD2       17.2640   11.2690  -28.5860 C.3   238  LEU238      0.0001
    102  N          8.9290   16.9830  -25.5840 N.3   243  GLN243     -0.1231
    103  CA         9.3460   15.8300  -24.8210 C.3   243  GLN243      0.1698
    104  C         10.3450   16.3970  -23.8450 C.2   243  GLN243      0.2592
    105  O         10.7590   17.5470  -23.9850 O.2   243  GLN243     -0.2718
    106  CB        10.0090   14.7920  -25.7240 C.3   243  GLN243      0.0381
    107  CG         9.1090   14.2680  -26.8310 C.3   243  GLN243      0.0905
    108  CD         7.8530   13.6080  -26.2970 C.2   243  GLN243      0.2608
    109  OE1        7.6370   13.5460  -25.0870 O.2   243  GLN243     -0.2717
    110  NE2        7.0170   13.1100  -27.2010 N.am  243  GLN243     -0.0878
    111  N         10.7490   15.6110  -22.8550 N.am  244  LEU244     -0.1980
    112  CA        11.7240   16.0950  -21.8900 C.3   244  LEU244      0.1596
    113  C         12.9530   16.4230  -22.7230 C.2   244  LEU244      0.2287
    114  O         13.1920   15.7790  -23.7460 O.2   244  LEU244     -0.2864
    115  CB        12.0490   15.0170  -20.8580 C.3   244  LEU244      0.0297
    116  CG        13.0830   15.3880  -19.7930 C.3   244  LEU244      0.0022
    117  CD1       12.6150   16.5870  -18.9830 C.3   244  LEU244      0.0001
    118  CD2       13.3700   14.2020  -18.8860 C.3   244  LEU244      0.0001
    119  N         15.6970   15.6000  -23.4150 N.3   246  ALA246     -0.1245
    120  CA        16.6210   14.4760  -23.2540 C.3   246  ALA246      0.1562
    121  C         17.3550   14.1560  -24.5490 C.2   246  ALA246      0.2260
    122  O         16.7260   13.8620  -25.5690 O.2   246  ALA246     -0.2867
    123  CB        15.8860   13.2340  -22.7540 C.3   246  ALA246      0.0290
    124  N         20.6990   11.5690  -26.0380 N.3   248  LEU248     -0.1245
    125  CA        21.0200   10.1520  -25.8480 C.3   248  LEU248      0.1561
    126  C         21.7530    9.8800  -24.5310 C.2   248  LEU248      0.2260
    127  O         21.4870    8.8600  -23.8850 O.2   248  LEU248     -0.2867
    128  CB        21.8500    9.6290  -27.0160 C.3   248  LEU248      0.0270
    129  CG        21.2790    9.5230  -28.4310 C.3   248  LEU248      0.0019
    130  CD1       22.4130    9.3690  -29.4600 C.3   248  LEU248      0.0001
    131  CD2       20.3050    8.3470  -28.5000 C.3   248  LEU248      0.0001
    132  N         19.4240    9.6730  -21.6350 N.3   251  LEU251     -0.1245
    133  CA        18.6070    8.4640  -21.6630 C.3   251  LEU251      0.1561
    134  C         19.4280    7.2330  -21.2840 C.2   251  LEU251      0.2260
    135  O         18.9420    6.3480  -20.5650 O.2   251  LEU251     -0.2867
    136  CB        17.9690    8.3040  -23.0470 C.3   251  LEU251      0.0270
    137  CG        17.0420    9.4020  -23.6120 C.3   251  LEU251      0.0019
    138  CD1       16.6660    9.1180  -25.0570 C.3   251  LEU251      0.0001
    139  CD2       15.7810    9.5730  -22.7740 C.3   251  LEU251      0.0001
    140  N         19.9090    7.0100  -17.5580 N.3   254  ASN254     -0.1225
    141  CA        18.7510    6.6320  -16.7810 C.3   254  ASN254      0.1785
    142  C         18.2870    5.2110  -17.0600 C.2   254  ASN254      0.2597
    143  O         17.4890    4.6750  -16.2840 O.2   254  ASN254     -0.2718
    144  CB        17.6230    7.6450  -17.0270 C.3   254  ASN254      0.1169
    145  CG        17.8660    8.9730  -16.3040 C.2   254  ASN254      0.2627
    146  OD1       17.8210    9.0290  -15.0890 O.2   254  ASN254     -0.2716
    147  ND2       18.1280   10.0260  -17.0450 N.am  254  ASN254     -0.0877
    148  N         18.7810    4.5790  -18.1190 N.am  255  MET255     -0.1979
    149  CA        18.3800    3.2230  -18.4600 C.3   255  MET255      0.1605
    150  C         19.4100    2.1720  -18.0910 C.2   255  MET255      0.2287
    151  O         19.0600    0.9940  -18.0150 O.2   255  MET255     -0.2864
    152  CB        18.0920    3.1050  -19.9670 C.3   255  MET255      0.0413
    153  CG        16.8860    3.8810  -20.4470 C.3   255  MET255      0.0598
    154  SD        15.3450    3.2220  -19.7610 S.3   255  MET255     -0.1393
    155  CE        15.3450    1.5470  -20.3550 C.3   255  MET255      0.0692
    156  N         18.3350   -4.3540  -24.1910 N.3   264  PHE264     -0.1241
    157  CA        16.9600   -3.9860  -23.9270 C.3   264  PHE264      0.1605
    158  C         15.9710   -4.8850  -24.6520 C.2   264  PHE264      0.2264
    159  O         16.2110   -5.3380  -25.7690 O.2   264  PHE264     -0.2867
    160  CB        16.7100   -2.5420  -24.3480 C.3   264  PHE264      0.0534
    161  CG        17.5600   -1.5530  -23.6230 C.ar  264  PHE264     -0.0203
    162  CD1       17.9590   -1.7900  -22.3130 C.ar  264  PHE264     -0.0042
    163  CD2       17.9710   -0.3960  -24.2350 C.ar  264  PHE264     -0.0042
    164  CE1       18.7420   -0.8890  -21.6290 C.ar  264  PHE264     -0.0003
    165  CE2       18.7590    0.5000  -23.5530 C.ar  264  PHE264     -0.0003
    166  CZ        19.1460    0.2440  -22.2440 C.ar  264  PHE264     -0.0000
    167  N         12.4980    0.6470  -17.0990 N.3   301  VAL301     -0.1231
    168  CA        11.5420    0.6070  -18.1940 C.3   301  VAL301      0.1692
    169  C         11.3210    2.0390  -18.6960 C.2   301  VAL301      0.2592
    170  O         11.3430    3.0040  -17.9200 O.2   301  VAL301     -0.2718
    171  CB        10.1900   -0.0380  -17.7810 C.3   301  VAL301      0.0266
    172  CG1        9.2130    0.0630  -18.9170 C.3   301  VAL301      0.0020
    173  CG2       10.3540   -1.5070  -17.4130 C.3   301  VAL301      0.0020
    174  N         11.0940    2.1730  -20.0070 N.am  302  ALA302     -0.1966
    175  CA        10.6820    3.4340  -20.5990 C.3   302  ALA302      0.1728
    176  C          9.5900    3.1390  -21.6150 C.2   302  ALA302      0.2616
    177  O          9.7450    2.2430  -22.4420 O.2   302  ALA302     -0.2715
    178  CB        11.8670    4.1390  -21.2720 C.3   302  ALA302      0.0334
    179  N          8.4880    3.8730  -21.5680 N.am  303  ALA303     -0.1963
    180  CA         7.4110    3.6850  -22.5330 C.3   303  ALA303      0.1728
    181  C          6.9810    5.0280  -23.1060 C.2   303  ALA303      0.2616
    182  O          6.9300    6.0320  -22.3940 O.2   303  ALA303     -0.2715
    183  CB         6.2000    2.9690  -21.9010 C.3   303  ALA303      0.0334
    184  N          6.6690    5.0390  -24.4000 N.am  304  ILE304     -0.1977
    185  CA         6.1530    6.2200  -25.0800 C.3   304  ILE304      0.1596
    186  C          4.7900    5.8560  -25.6500 C.2   304  ILE304      0.2287
    187  O          4.6220    4.7680  -26.2140 O.2   304  ILE304     -0.2864
    188  CB         7.1110    6.7090  -26.1810 C.3   304  ILE304      0.0276
    189  CG1        6.5940    7.9850  -26.8450 C.3   304  ILE304      0.0022
    190  CG2        7.3190    5.6380  -27.2250 C.3   304  ILE304      0.0022
    191  CD1        6.5360    9.1650  -25.9180 C.3   304  ILE304      0.0001
    192  N          9.5560    5.1620  -16.5770 N.3   338  LYS338     -0.1231
    193  CA         9.3080    6.4840  -17.1460 C.3   338  LYS338      0.1693
    194  C          8.3700    6.3910  -18.3420 C.2   338  LYS338      0.2593
    195  O          8.3810    5.4070  -19.0820 O.2   338  LYS338     -0.2718
    196  CB        10.6110    7.1610  -17.5800 C.3   338  LYS338      0.0285
    197  CG        11.5900    7.3430  -16.4600 C.3   338  LYS338      0.0035
    198  CD        10.9630    8.1480  -15.3430 C.3   338  LYS338      0.0206
    199  CE        11.4720    7.7220  -13.9860 C.3   338  LYS338      0.1093
    200  NZ        10.6690    8.4770  -12.9200 N.3   338  LYS338     -0.1314
    201  N          7.5710    7.4310  -18.5440 N.am  339  THR339     -0.1939
    202  CA         6.6200    7.4370  -19.6400 C.3   339  THR339      0.2028
    203  C          6.4930    8.8270  -20.2320 C.2   339  THR339      0.2642
    204  O          6.5920    9.8290  -19.5260 O.2   339  THR339     -0.2714
    205  CB         5.2460    6.9620  -19.1860 C.3   339  THR339      0.1808
    206  OG1        5.3380    5.6100  -18.7290 O.3   339  THR339     -0.2208
    207  CG2        4.2850    7.0030  -20.3640 C.3   339  THR339      0.0379
    208  N          6.2610    8.8710  -21.5390 N.am  340  ALA340     -0.1977
    209  CA         6.0060   10.1100  -22.2580 C.3   340  ALA340      0.1597
    210  C          4.8100    9.9180  -23.1810 C.2   340  ALA340      0.2287
    211  O          4.3250    8.7990  -23.3800 O.2   340  ALA340     -0.2864
    212  CB         7.2390   10.5620  -23.0580 C.3   340  ALA340      0.0319
    213  N          5.1400    2.3180  -27.6160 N.3   354  THR354     -0.1218
    214  CA         6.4150    1.6240  -27.7230 C.3   354  THR354      0.1862
    215  C          7.0420    1.5290  -26.3390 C.2   354  THR354      0.2287
    216  O          6.9480    2.4660  -25.5300 O.2   354  THR354     -0.2866
    217  CB         7.3750    2.3320  -28.6840 C.3   354  THR354      0.1770
    218  OG1        6.6900    2.6340  -29.8910 O.3   354  THR354     -0.2211
    219  CG2        8.5710    1.4390  -29.0440 C.3   354  THR354      0.0375
    220  N         10.4150   -0.0470  -23.9150 N.3   356  ILE356     -0.1245
    221  CA        11.8180   -0.4390  -23.7980 C.3   356  ILE356      0.1561
    222  C         12.0470   -0.9750  -22.3920 C.2   356  ILE356      0.2260
    223  O         11.7930   -0.2700  -21.4060 O.2   356  ILE356     -0.2867
    224  CB        12.7670    0.7340  -24.0610 C.3   356  ILE356      0.0252
    225  CG1       12.4510    1.3700  -25.4050 C.3   356  ILE356      0.0019
    226  CG2       14.2270    0.2730  -23.9550 C.3   356  ILE356      0.0019
    227  CD1       13.1190    2.7010  -25.5740 C.3   356  ILE356      0.0001
@<TRIPOS>BOND
     1    12    11    2
     2    11    10    1
     3    13    10    1
     4    13    14    1
     5    10     9    1
     6    15    14   ar
     7    15    17   ar
     8    14    16   ar
     9     4     3    2
    10    24    23    2
    11    17    19   ar
    12    29    27   am
    13    16    18   ar
    14     3     2    1
    15    23    22    1
    16    19    18   ar
    17    19    20    1
    18    27    26    1
    19    27    28    2
    20    41    40    2
    21    26    25    1
    22     2     1    1
    23     2     5    1
    24     7     5    1
    25     5     6    1
    26    42    43    1
    27    42    39    1
    28    21    22    1
    29    86    85    1
    30    22    25    1
    31    40    39    1
    32    45    43   ar
    33    45    47   ar
    34    43    44   ar
    35    39    38    1
    36    47    48   ar
    37    87    85    1
    38    85    82    1
    39    70    71    1
    40     6     8    1
    41    44    46   ar
    42    48    46   ar
    43    33    32    2
    44    84    83    2
    45    71    72    1
    46    82    83    1
    47    82    81    1
    48    97    96    2
    49    81    76   am
    50    96    95    1
    51    32    31    1
    52    72    74   am
    53    72    73    2
    54    74    75    1
    55    80    78    1
    56    61    60    2
    57    98    95    1
    58    98    99    1
    59   100    99    1
    60   218   217    1
    61    95    94    1
    62    76    75    1
    63    76    77    2
    64    30    31    1
    65    31    34    1
    66    75    78    1
    67    62    63    1
    68    62    59    1
    69    34    35    1
    70   130   129    1
    71    78    79    1
    72    60    59    1
    73    99   101    1
    74    94    90   am
    75   219   217    1
    76    88    89    1
    77    63    64   ar
    78    63    65   ar
    79    64    66   ar
    80   217   214    1
    81    59    58    1
    82   131   129    1
    83   129   128    1
    84    90    91    2
    85    90    89    1
    86    36    35    2
    87    35    37   am
    88    65    67   ar
    89    66    68   ar
    90    89    92    1
    91    52    51    2
    92   214   213    1
    93   214   215    1
    94    67    68   ar
    95    68    69    1
    96   190   188    1
    97   110   108   am
    98   128   125    1
    99   189   188    1
   100   189   191    1
   101   107   108    1
   102   107   106    1
   103    51    50    1
   104    93    92    1
   105   215   216    2
   106   108   109    2
   107   187   186    2
   108   188   185    1
   109   124   125    1
   110   125   126    1
   111   159   158    2
   112   106   103    1
   113   186   185    1
   114   102   103    1
   115   227   225    1
   116   122   121    2
   117    57    55   ar
   118    53    50    1
   119    53    54    1
   120    50    49    1
   121   225   224    1
   122   185   184    1
   123   138   137    1
   124   103   104    1
   125   158   157    1
   126    55    54    1
   127    55    56   ar
   128   121   120    1
   129   126   127    2
   130   184   181   am
   131   160   157    1
   132   160   161    1
   133   163   161   ar
   134   163   165   ar
   135   156   157    1
   136   224   226    1
   137   224   221    1
   138   105   104    2
   139   220   221    1
   140   104   111   am
   141   221   222    1
   142   114   113    2
   143   161   162   ar
   144   137   136    1
   145   137   139    1
   146   165   166   ar
   147   119   120    1
   148   211   210    2
   149   120   123    1
   150   210   209    1
   151   181   180    1
   152   181   182    2
   153   212   209    1
   154   136   133    1
   155   111   112    1
   156   113   112    1
   157   180   183    1
   158   180   179    1
   159   177   176    2
   160   222   223    2
   161   162   164   ar
   162   209   208    1
   163   166   164   ar
   164   112   115    1
   165   133   132    1
   166   133   134    1
   167   176   179   am
   168   176   175    1
   169   208   203   am
   170   134   135    2
   171   178   175    1
   172   115   116    1
   173   175   174    1
   174   153   152    1
   175   153   154    1
   176   207   205    1
   177   155   154    1
   178   203   202    1
   179   203   204    2
   180   174   169   am
   181   152   149    1
   182   116   117    1
   183   116   118    1
   184   202   205    1
   185   202   201    1
   186   205   206    1
   187   195   194    2
   188   172   171    1
   189   169   168    1
   190   169   170    2
   191   201   194   am
   192   149   148    1
   193   149   150    1
   194   194   193    1
   195   168   171    1
   196   168   167    1
   197   148   142   am
   198   150   151    2
   199   171   173    1
   200   196   193    1
   201   196   197    1
   202   140   141    1
   203   193   192    1
   204   142   141    1
   205   142   143    2
   206   147   145   am
   207   144   141    1
   208   144   145    1
   209   197   198    1
   210   145   146    2
   211   198   199    1
   212   199   200    1
