@<TRIPOS>MOLECULE
tmp/5o7aF00.pdb
 158 149 0 0 0
SMALL
GASTEIGER

@<TRIPOS>ATOM
      1  N         14.1150   57.1360   93.8760 N.3    74  LYS74      -0.1245
      2  CA        13.9680   57.3270   95.3180 C.3    74  LYS74       0.1561
      3  C         14.9120   58.4150   95.8280 C.2    74  LYS74       0.2260
      4  O         14.5140   59.2930   96.6020 O.2    74  LYS74      -0.2867
      5  CB        14.2090   55.9990   96.0450 C.3    74  LYS74       0.0271
      6  CG        13.3940   54.8420   95.4750 C.3    74  LYS74       0.0035
      7  CD        13.5030   53.5710   96.3070 C.3    74  LYS74       0.0206
      8  CE        13.8530   52.3600   95.4310 C.3    74  LYS74       0.1093
      9  NZ        12.8420   52.1000   94.3540 N.3    74  LYS74      -0.1314
     10  N          7.5690   60.8480  104.6510 N.3    92  PRO92      -0.2116
     11  CA         8.3550   60.5240  105.8460 C.3    92  PRO92       0.1372
     12  C          9.7350   61.1520  105.7750 C.2    92  PRO92       0.2244
     13  O         10.3130   61.3120  104.6970 O.2    92  PRO92      -0.2868
     14  CB         8.4300   58.9900  105.8210 C.3    92  PRO92       0.0268
     15  CG         7.2100   58.5670  105.0920 C.3    92  PRO92       0.0207
     16  CD         7.0310   59.6340  104.0100 C.3    92  PRO92       0.0892
     17  N         14.6680   53.0670  107.9170 N.3    98  ILE98      -0.1245
     18  CA        14.7940   52.2020  106.7450 C.3    98  ILE98       0.1561
     19  C         15.6080   52.8670  105.6270 C.2    98  ILE98       0.2260
     20  O         16.4050   52.2180  104.9360 O.2    98  ILE98      -0.2867
     21  CB        13.4230   51.8110  106.2220 C.3    98  ILE98       0.0252
     22  CG1       13.5700   50.8630  105.0220 C.3    98  ILE98       0.0019
     23  CG2       12.6440   53.0710  105.8620 C.3    98  ILE98       0.0019
     24  CD1       12.2300   50.3630  104.4760 C.3    98  ILE98       0.0001
     25  N         11.3180   55.2290  108.6490 N.3    99  TYR99      -0.1227
     26  CA        10.4740   54.0460  108.8190 C.3    99  TYR99       0.1736
     27  C          9.3230   54.2990  109.7780 C.2    99  TYR99       0.2595
     28  O          9.5270   54.7760  110.8940 O.2    99  TYR99      -0.2718
     29  CB        11.2770   52.8450  109.3250 C.3    99  TYR99       0.0548
     30  CG        10.4660   51.5580  109.3010 C.ar   99  TYR99      -0.0200
     31  CD1       10.3650   50.8020  108.1360 C.ar   99  TYR99      -0.0009
     32  CD2        9.7810   51.1160  110.4250 C.ar   99  TYR99      -0.0009
     33  CE1        9.6140   49.6360  108.0990 C.ar   99  TYR99       0.0417
     34  CE2        9.0340   49.9470  110.3940 C.ar   99  TYR99       0.0417
     35  CZ         8.9570   49.2110  109.2310 C.ar   99  TYR99       0.1957
     36  OH         8.2160   48.0530  109.1950 O.3    99  TYR99      -0.2866
     37  N          8.1170   53.9350  109.3450 N.am  100  LEU100     -0.1980
     38  CA         6.8850   54.3120  110.0390 C.3   100  LEU100      0.1596
     39  C          6.5100   53.2130  111.0260 C.2   100  LEU100      0.2287
     40  O          6.1920   52.0840  110.6290 O.2   100  LEU100     -0.2864
     41  CB         5.7660   54.5860  109.0350 C.3   100  LEU100      0.0297
     42  CG         6.1560   55.7340  108.0950 C.3   100  LEU100      0.0022
     43  CD1        5.1690   55.9080  106.9310 C.3   100  LEU100      0.0001
     44  CD2        6.3390   57.0420  108.8680 C.3   100  LEU100      0.0001
     45  N         -0.3760   44.7830  107.9710 N.3   111  LYS111     -0.1231
     46  CA         0.3650   45.8420  107.2880 C.3   111  LYS111      0.1693
     47  C          0.1730   45.7710  105.7750 C.2   111  LYS111      0.2592
     48  O          0.1630   44.6850  105.2020 O.2   111  LYS111     -0.2718
     49  CB         1.8590   45.7690  107.6200 C.3   111  LYS111      0.0285
     50  CG         2.6800   46.8080  106.8670 C.3   111  LYS111      0.0035
     51  CD         4.1550   46.6450  107.0970 C.3   111  LYS111      0.0206
     52  CE         4.9540   47.7620  106.4410 C.3   111  LYS111      0.1093
     53  NZ         6.4120   47.5780  106.7530 N.3   111  LYS111     -0.1314
     54  N          0.0510   46.9240  105.1190 N.am  112  PHE112     -0.1962
     55  CA        -0.2010   46.9390  103.6850 C.3   112  PHE112      0.1771
     56  C          0.3160   48.2390  103.0770 C.2   112  PHE112      0.2619
     57  O          0.8570   49.1070  103.7690 O.2   112  PHE112     -0.2715
     58  CB        -1.6910   46.7820  103.4060 C.3   112  PHE112      0.0574
     59  CG        -2.4960   47.9090  103.9400 C.ar  112  PHE112     -0.0200
     60  CD1       -2.9350   47.8950  105.2580 C.ar  112  PHE112     -0.0042
     61  CD2       -2.7810   49.0120  103.1460 C.ar  112  PHE112     -0.0042
     62  CE1       -3.6710   48.9500  105.7720 C.ar  112  PHE112     -0.0003
     63  CE2       -3.5130   50.0690  103.6530 C.ar  112  PHE112     -0.0003
     64  CZ        -3.9610   50.0350  104.9690 C.ar  112  PHE112     -0.0000
     65  N          0.1550   48.3540  101.7560 N.am  113  ASP113     -0.1971
     66  CA         0.4120   49.5890  101.0240 C.3   113  ASP113      0.1709
     67  C         -0.6280   49.7290   99.9210 C.2   113  ASP113      0.2293
     68  O         -1.2600   48.7540   99.5060 O.2   113  ASP113     -0.2864
     69  CB         1.8430   49.6490  100.4450 C.3   113  ASP113      0.1436
     70  CG         2.0550   48.7160   99.2520 C.2   113  ASP113      0.3671
     71  OD1        1.2570   48.7610   98.2910 O.co2 113  ASP113     -0.2456
     72  OD2        3.0450   47.9450   99.2650 O.co2 113  ASP113     -0.2456
     73  N         -1.3910   51.1320   96.0640 N.3   115  ARG115     -0.1245
     74  CA        -0.9110   51.5760   94.7630 C.3   115  ARG115      0.1563
     75  C         -2.0410   52.2940   94.0380 C.2   115  ARG115      0.2260
     76  O         -3.1400   51.7500   93.8990 O.2   115  ARG115     -0.2867
     77  CB        -0.3960   50.3990   93.9270 C.3   115  ARG115      0.0307
     78  CG        -0.3110   50.6750   92.4180 C.3   115  ARG115      0.0489
     79  CD         0.8560   51.5760   92.0550 C.3   115  ARG115      0.2205
     80  NE         2.1190   50.9210   92.3720 N.pl3 115  ARG115     -0.0865
     81  CZ         2.8410   50.2180   91.5000 C.cat 115  ARG115      0.5346
     82  NH1        2.4270   50.0950   90.2410 N.pl3 115  ARG115      0.1354
     83  NH2        3.9840   49.6420   91.8840 N.pl3 115  ARG115      0.1354
     84  N         -1.7040   46.0120   98.3650 N.3   135  ARG135     -0.1245
     85  CA        -0.8900   44.8090   98.3550 C.3   135  ARG135      0.1563
     86  C         -0.6430   44.2870   99.7630 C.2   135  ARG135      0.2260
     87  O         -0.1110   45.0010  100.6080 O.2   135  ARG135     -0.2867
     88  CB         0.4330   45.0750   97.6460 C.3   135  ARG135      0.0307
     89  CG         0.2520   45.4190   96.1870 C.3   135  ARG135      0.0489
     90  CD         0.6730   46.8300   95.9370 C.3   135  ARG135      0.2205
     91  NE         1.9840   46.8620   95.3160 N.pl3 135  ARG135     -0.0865
     92  CZ         2.7330   47.9510   95.2170 C.cat 135  ARG135      0.5346
     93  NH1        3.9170   47.8890   94.6170 N.pl3 135  ARG135      0.1354
     94  NH2        2.3030   49.0960   95.7240 N.pl3 135  ARG135      0.1354
     95  N          7.3510   44.4750  105.0400 N.3   136  LEU136     -0.1231
     96  CA         7.4550   44.4300  103.5760 C.3   136  LEU136      0.1693
     97  C          6.2640   43.7100  102.9400 C.2   136  LEU136      0.2593
     98  O          6.0260   42.5220  103.1960 O.2   136  LEU136     -0.2718
     99  CB         8.7550   43.7560  103.1390 C.3   136  LEU136      0.0284
    100  CG        10.0080   44.6250  103.1750 C.3   136  LEU136      0.0019
    101  CD1       11.0960   44.0000  102.3210 C.3   136  LEU136      0.0001
    102  CD2        9.6920   46.0350  102.6990 C.3   136  LEU136      0.0001
    103  N          5.5250   44.4440  102.1070 N.am  137  THR137     -0.1939
    104  CA         4.2940   43.9730  101.4690 C.3   137  THR137      0.2028
    105  C          4.5330   44.0120   99.9650 C.2   137  THR137      0.2642
    106  O          4.2900   45.0270   99.3110 O.2   137  THR137     -0.2714
    107  CB         3.0800   44.8360  101.8750 C.3   137  THR137      0.1808
    108  OG1        3.0580   46.0380  101.0960 O.3   137  THR137     -0.2208
    109  CG2        3.1500   45.2030  103.3580 C.3   137  THR137      0.0379
    110  N          5.0180   42.9030   99.4190 N.am  138  ASN138     -0.1971
    111  CA         5.4200   42.8610   98.0230 C.3   138  ASN138      0.1688
    112  C          5.1550   41.4740   97.4680 C.2   138  ASN138      0.2292
    113  O          5.4150   40.4720   98.1410 O.2   138  ASN138     -0.2864
    114  CB         6.9030   43.2060   97.8580 C.3   138  ASN138      0.1181
    115  CG         7.2200   44.6220   98.2720 C.2   138  ASN138      0.2629
    116  OD1        6.6750   45.5780   97.7210 O.2   138  ASN138     -0.2716
    117  ND2        8.0970   44.7670   99.2590 N.am  138  ASN138     -0.0877
    118  N          2.9080   54.8550   95.3640 N.3   204  ASP204     -0.1239
    119  CA         2.8720   53.9170   96.4890 C.3   204  ASP204      0.1674
    120  C          2.6990   54.6930   97.7890 C.2   204  ASP204      0.2266
    121  O          3.5360   55.5350   98.1190 O.2   204  ASP204     -0.2867
    122  CB         4.1560   53.0860   96.5600 C.3   204  ASP204      0.1410
    123  CG         4.2520   52.0310   95.4660 C.2   204  ASP204      0.3668
    124  OD1        3.2840   51.8870   94.6890 O.co2 204  ASP204     -0.2456
    125  OD2        5.2930   51.3250   95.3980 O.co2 204  ASP204     -0.2456
    126  N          1.4250   54.7510  102.1610 N.3   206  MET206     -0.1245
    127  CA         1.2610   54.0700  103.4410 C.3   206  MET206      0.1570
    128  C          0.1670   54.7590  104.2420 C.2   206  MET206      0.2261
    129  O         -0.0200   55.9750  104.1410 O.2   206  MET206     -0.2867
    130  CB         2.5530   54.0900  104.2630 C.3   206  MET206      0.0387
    131  CG         3.5170   52.9610  103.9910 C.3   206  MET206      0.0595
    132  SD         3.2850   51.6010  105.1430 S.3   206  MET206     -0.1393
    133  CE         3.5570   52.4150  106.7190 C.3   206  MET206      0.0692
    134  N          5.2810   56.8000   99.8750 N.3   216  ILE216     -0.1231
    135  CA         6.4430   55.9210   99.9020 C.3   216  ILE216      0.1692
    136  C          7.3600   56.2400   98.7260 C.2   216  ILE216      0.2591
    137  O          8.5160   56.6250   98.9260 O.2   216  ILE216     -0.2718
    138  CB         6.0240   54.4390   99.8980 C.3   216  ILE216      0.0266
    139  CG1        5.4040   54.0840  101.2460 C.3   216  ILE216      0.0019
    140  CG2        7.2160   53.5200   99.6190 C.3   216  ILE216      0.0020
    141  CD1        6.2400   54.5440  102.4300 C.3   216  ILE216      0.0001
    142  N          6.8600   56.0650   97.5010 N.am  217  GLU217     -0.1979
    143  CA         7.6310   56.3560   96.2930 C.3   217  GLU217      0.1602
    144  C          6.6960   56.4460   95.0900 C.2   217  GLU217      0.2287
    145  O          5.5030   56.1460   95.1760 O.2   217  GLU217     -0.2864
    146  CB         8.7250   55.3010   96.0470 C.3   217  GLU217      0.0415
    147  CG         8.2190   53.9530   95.5570 C.3   217  GLU217      0.1163
    148  CD         9.2780   53.1670   94.7910 C.2   217  GLU217      0.3649
    149  OE1       10.4730   53.5410   94.8380 O.co2 217  GLU217     -0.2457
    150  OE2        8.9120   52.1720   94.1320 O.co2 217  GLU217     -0.2457
    151  N          6.4790   55.2700   90.9960 N.3   219  ASN219     -0.1240
    152  CA         7.0080   54.3880   89.9590 C.3   219  ASN219      0.1653
    153  C          6.7280   54.9560   88.5760 C.2   219  ASN219      0.2266
    154  O          5.5750   55.2740   88.2570 O.2   219  ASN219     -0.2867
    155  CB         6.3930   52.9980   90.0770 C.3   219  ASN219      0.1155
    156  CG         6.8260   52.2790   91.3390 C.2   219  ASN219      0.2627
    157  OD1        6.0450   52.1240   92.2880 O.2   219  ASN219     -0.2716
    158  ND2        8.0820   51.8280   91.3580 N.am  219  ASN219     -0.0877
@<TRIPOS>BOND
     1   154   153    2
     2   153   152    1
     3   152   155    1
     4   152   151    1
     5   155   156    1
     6    82    81    1
     7   156   158   am
     8   156   157    2
     9    81    83    1
    10    81    80    2
    11    79    80    1
    12    79    78    1
    13    78    77    1
    14     1     2    1
    15    76    75    2
    16    77    74    1
    17    75    74    1
    18   150   148   ar
    19     9     8    1
    20    93    92    1
    21   124   123   ar
    22    74    73    1
    23   148   149   ar
    24   148   147    1
    25   144   145    2
    26   144   143    1
    27    92    91    2
    28    92    94    1
    29    91    90    1
    30     2     3    1
    31     2     5    1
    32   118   119    1
    33   125   123   ar
    34     8     7    1
    35   123   122    1
    36     6     5    1
    37     6     7    1
    38   147   146    1
    39     3     4    2
    40    90    89    1
    41   146   143    1
    42    89    88    1
    43   143   142    1
    44   119   122    1
    45   119   120    1
    46   112   111    1
    47   112   113    2
    48   142   136   am
    49    88    85    1
    50   116   115    2
    51   120   121    2
    52   114   111    1
    53   114   115    1
    54   111   110    1
    55   115   117   am
    56    71    70   ar
    57    85    84    1
    58    85    86    1
    59   136   137    2
    60   136   135    1
    61    70    72   ar
    62    70    69    1
    63   106   105    2
    64   110   105   am
    65    68    67    2
    66   140   138    1
    67    86    87    2
    68   134   135    1
    69   138   135    1
    70   138   139    1
    71    67    66    1
    72   105   104    1
    73    69    66    1
    74    66    65    1
    75   108   107    1
    76   139   141    1
    77   104   107    1
    78   104   103    1
    79    65    56   am
    80   107   109    1
    81   103    97   am
    82   126   127    1
    83   101   100    1
    84   102   100    1
    85    97    98    2
    86    97    96    1
    87    56    55    1
    88    56    57    2
    89    99   100    1
    90    99    96    1
    91    61    63   ar
    92    61    59   ar
    93    58    55    1
    94    58    59    1
    95   127   128    1
    96   127   130    1
    97    96    95    1
    98    63    64   ar
    99    55    54    1
   100    59    60   ar
   101   131   130    1
   102   131   132    1
   103    16    10    1
   104    16    15    1
   105   129   128    2
   106    24    22    1
   107    10    11    1
   108    13    12    2
   109    20    19    2
   110    64    62   ar
   111    22    21    1
   112    15    14    1
   113    54    47   am
   114   132   133    1
   115    48    47    2
   116    60    62   ar
   117    19    18    1
   118    47    46    1
   119    12    11    1
   120    14    11    1
   121    23    21    1
   122    21    18    1
   123    52    53    1
   124    52    51    1
   125    18    17    1
   126    50    51    1
   127    50    49    1
   128    43    42    1
   129    46    49    1
   130    46    45    1
   131    42    44    1
   132    42    41    1
   133    33    31   ar
   134    33    35   ar
   135    31    30   ar
   136    25    26    1
   137    26    29    1
   138    26    27    1
   139    41    38    1
   140    36    35    1
   141    35    34   ar
   142    30    29    1
   143    30    32   ar
   144    37    27   am
   145    37    38    1
   146    27    28    2
   147    38    39    1
   148    34    32   ar
   149    40    39    2
