@<TRIPOS>MOLECULE
tmp/5o7cA02.pdb
 142 138 0 0 0
SMALL
GASTEIGER

@<TRIPOS>ATOM
      1  N        -37.3840   12.0270  -19.2870 N.3    90  HIS90      -0.1241
      2  CA       -38.6060   12.6530  -18.7770 C.3    90  HIS90       0.1621
      3  C        -39.0330   13.7540  -19.7330 C.2    90  HIS90       0.2264
      4  O        -38.2870   14.7310  -19.9010 O.2    90  HIS90      -0.2867
      5  CB       -38.3620   13.2370  -17.3930 C.3    90  HIS90       0.0745
      6  CG       -39.6110   13.5860  -16.6460 C.ar   90  HIS90       0.0817
      7  ND1      -40.4950   14.5570  -17.0740 N.ar   90  HIS90      -0.2268
      8  CD2      -40.0800   13.1440  -15.4570 C.ar   90  HIS90       0.1154
      9  CE1      -41.4800   14.6620  -16.1970 C.ar   90  HIS90       0.1986
     10  NE2      -41.2590   13.8000  -15.2170 N.ar   90  HIS90      -0.2212
     11  N        -43.2940   18.7410  -18.8420 N.3    93  PRO93      -0.2116
     12  CA       -44.6240   18.5950  -18.2330 C.3    93  PRO93       0.1372
     13  C        -45.7300   18.6220  -19.2830 C.2    93  PRO93       0.2244
     14  O        -45.7410   19.4730  -20.1750 O.2    93  PRO93      -0.2868
     15  CB       -44.7060   19.7970  -17.2880 C.3    93  PRO93       0.0268
     16  CG       -43.2580   20.1460  -16.9910 C.3    93  PRO93       0.0207
     17  CD       -42.5030   19.8260  -18.2300 C.3    93  PRO93       0.0892
     18  N        -37.7250    5.2790  -10.7600 N.3   138  SER138     -0.1202
     19  CA       -37.9570    6.6030  -10.2450 C.3   138  SER138      0.2020
     20  C        -38.9100    6.5030   -9.0760 C.2   138  SER138      0.2619
     21  O        -39.8580    5.7030   -9.0980 O.2   138  SER138     -0.2717
     22  CB       -38.5710    7.5110  -11.3080 C.3   138  SER138      0.2103
     23  OG       -38.8410    8.7660  -10.7030 O.3   138  SER138     -0.2182
     24  N        -38.7100    7.3900   -8.1030 N.am  139  LEU139     -0.1965
     25  CA       -39.6830    7.5370   -7.0190 C.3   139  LEU139      0.1728
     26  C        -41.0850    7.7860   -7.5380 C.2   139  LEU139      0.2616
     27  O        -42.0550    7.3000   -6.9410 O.2   139  LEU139     -0.2715
     28  CB       -39.2870    8.6560   -6.0790 C.3   139  LEU139      0.0311
     29  CG       -40.2710    9.0510   -4.9590 C.3   139  LEU139      0.0022
     30  CD1      -40.5590    7.8880   -4.0360 C.3   139  LEU139      0.0001
     31  CD2      -39.7260   10.2220   -4.1690 C.3   139  LEU139      0.0001
     32  N        -41.2390    8.5120   -8.6500 N.am  140  VAL140     -0.1977
     33  CA       -42.6000    8.8590   -9.0450 C.3   140  VAL140      0.1596
     34  C        -43.3510    7.6760   -9.6150 C.2   140  VAL140      0.2287
     35  O        -44.5760    7.7580   -9.7410 O.2   140  VAL140     -0.2864
     36  CB       -42.6240   10.0430  -10.0300 C.3   140  VAL140      0.0276
     37  CG1      -41.9120   11.2520   -9.3930 C.3   140  VAL140      0.0022
     38  CG2      -42.0090    9.6920  -11.3780 C.3   140  VAL140      0.0022
     39  N        -46.6170   11.5900  -10.0360 N.3   145  GLN145     -0.1231
     40  CA       -46.1350   12.9410  -10.2940 C.3   145  GLN145      0.1698
     41  C        -47.1870   13.6480  -11.1210 C.2   145  GLN145      0.2592
     42  O        -47.8950   13.0220  -11.9030 O.2   145  GLN145     -0.2718
     43  CB       -44.7990   12.9330  -11.0480 C.3   145  GLN145      0.0381
     44  CG       -44.0890   14.2780  -11.1990 C.3   145  GLN145      0.0905
     45  CD       -42.8330   14.1800  -12.0300 C.2   145  GLN145      0.2608
     46  OE1      -42.7390   13.3910  -12.9970 O.2   145  GLN145     -0.2717
     47  NE2      -41.8350   14.9690  -11.6500 N.am  145  GLN145     -0.0878
     48  N        -47.2700   14.9600  -10.9580 N.am  146  ALA146     -0.1966
     49  CA       -48.1860   15.7400  -11.7640 C.3   146  ALA146      0.1728
     50  C        -47.6100   15.9750  -13.1600 C.2   146  ALA146      0.2616
     51  O        -46.3900   16.0390  -13.3550 O.2   146  ALA146     -0.2715
     52  CB       -48.4780   17.0740  -11.0760 C.3   146  ALA146      0.0334
     53  N        -48.5080   16.0680  -14.1360 N.am  147  GLN147     -0.1977
     54  CA       -48.1750   16.4020  -15.5330 C.3   147  GLN147      0.1601
     55  C        -47.1000   15.4780  -16.1030 C.2   147  GLN147      0.2287
     56  O        -46.1750   15.9050  -16.7910 O.2   147  GLN147     -0.2864
     57  CB       -47.7780   17.8840  -15.6530 C.3   147  GLN147      0.0394
     58  CG       -48.9080   18.7750  -15.1570 C.3   147  GLN147      0.0908
     59  CD       -48.7750   20.2400  -15.4730 C.2   147  GLN147      0.2608
     60  OE1      -47.6870   20.7570  -15.6910 O.2   147  GLN147     -0.2717
     61  NE2      -49.9050   20.9290  -15.4680 N.am  147  GLN147     -0.0878
     62  N        -44.6300    9.1960  -18.3450 N.3   151  TYR151     -0.1241
     63  CA       -43.3850    8.9280  -17.6400 C.3   151  TYR151      0.1605
     64  C        -43.6310    8.0770  -16.4060 C.2   151  TYR151      0.2264
     65  O        -42.9390    7.0750  -16.1740 O.2   151  TYR151     -0.2867
     66  CB       -42.7200   10.2410  -17.2330 C.3   151  TYR151      0.0534
     67  CG       -41.4420   10.0350  -16.4580 C.ar  151  TYR151     -0.0201
     68  CD1      -40.2670    9.7720  -17.1230 C.ar  151  TYR151     -0.0009
     69  CD2      -41.4110   10.1350  -15.0640 C.ar  151  TYR151     -0.0009
     70  CE1      -39.0930    9.5980  -16.4270 C.ar  151  TYR151      0.0417
     71  CE2      -40.2390    9.9470  -14.3720 C.ar  151  TYR151      0.0417
     72  CZ       -39.0900    9.6960  -15.0640 C.ar  151  TYR151      0.1957
     73  OH       -37.9080    9.5350  -14.3830 O.3   151  TYR151     -0.2866
     74  N        -34.4640    6.9220   -7.8420 N.3   181  PRO181     -0.2102
     75  CA       -34.0330    8.2480   -7.4160 C.3   181  PRO181      0.1504
     76  C        -35.2310    9.1770   -7.3450 C.2   181  PRO181      0.2576
     77  O        -36.2490    8.9690   -8.0170 O.2   181  PRO181     -0.2718
     78  CB       -33.0480    8.6760   -8.5180 C.3   181  PRO181      0.0282
     79  CG       -32.8430    7.4430   -9.3880 C.3   181  PRO181      0.0208
     80  CD       -34.1040    6.6610   -9.2350 C.3   181  PRO181      0.0893
     81  N        -35.1060   10.1740   -6.4740 N.am  182  GLY182     -0.1943
     82  CA       -35.9550   11.3530   -6.4830 C.3   182  GLY182      0.2014
     83  C        -35.3140   12.4540   -7.3020 C.2   182  GLY182      0.2638
     84  O        -34.7340   12.1830   -8.3560 O.2   182  GLY182     -0.2714
     85  N        -35.4300   13.6930   -6.8580 N.am  183  ASN183     -0.1972
     86  CA       -34.8480   14.8170   -7.5820 C.3   183  ASN183      0.1688
     87  C        -33.3250   14.7420   -7.5330 C.2   183  ASN183      0.2292
     88  O        -32.7200   14.9750   -6.4790 O.2   183  ASN183     -0.2864
     89  CB       -35.3470   16.1310   -6.9820 C.3   183  ASN183      0.1181
     90  CG       -36.7920   16.4200   -7.3410 C.2   183  ASN183      0.2629
     91  OD1      -37.1920   16.3370   -8.5070 O.2   183  ASN183     -0.2716
     92  ND2      -37.5990   16.7080   -6.3330 N.am  183  ASN183     -0.0877
     93  N        -30.6770   16.7400  -17.4530 N.3   188  LEU188     -0.1231
     94  CA       -32.1110   16.6440  -17.6760 C.3   188  LEU188      0.1693
     95  C        -32.8730   17.5800  -16.7520 C.2   188  LEU188      0.2592
     96  O        -33.7640   18.3190  -17.1960 O.2   188  LEU188     -0.2718
     97  CB       -32.5580   15.1960  -17.4750 C.3   188  LEU188      0.0284
     98  CG       -34.0630   14.9420  -17.5980 C.3   188  LEU188      0.0019
     99  CD1      -34.6050   15.3950  -18.9300 C.3   188  LEU188      0.0001
    100  CD2      -34.3460   13.4540  -17.4100 C.3   188  LEU188      0.0001
    101  N        -32.5500   17.5580  -15.4530 N.am  189  TRP189     -0.1976
    102  CA       -33.2430   18.4560  -14.5310 C.3   189  TRP189      0.1640
    103  C        -33.0450   19.9030  -14.9500 C.2   189  TRP189      0.2290
    104  O        -34.0000   20.6850  -14.9860 O.2   189  TRP189     -0.2864
    105  CB       -32.7590   18.2460  -13.0850 C.3   189  TRP189      0.0576
    106  CG       -33.8740   18.2210  -12.0450 C.ar  189  TRP189      0.0006
    107  CD1      -34.2990   17.1330  -11.3430 C.ar  189  TRP189      0.0946
    108  CD2      -34.6990   19.3220  -11.6070 C.ar  189  TRP189      0.0152
    109  NE1      -35.3320   17.4760  -10.5100 N.ar  189  TRP189     -0.2442
    110  CE2      -35.5960   18.8120  -10.6500 C.ar  189  TRP189      0.0810
    111  CE3      -34.7650   20.6820  -11.9300 C.ar  189  TRP189      0.0012
    112  CZ2      -36.5500   19.6010  -10.0190 C.ar  189  TRP189      0.0191
    113  CZ3      -35.7190   21.4740  -11.2900 C.ar  189  TRP189      0.0001
    114  CH2      -36.5940   20.9290  -10.3470 C.ar  189  TRP189      0.0015
    115  N        -35.1550   20.7190  -18.1490 N.3   192  LEU192     -0.1231
    116  CA       -36.5830   20.8490  -17.8780 C.3   192  LEU192      0.1693
    117  C        -36.8970   22.1380  -17.1400 C.2   192  LEU192      0.2591
    118  O        -37.8840   22.8170  -17.4590 O.2   192  LEU192     -0.2718
    119  CB       -37.0770   19.6490  -17.0680 C.3   192  LEU192      0.0284
    120  CG       -37.2040   18.3300  -17.8310 C.3   192  LEU192      0.0019
    121  CD1      -37.6080   17.2140  -16.8900 C.3   192  LEU192      0.0001
    122  CD2      -38.1900   18.4290  -18.9880 C.3   192  LEU192      0.0001
    123  N        -36.0880   22.4860  -16.1360 N.am  193  ALA193     -0.1980
    124  CA       -36.3150   23.7360  -15.4170 C.3   193  ALA193      0.1597
    125  C        -36.2420   24.9320  -16.3500 C.2   193  ALA193      0.2287
    126  O        -37.0040   25.8900  -16.1880 O.2   193  ALA193     -0.2864
    127  CB       -35.3030   23.8960  -14.2800 C.3   193  ALA193      0.0319
    128  N        -39.4390   26.2640  -17.9260 N.3   196  MET196     -0.1245
    129  CA       -40.5290   26.7460  -17.1010 C.3   196  MET196      0.1570
    130  C        -40.5440   28.2620  -17.0680 C.2   196  MET196      0.2261
    131  O        -39.5460   28.9140  -17.3760 O.2   196  MET196     -0.2867
    132  CB       -40.3950   26.2020  -15.6830 C.3   196  MET196      0.0387
    133  CG       -40.3180   24.6980  -15.6240 C.3   196  MET196      0.0595
    134  SD       -41.8560   23.8700  -16.0860 S.3   196  MET196     -0.1393
    135  CE       -42.8490   24.2230  -14.6360 C.3   196  MET196      0.0692
    136  N        -38.5580   27.0950  -10.0380 N.3   202  THR202     -0.1218
    137  CA       -38.7540   25.6600  -10.2340 C.3   202  THR202      0.1862
    138  C        -37.6420   24.8650   -9.5660 C.2   202  THR202      0.2287
    139  O        -37.9040   23.8510   -8.9080 O.2   202  THR202     -0.2866
    140  CB       -38.8450   25.3610  -11.7340 C.3   202  THR202      0.1770
    141  OG1      -40.0420   25.9610  -12.2560 O.3   202  THR202     -0.2211
    142  CG2      -38.8830   23.8740  -12.0160 C.3   202  THR202      0.0375
@<TRIPOS>BOND
     1    14    13    2
     2     4     3    2
     3     3     2    1
     4     1     2    1
     5    13    12    1
     6   122   120    1
     7    99    98    1
     8    11    12    1
     9    11    17    1
    10     2     5    1
    11    62    63    1
    12    12    15    1
    13    17    16    1
    14   115   116    1
    15   128   129    1
    16   116   117    1
    17   116   119    1
    18   120   119    1
    19   120   121    1
    20    94    97    1
    21    94    93    1
    22    94    95    1
    23    63    66    1
    24    63    64    1
    25    98    97    1
    26    98   100    1
    27   118   117    2
    28     5     6    1
    29   131   130    2
    30    15    16    1
    31    66    67    1
    32    96    95    2
    33   117   123   am
    34    68    67   ar
    35    68    70   ar
    36   129   130    1
    37   129   132    1
    38     7     6   ar
    39     7     9   ar
    40    56    55    2
    41    95   101   am
    42     6     8   ar
    43    67    69   ar
    44    70    72   ar
    45    64    65    2
    46   125   126    2
    47   125   124    1
    48     9    10   ar
    49   123   124    1
    50    55    54    1
    51   134   133    1
    52   134   135    1
    53    60    59    2
    54   132   133    1
    55    57    54    1
    56    57    58    1
    57    54    53    1
    58    59    61   am
    59    59    58    1
    60     8    10   ar
    61   101   102    1
    62   124   127    1
    63    69    71   ar
    64    72    73    1
    65    72    71   ar
    66   104   103    2
    67   103   102    1
    68   102   105    1
    69    53    50   am
    70    51    50    2
    71    50    49    1
    72   105   106    1
    73    46    45    2
    74   141   140    1
    75   106   108   ar
    76   106   107   ar
    77    45    47   am
    78    45    44    1
    79   142   140    1
    80   111   108   ar
    81   111   113   ar
    82    42    41    2
    83    49    52    1
    84    49    48    1
    85   140   137    1
    86   108   110   ar
    87    38    36    1
    88   107   109   ar
    89    22    23    1
    90    22    19    1
    91   113   114   ar
    92    44    43    1
    93    41    48   am
    94    41    40    1
    95    43    40    1
    96    18    19    1
    97   110   109   ar
    98   110   112   ar
    99   114   112   ar
   100    40    39    1
   101    19    20    1
   102   137   136    1
   103   137   138    1
   104    36    37    1
   105    36    33    1
   106    35    34    2
   107    34    33    1
   108   138   139    2
   109    79    80    1
   110    79    78    1
   111    80    74    1
   112    21    20    2
   113    20    24   am
   114    33    32    1
   115    32    26   am
   116    78    75    1
   117    91    90    2
   118    84    83    2
   119    24    25    1
   120    77    76    2
   121    74    75    1
   122    86    87    1
   123    86    89    1
   124    86    85    1
   125    26    25    1
   126    26    27    2
   127    87    88    2
   128    75    76    1
   129    76    81   am
   130    90    89    1
   131    90    92   am
   132    83    85   am
   133    83    82    1
   134    25    28    1
   135    82    81    1
   136    28    29    1
   137    29    31    1
   138    29    30    1
