@<TRIPOS>MOLECULE
tmp/5o7fB00.pdb
 153 144 0 0 0
SMALL
GASTEIGER

@<TRIPOS>ATOM
      1  N         23.9460   43.6590   42.9900 N.3    23  MET23      -0.1245
      2  CA        24.6520   44.0420   44.2110 C.3    23  MET23       0.1570
      3  C         23.8420   45.1020   44.9590 C.2    23  MET23       0.2261
      4  O         24.3100   46.2400   45.1390 O.2    23  MET23      -0.2867
      5  CB        26.0620   44.5400   43.9180 C.3    23  MET23       0.0387
      6  CG        26.9360   43.5350   43.1550 C.3    23  MET23       0.0595
      7  SD        28.6310   44.1470   42.8740 S.3    23  MET23      -0.1393
      8  CE        29.3260   44.0170   44.5160 C.3    23  MET23       0.0692
      9  N         21.9270   47.6340   47.4850 N.3    25  ASP25      -0.1239
     10  CA        22.2600   48.3370   48.7210 C.3    25  ASP25       0.1674
     11  C         20.9660   48.8030   49.3800 C.2    25  ASP25       0.2266
     12  O         19.8680   48.4520   48.9460 O.2    25  ASP25      -0.2867
     13  CB        23.2020   49.5160   48.4500 C.3    25  ASP25       0.1410
     14  CG        22.7270   50.3780   47.2840 C.2    25  ASP25       0.3668
     15  OD1       21.4910   50.5490   47.1230 O.co2  25  ASP25      -0.2456
     16  OD2       23.5850   50.8920   46.5260 O.co2  25  ASP25      -0.2456
     17  N         21.7970   53.0500   37.0890 N.3    84  SER84      -0.1202
     18  CA        22.2650   54.0790   36.1690 C.3    84  SER84       0.2020
     19  C         22.3870   53.6120   34.7230 C.2    84  SER84       0.2619
     20  O         22.5260   54.4570   33.8330 O.2    84  SER84      -0.2717
     21  CB        23.6230   54.6310   36.6390 C.3    84  SER84       0.2103
     22  OG        24.6160   53.6160   36.5980 O.3    84  SER84      -0.2182
     23  N         22.3390   52.3110   34.4550 N.am   85  SER85      -0.1951
     24  CA        22.4730   51.8130   33.0920 C.3    85  SER85       0.1924
     25  C         21.7970   50.4500   33.0040 C.2    85  SER85       0.2314
     26  O         21.5450   49.8130   34.0340 O.2    85  SER85      -0.2863
     27  CB        23.9540   51.7130   32.6790 C.3    85  SER85       0.2116
     28  OG        24.5680   50.6130   33.3240 O.3    85  SER85      -0.2180
     29  N         22.9640   47.5420   32.1490 N.3    87  ASP87      -0.1225
     30  CA        23.7540   46.4430   32.6970 C.3    87  ASP87       0.1805
     31  C         23.5590   46.3100   34.2010 C.2    87  ASP87       0.2597
     32  O         23.6870   45.2090   34.7470 O.2    87  ASP87      -0.2718
     33  CB        25.2390   46.6360   32.3810 C.3    87  ASP87       0.1424
     34  CG        25.7670   47.9690   32.8590 C.2    87  ASP87       0.3668
     35  OD1       25.6270   48.9630   32.1170 O.co2  87  ASP87      -0.2456
     36  OD2       26.3260   48.0300   33.9720 O.co2  87  ASP87      -0.2456
     37  N         23.2380   47.4120   34.8830 N.am   88  ARG88      -0.1979
     38  CA        23.0990   47.3700   36.3330 C.3    88  ARG88       0.1597
     39  C         21.8740   46.5930   36.7990 C.2    88  ARG88       0.2287
     40  O         21.7710   46.3180   37.9990 O.2    88  ARG88      -0.2864
     41  CB        23.0610   48.7930   36.9000 C.3    88  ARG88       0.0334
     42  CG        24.4090   49.5150   36.8260 C.3    88  ARG88       0.0492
     43  CD        25.3240   49.1030   37.9530 C.3    88  ARG88       0.2205
     44  NE        24.8850   49.7070   39.2170 N.pl3  88  ARG88      -0.0865
     45  CZ        25.2240   49.2450   40.4180 C.cat  88  ARG88       0.5346
     46  NH1       26.0100   48.1780   40.5180 N.pl3  88  ARG88       0.1354
     47  NH2       24.7930   49.8590   41.5150 N.pl3  88  ARG88       0.1354
     48  N         21.4060   59.1270   39.7950 N.3   107  HIS107     -0.1241
     49  CA        22.7900   59.0910   39.3100 C.3   107  HIS107      0.1621
     50  C         22.9590   60.0350   38.1290 C.2   107  HIS107      0.2264
     51  O         22.2000   59.9700   37.1640 O.2   107  HIS107     -0.2867
     52  CB        23.1830   57.6630   38.9230 C.3   107  HIS107      0.0745
     53  CG        23.1860   56.7350   40.0940 C.ar  107  HIS107      0.0817
     54  ND1       22.0630   56.0430   40.5000 N.ar  107  HIS107     -0.2268
     55  CD2       24.1530   56.4590   41.0070 C.ar  107  HIS107      0.1154
     56  CE1       22.3430   55.3620   41.6020 C.ar  107  HIS107      0.1986
     57  NE2       23.6030   55.6030   41.9360 N.ar  107  HIS107     -0.2212
     58  N         25.2060   60.0690   35.8640 N.3   109  THR109     -0.1218
     59  CA        25.6100   59.4280   34.6180 C.3   109  THR109      0.1862
     60  C         24.5750   58.4280   34.1120 C.2   109  THR109      0.2287
     61  O         24.9170   57.5680   33.2960 O.2   109  THR109     -0.2866
     62  CB        26.9630   58.7320   34.7710 C.3   109  THR109      0.1770
     63  OG1       26.8430   57.6430   35.6920 O.3   109  THR109     -0.2211
     64  CG2       28.0160   59.7150   35.2580 C.3   109  THR109      0.0375
     65  N         22.1060   55.8460   52.2020 N.3   156  ASN156     -0.1240
     66  CA        22.8350   56.5660   51.1610 C.3   156  ASN156      0.1653
     67  C         23.4800   57.8530   51.6550 C.2   156  ASN156      0.2266
     68  O         24.2930   58.4240   50.9280 O.2   156  ASN156     -0.2867
     69  CB        21.9320   56.8760   49.9710 C.3   156  ASN156      0.1155
     70  CG        22.3260   56.0990   48.7420 C.2   156  ASN156      0.2627
     71  OD1       22.9030   55.0210   48.8460 O.2   156  ASN156     -0.2716
     72  ND2       22.0170   56.6340   47.5670 N.am  156  ASN156     -0.0877
     73  N         35.6450   44.0100   42.5330 N.3   265  HIS265     -0.1241
     74  CA        34.8900   45.2190   42.7790 C.3   265  HIS265      0.1621
     75  C         35.8250   46.2450   43.3990 C.2   265  HIS265      0.2264
     76  O         36.5720   45.9250   44.3300 O.2   265  HIS265     -0.2867
     77  CB        33.6980   44.9510   43.6990 C.3   265  HIS265      0.0745
     78  CG        32.8440   46.1560   43.9290 C.ar  265  HIS265      0.0817
     79  ND1       32.1800   46.7990   42.9050 N.ar  265  HIS265     -0.2268
     80  CD2       32.5600   46.8480   45.0570 C.ar  265  HIS265      0.1154
     81  CE1       31.5230   47.8350   43.3940 C.ar  265  HIS265      0.1986
     82  NE2       31.7240   47.8800   44.6990 N.ar  265  HIS265     -0.2212
     83  N         35.8210   49.8180   45.2830 N.3   267  SER267     -0.1217
     84  CA        34.9600   50.7620   45.9790 C.3   267  SER267      0.1889
     85  C         35.7670   51.9900   46.3900 C.2   267  SER267      0.2288
     86  O         36.8930   51.8620   46.8830 O.2   267  SER267     -0.2866
     87  CB        34.3230   50.0640   47.1880 C.3   267  SER267      0.2089
     88  OG        33.3100   50.8350   47.7510 O.3   267  SER267     -0.2183
     89  N         35.6840   56.0930   48.1990 N.3   269  ARG269     -0.1245
     90  CA        35.0050   57.0590   49.0540 C.3   269  ARG269      0.1563
     91  C         35.9060   58.2610   49.2710 C.2   269  ARG269      0.2260
     92  O         37.1020   58.1050   49.5130 O.2   269  ARG269     -0.2867
     93  CB        34.6430   56.4730   50.4240 C.3   269  ARG269      0.0307
     94  CG        33.6540   55.3080   50.3870 C.3   269  ARG269      0.0489
     95  CD        32.2400   55.7610   50.0130 C.3   269  ARG269      0.2205
     96  NE        31.3060   54.6470   50.1730 N.pl3 269  ARG269     -0.0865
     97  CZ        31.1430   53.6590   49.2970 C.cat 269  ARG269      0.5346
     98  NH1       31.8110   53.6470   48.1480 N.pl3 269  ARG269      0.1354
     99  NH2       30.2770   52.6880   49.5590 N.pl3 269  ARG269      0.1354
    100  N         34.8690   52.7630   33.6560 N.3   284  GLY284     -0.1210
    101  CA        33.7560   51.9320   33.2530 C.3   284  GLY284      0.1956
    102  C         32.6910   51.7310   34.3080 C.2   284  GLY284      0.2612
    103  O         31.7790   50.9260   34.0910 O.2   284  GLY284     -0.2717
    104  N         32.7670   52.4420   35.4310 N.am  285  GLY285     -0.1942
    105  CA        31.7790   52.3400   36.4950 C.3   285  GLY285      0.2014
    106  C         30.9430   53.5950   36.6510 C.2   285  GLY285      0.2639
    107  O         30.5430   54.2060   35.6540 O.2   285  GLY285     -0.2714
    108  N         30.6640   53.9960   37.8820 N.am  286  GLY286     -0.1939
    109  CA        29.8500   55.1810   38.0920 C.3   286  GLY286      0.2014
    110  C         29.6720   55.4540   39.5640 C.2   286  GLY286      0.2639
    111  O         30.3860   54.9000   40.3980 O.2   286  GLY286     -0.2714
    112  N         28.6960   56.3010   39.8920 N.am  287  GLY287     -0.1939
    113  CA        28.5130   56.6490   41.2890 C.3   287  GLY287      0.2014
    114  C         28.2190   58.1160   41.5260 C.2   287  GLY287      0.2638
    115  O         27.4300   58.7270   40.7960 O.2   287  GLY287     -0.2714
    116  N         28.8720   58.6860   42.5320 N.am  288  HIS288     -0.1973
    117  CA        28.5590   59.9870   43.0970 C.3   288  HIS288      0.1656
    118  C         29.8540   60.7110   43.4190 C.2   288  HIS288      0.2291
    119  O         30.9170   60.0880   43.4900 O.2   288  HIS288     -0.2864
    120  CB        27.7080   59.8310   44.3640 C.3   288  HIS288      0.0771
    121  CG        26.6310   58.8120   44.2050 C.ar  288  HIS288      0.0820
    122  ND1       25.4190   59.1140   43.6270 N.ar  288  HIS288     -0.2267
    123  CD2       26.6110   57.4820   44.4560 C.ar  288  HIS288      0.1154
    124  CE1       24.6800   58.0200   43.5700 C.ar  288  HIS288      0.1986
    125  NE2       25.3820   57.0130   44.0530 N.ar  288  HIS288     -0.2212
    126  N         31.2340   58.9190   46.5310 N.3   291  ALA291     -0.1231
    127  CA        31.1330   57.4650   46.6590 C.3   291  ALA291      0.1694
    128  C         30.9060   56.9010   45.2680 C.2   291  ALA291      0.2592
    129  O         29.9520   57.3080   44.5850 O.2   291  ALA291     -0.2718
    130  CB        29.9810   57.0810   47.6060 C.3   291  ALA291      0.0304
    131  N         31.7680   55.9810   44.8410 N.am  292  ALA292     -0.1966
    132  CA        31.7090   55.4690   43.4760 C.3   292  ALA292      0.1728
    133  C         32.4270   54.1280   43.4040 C.2   292  ALA292      0.2617
    134  O         33.1650   53.7380   44.3120 O.2   292  ALA292     -0.2715
    135  CB        32.3140   56.4660   42.4890 C.3   292  ALA292      0.0334
    136  N         32.2320   53.4420   42.2840 N.am  293  GLY293     -0.1940
    137  CA        32.7870   52.1070   42.1800 C.3   293  GLY293      0.2014
    138  C         32.7870   51.6120   40.7520 C.2   293  GLY293      0.2639
    139  O         32.1740   52.1950   39.8530 O.2   293  GLY293     -0.2714
    140  N         33.5000   50.5080   40.5600 N.am  294  VAL294     -0.1963
    141  CA        33.5750   49.8480   39.2680 C.3   294  VAL294      0.1727
    142  C         33.8290   48.3720   39.5300 C.2   294  VAL294      0.2616
    143  O         34.4470   48.0050   40.5280 O.2   294  VAL294     -0.2715
    144  CB        34.6800   50.4810   38.3750 C.3   294  VAL294      0.0290
    145  CG1       36.0360   50.3720   39.0430 C.3   294  VAL294      0.0023
    146  CG2       34.7010   49.8290   37.0000 C.3   294  VAL294      0.0023
    147  N         33.3460   47.5200   38.6340 N.am  295  THR295     -0.1951
    148  CA        33.4880   46.0820   38.8000 C.3   295  THR295      0.1897
    149  C         34.1170   45.5000   37.5510 C.2   295  THR295      0.2313
    150  O         33.6800   45.8000   36.4350 O.2   295  THR295     -0.2863
    151  CB        32.1320   45.4150   39.0740 C.3   295  THR295      0.1794
    152  OG1       31.5910   45.9430   40.2800 O.3   295  THR295     -0.2208
    153  CG2       32.2880   43.9030   39.2020 C.3   295  THR295      0.0378
@<TRIPOS>BOND
     1    35    34   ar
     2    29    30    1
     3    33    30    1
     4    33    34    1
     5    27    24    1
     6    27    28    1
     7    30    31    1
     8    34    36   ar
     9    25    24    1
    10    25    26    2
    11    24    23    1
    12   101   100    1
    13   101   102    1
    14    61    60    2
    15    20    19    2
    16   103   102    2
    17    60    59    1
    18    31    32    2
    19    31    37   am
    20   102   104   am
    21    23    19   am
    22    59    62    1
    23    59    58    1
    24    19    18    1
    25    62    64    1
    26    62    63    1
    27    37    38    1
    28   104   105    1
    29   107   106    2
    30    18    21    1
    31    18    17    1
    32    38    39    1
    33    38    41    1
    34   150   149    2
    35   105   106    1
    36    22    21    1
    37   106   108   am
    38    39    40    2
    39    42    41    1
    40    42    43    1
    41   146   144    1
    42    51    50    2
    43   149   148    1
    44   108   109    1
    45    43    44    1
    46   109   110    1
    47    50    49    1
    48   144   145    1
    49   144   141    1
    50   147   148    1
    51   147   142   am
    52   148   151    1
    53    52    49    1
    54    52    53    1
    55   151   153    1
    56   151   152    1
    57    44    45    2
    58   141   142    1
    59   141   140    1
    60    49    48    1
    61   142   143    2
    62   110   112   am
    63   110   111    2
    64   139   138    2
    65   112   113    1
    66    53    54   ar
    67    53    55   ar
    68    45    46    1
    69    45    47    1
    70    54    56   ar
    71   140   138   am
    72   138   137    1
    73   115   114    2
    74    55    57   ar
    75   113   114    1
    76   114   116   am
    77    56    57   ar
    78   137   136    1
    79   136   133   am
    80   135   132    1
    81   116   117    1
    82    73    74    1
    83    74    75    1
    84    74    77    1
    85     7     6    1
    86     7     8    1
    87    79    81   ar
    88    79    78   ar
    89     1     2    1
    90   117   118    1
    91   117   120    1
    92     6     5    1
    93    81    82   ar
    94    75    76    2
    95   133   132    1
    96   133   134    2
    97   118   119    2
    98   132   131    1
    99   124   122   ar
   100   124   125   ar
   101   122   121   ar
   102    77    78    1
   103     5     2    1
   104    78    80   ar
   105   125   123   ar
   106   121   120    1
   107   121   123   ar
   108     2     3    1
   109   129   128    2
   110    82    80   ar
   111   131   128   am
   112     3     4    2
   113   128   127    1
   114    83    84    1
   115    84    85    1
   116    84    87    1
   117    85    86    2
   118    16    14   ar
   119   126   127    1
   120   127   130    1
   121    15    14   ar
   122    87    88    1
   123    14    13    1
   124     9    10    1
   125    72    70   am
   126    98    97    1
   127    89    90    1
   128    13    10    1
   129    10    11    1
   130    70    71    2
   131    70    69    1
   132    12    11    2
   133    90    91    1
   134    90    93    1
   135    91    92    2
   136    97    99    1
   137    97    96    2
   138    69    66    1
   139    95    96    1
   140    95    94    1
   141    94    93    1
   142    68    67    2
   143    66    67    1
   144    66    65    1
