@<TRIPOS>MOLECULE
tmp/5o7iA00.pdb
 145 134 0 0 0
SMALL
GASTEIGER

@<TRIPOS>ATOM
      1  N         50.3710    4.7770   11.1000 N.3     8  ILE8       -0.1245
      2  CA        50.4550    3.5030   10.3830 C.3     8  ILE8        0.1561
      3  C         49.8520    3.5960    8.9720 C.2     8  ILE8        0.2260
      4  O         50.6010    3.6040    7.9950 O.2     8  ILE8       -0.2867
      5  CB        49.8630    2.3210   11.2210 C.3     8  ILE8        0.0252
      6  CG1       50.8190    1.9140   12.3540 C.3     8  ILE8        0.0019
      7  CG2       49.5480    1.1060   10.3500 C.3     8  ILE8        0.0019
      8  CD1       50.4290    2.3830   13.6740 C.3     8  ILE8        0.0001
      9  N         40.1330    5.5160    3.0880 N.3    13  TYR13      -0.1241
     10  CA        39.3400    5.5600    4.3250 C.3    13  TYR13       0.1605
     11  C         39.8140    6.7660    5.2000 C.2    13  TYR13       0.2264
     12  O         39.0030    7.4040    5.8760 O.2    13  TYR13      -0.2867
     13  CB        39.4600    4.2240    5.1170 C.3    13  TYR13       0.0534
     14  CG        40.8790    3.7110    5.2940 C.ar   13  TYR13      -0.0201
     15  CD1       41.7230    4.2500    6.2630 C.ar   13  TYR13      -0.0009
     16  CD2       41.3720    2.6740    4.5070 C.ar   13  TYR13      -0.0009
     17  CE1       43.0420    3.8140    6.4000 C.ar   13  TYR13       0.0417
     18  CE2       42.6850    2.2150    4.6500 C.ar   13  TYR13       0.0417
     19  CZ        43.5120    2.7790    5.6100 C.ar   13  TYR13       0.1957
     20  OH        44.8010    2.3320    5.7840 O.3    13  TYR13      -0.2866
     21  N         45.3990    6.1780    9.7550 N.3    16  VAL16      -0.1245
     22  CA        45.2880    5.3450   10.9610 C.3    16  VAL16       0.1561
     23  C         46.5830    5.4640   11.7550 C.2    16  VAL16       0.2260
     24  O         47.6660    5.4110   11.1780 O.2    16  VAL16      -0.2867
     25  CB        44.9000    3.8650   10.6590 C.3    16  VAL16       0.0252
     26  CG1       44.6930    3.0620   11.9400 C.3    16  VAL16       0.0019
     27  CG2       43.6430    3.7950    9.8040 C.3    16  VAL16       0.0019
     28  N         48.5750    4.4530   15.7770 N.3    18  SER18      -0.1217
     29  CA        48.4710    3.7230   17.0380 C.3    18  SER18       0.1889
     30  C         48.5650    4.8150   18.0990 C.2    18  SER18       0.2288
     31  O         49.1240    5.8890   17.8330 O.2    18  SER18      -0.2866
     32  CB        49.5750    2.6800   17.2010 C.3    18  SER18       0.2089
     33  OG        50.8760    3.2310   17.0930 O.3    18  SER18      -0.2183
     34  N         43.8950    2.0790   18.3080 N.3    29  ALA29      -0.1245
     35  CA        44.0750    2.5040   16.9160 C.3    29  ALA29       0.1562
     36  C         43.1760    3.7610   16.7250 C.2    29  ALA29       0.2260
     37  O         42.0290    3.7880   17.1910 O.2    29  ALA29      -0.2867
     38  CB        43.6340    1.3930   15.9640 C.3    29  ALA29       0.0290
     39  N         41.5960    6.2670   13.8220 N.3    31  LYS31      -0.1245
     40  CA        41.3720    6.5490   12.4020 C.3    31  LYS31       0.1561
     41  C         40.7660    7.9460   12.2450 C.2    31  LYS31       0.2260
     42  O         39.7650    8.2760   12.8920 O.2    31  LYS31      -0.2867
     43  CB        40.4930    5.4850   11.7330 C.3    31  LYS31       0.0271
     44  CG        40.1630    5.7860   10.2730 C.3    31  LYS31       0.0035
     45  CD        39.4190    4.6290    9.6030 C.3    31  LYS31       0.0206
     46  CE        37.9450    4.5630    9.9440 C.3    31  LYS31       0.1093
     47  NZ        37.3180    3.3020    9.4590 N.3    31  LYS31      -0.1314
     48  N         35.3990   -5.8750   14.8510 N.3    62  ILE62      -0.1245
     49  CA        36.0860   -4.6500   15.2680 C.3    62  ILE62       0.1561
     50  C         35.0980   -3.7160   15.9800 C.2    62  ILE62       0.2260
     51  O         33.9460   -3.5880   15.5690 O.2    62  ILE62      -0.2867
     52  CB        36.8860   -3.9890   14.0830 C.3    62  ILE62       0.0252
     53  CG1       38.3930   -3.9750   14.3960 C.3    62  ILE62       0.0019
     54  CG2       36.4620   -2.5670   13.7920 C.3    62  ILE62       0.0019
     55  CD1       39.1100   -5.0110   13.8140 C.3    62  ILE62       0.0001
     56  N         39.5990    2.7450   17.7800 N.3    84  LEU84      -0.1231
     57  CA        39.2530    1.3440   17.5370 C.3    84  LEU84       0.1693
     58  C         40.2270    0.4090   18.2130 C.2    84  LEU84       0.2592
     59  O         41.3110    0.8350   18.5940 O.2    84  LEU84      -0.2718
     60  CB        39.2890    1.0520   15.9960 C.3    84  LEU84       0.0284
     61  CG        38.4520    1.9290   15.0720 C.3    84  LEU84       0.0019
     62  CD1       39.0540    1.9660   13.6830 C.3    84  LEU84       0.0001
     63  CD2       37.0170    1.4370   14.9950 C.3    84  LEU84       0.0001
     64  N         39.8910   -0.8920   18.2460 N.am   85  ASP85      -0.1960
     65  CA        40.7910   -1.9690   18.7060 C.3    85  ASP85       0.1840
     66  C         42.1050   -1.8580   17.9130 C.2    85  ASP85       0.2622
     67  O         42.0730   -1.6960   16.6950 O.2    85  ASP85      -0.2715
     68  CB        40.1770   -3.3640   18.3850 C.3    85  ASP85       0.1450
     69  CG        38.8530   -3.6900   19.0460 C.2    85  ASP85       0.3671
     70  OD1       38.7990   -3.6940   20.3000 O.co2  85  ASP85      -0.2456
     71  OD2       37.9020   -4.0510   18.3190 O.co2  85  ASP85      -0.2456
     72  N         43.2400   -1.9210   18.5920 N.am   86  LEU86      -0.1963
     73  CA        44.5360   -1.9020   17.9290 C.3    86  LEU86       0.1728
     74  C         44.7890   -3.3460   17.4400 C.2    86  LEU86       0.2616
     75  O         44.7790   -4.2950   18.2420 O.2    86  LEU86      -0.2715
     76  CB        45.6240   -1.4240   18.9100 C.3    86  LEU86       0.0311
     77  CG        47.0650   -1.3940   18.3880 C.3    86  LEU86       0.0022
     78  CD1       47.2060   -0.5030   17.1530 C.3    86  LEU86       0.0001
     79  CD2       48.0230   -0.9730   19.4810 C.3    86  LEU86       0.0001
     80  N         44.9180   -3.5130   16.1060 N.am   87  MET87      -0.1963
     81  CA        45.1170   -4.8140   15.4440 C.3    87  MET87       0.1736
     82  C         46.3670   -4.7250   14.6220 C.2    87  MET87       0.2616
     83  O         46.3980   -4.0190   13.6220 O.2    87  MET87      -0.2715
     84  CB        43.9040   -5.2030   14.5880 C.3    87  MET87       0.0427
     85  CG        42.5850   -5.1860   15.3390 C.3    87  MET87       0.0599
     86  SD        42.4640   -6.4110   16.6730 S.3    87  MET87      -0.1393
     87  CE        42.3240   -7.9590   15.7000 C.3    87  MET87       0.0692
     88  N         47.4140   -5.4200   15.0480 N.am   88  GLU88      -0.1963
     89  CA        48.7440   -5.3810   14.4250 C.3    88  GLU88       0.1733
     90  C         48.7930   -5.8720   12.9590 C.2    88  GLU88       0.2617
     91  O         49.4350   -5.2210   12.1310 O.2    88  GLU88      -0.2715
     92  CB        49.7730   -6.1400   15.2940 C.3    88  GLU88       0.0429
     93  CG        50.1410   -5.4290   16.5960 C.3    88  GLU88       0.1163
     94  CD        49.2170   -5.5560   17.8020 C.2    88  GLU88       0.3649
     95  OE1       48.0920   -6.0870   17.6610 O.co2  88  GLU88      -0.2457
     96  OE2       49.6230   -5.1060   18.8970 O.co2  88  GLU88      -0.2457
     97  N         48.1270   -7.0000   12.6430 N.am   89  SER89      -0.1950
     98  CA        48.1490   -7.5700   11.2980 C.3    89  SER89       0.1924
     99  C         46.7600   -7.8840   10.7320 C.2    89  SER89       0.2314
    100  O         45.7460   -7.4270   11.2420 O.2    89  SER89      -0.2863
    101  CB        49.0010   -8.8370   11.3310 C.3    89  SER89       0.2116
    102  OG        49.4480   -9.2210   10.0430 O.3    89  SER89      -0.2180
    103  N         48.3510  -10.6410    5.1730 N.3    93  GLN93      -0.1245
    104  CA        49.7260  -10.5690    5.6610 C.3    93  GLN93       0.1566
    105  C         50.1780  -11.8800    6.2720 C.2    93  GLN93       0.2260
    106  O         51.3370  -12.2300    6.1260 O.2    93  GLN93      -0.2867
    107  CB        49.8560   -9.4530    6.7070 C.3    93  GLN93       0.0367
    108  CG        49.6910   -8.0730    6.0710 C.3    93  GLN93       0.0905
    109  CD        50.1060   -6.9860    7.0130 C.2    93  GLN93       0.2608
    110  OE1       51.2800   -6.6020    7.0740 O.2    93  GLN93      -0.2717
    111  NE2       49.1490   -6.4580    7.7650 N.am   93  GLN93      -0.0878
    112  N         42.4590   -9.3480    3.7700 N.3   133  SER133     -0.1202
    113  CA        42.9310   -8.0350    4.2760 C.3   133  SER133      0.2020
    114  C         41.9470   -7.3030    5.2230 C.2   133  SER133      0.2618
    115  O         42.3840   -6.4410    5.9680 O.2   133  SER133     -0.2717
    116  CB        43.3510   -7.1140    3.1360 C.3   133  SER133      0.2103
    117  OG        42.2170   -6.7840    2.3560 O.3   133  SER133     -0.2182
    118  N         40.6570   -7.6660    5.2200 N.am  134  ASN134     -0.1974
    119  CA        39.5980   -7.1230    6.1000 C.3   134  ASN134      0.1688
    120  C         39.4490   -7.9370    7.3420 C.2   134  ASN134      0.2292
    121  O         38.5680   -7.6450    8.1690 O.2   134  ASN134     -0.2864
    122  CB        38.2260   -7.0910    5.3810 C.3   134  ASN134      0.1181
    123  CG        38.0950   -5.9310    4.4490 C.2   134  ASN134      0.2629
    124  OD1       38.8660   -4.9620    4.4990 O.2   134  ASN134     -0.2716
    125  ND2       37.1690   -6.0370    3.5340 N.am  134  ASN134     -0.0877
    126  N         41.2590   -8.6650   10.3830 N.3   136  LEU136     -0.1245
    127  CA        42.3790   -8.2120   11.1930 C.3   136  LEU136      0.1561
    128  C         42.7170   -9.1910   12.2750 C.2   136  LEU136      0.2260
    129  O         41.8340   -9.8260   12.8450 O.2   136  LEU136     -0.2867
    130  CB        42.1280   -6.8160   11.7860 C.3   136  LEU136      0.0270
    131  CG        41.5990   -5.7080   10.8370 C.3   136  LEU136      0.0019
    132  CD1       41.7130   -4.3930   11.4960 C.3   136  LEU136      0.0001
    133  CD2       42.4010   -5.6250    9.5250 C.3   136  LEU136      0.0001
    134  N         36.4730   -6.4220   10.0150 N.3   146  GLY146     -0.1210
    135  CA        36.4350   -4.9760    9.8550 C.3   146  GLY146      0.1956
    136  C         35.9230   -4.5770    8.4900 C.2   146  GLY146      0.2611
    137  O         35.4970   -5.4320    7.7000 O.2   146  GLY146     -0.2717
    138  N         35.9400   -3.2600    8.2130 N.am  147  ASP147     -0.1973
    139  CA        35.5430   -2.6280    6.9490 C.3   147  ASP147      0.1709
    140  C         34.0990   -2.9520    6.5220 C.2   147  ASP147      0.2293
    141  O         33.8600   -3.7340    5.5950 O.2   147  ASP147     -0.2864
    142  CB        36.5630   -2.9480    5.8200 C.3   147  ASP147      0.1436
    143  CG        36.5790   -1.9470    4.6690 C.2   147  ASP147      0.3671
    144  OD1       35.7470   -0.9880    4.6880 O.co2 147  ASP147     -0.2456
    145  OD2       37.4180   -2.1090    3.7570 O.co2 147  ASP147     -0.2456
@<TRIPOS>BOND
     1   117   116    1
     2     9    10    1
     3   116   113    1
     4   125   123   am
     5   145   143   ar
     6   112   113    1
     7   113   114    1
     8    10    13    1
     9    10    11    1
    10   123   124    2
    11   123   122    1
    12    16    18   ar
    13    16    14   ar
    14    18    19   ar
    15   143   144   ar
    16   143   142    1
    17    13    14    1
    18   103   104    1
    19    11    12    2
    20   118   114   am
    21   118   119    1
    22   114   115    2
    23    14    15   ar
    24   122   119    1
    25   141   140    2
    26    19    20    1
    27    19    17   ar
    28   104   105    1
    29   104   107    1
    30   142   139    1
    31   108   107    1
    32   108   109    1
    33   119   120    1
    34   106   105    2
    35    15    17   ar
    36   140   139    1
    37   139   138    1
    38   109   110    2
    39   109   111   am
    40   120   121    2
    41   137   136    2
    42     4     3    2
    43   138   136   am
    44   136   135    1
    45     3     2    1
    46    47    46    1
    47   133   131    1
    48    45    46    1
    49    45    44    1
    50    21    22    1
    51    27    25    1
    52   135   134    1
    53   102   101    1
    54    44    43    1
    55     7     5    1
    56   126   127    1
    57     2     1    1
    58     2     5    1
    59    25    22    1
    60    25    26    1
    61    99   100    2
    62    99    98    1
    63   131   132    1
    64   131   130    1
    65    22    23    1
    66    24    23    2
    67   127   130    1
    68   127   128    1
    69     5     6    1
    70    98   101    1
    71    98    97    1
    72    43    40    1
    73    91    90    2
    74    41    40    1
    75    41    42    2
    76   128   129    2
    77     6     8    1
    78    40    39    1
    79    97    90   am
    80    90    89    1
    81    83    82    2
    82    62    61    1
    83    54    52    1
    84    55    53    1
    85    52    53    1
    86    52    49    1
    87    89    88    1
    88    89    92    1
    89    84    85    1
    90    84    81    1
    91    82    88   am
    92    82    81    1
    93    48    49    1
    94    63    61    1
    95    61    60    1
    96    49    50    1
    97    92    93    1
    98    85    86    1
    99    81    80    1
   100    51    50    2
   101    87    86    1
   102    28    29    1
   103    38    35    1
   104    60    57    1
   105    80    74   am
   106    93    94    1
   107    67    66    2
   108    36    35    1
   109    36    37    2
   110    35    34    1
   111    29    32    1
   112    29    30    1
   113    33    32    1
   114    78    77    1
   115    74    73    1
   116    74    75    2
   117    57    56    1
   118    57    58    1
   119    95    94   ar
   120    94    96   ar
   121    31    30    2
   122    66    72   am
   123    66    65    1
   124    73    72    1
   125    73    76    1
   126    58    64   am
   127    58    59    2
   128    64    65    1
   129    71    69   ar
   130    68    65    1
   131    68    69    1
   132    77    76    1
   133    77    79    1
   134    69    70   ar
