@<TRIPOS>MOLECULE
tmp/5o7nA00.pdb
 151 147 0 0 0
SMALL
GASTEIGER

@<TRIPOS>ATOM
      1  N         73.1030    6.5240   68.0200 N.3    30  PHE30      -0.1241
      2  CA        71.8600    6.8050   67.3130 C.3    30  PHE30       0.1605
      3  C         70.8530    5.6860   67.5640 C.2    30  PHE30       0.2264
      4  O         71.1090    4.5230   67.2530 O.2    30  PHE30      -0.2867
      5  CB        72.1170    6.9580   65.8130 C.3    30  PHE30       0.0534
      6  CG        70.8710    6.9060   64.9760 C.ar   30  PHE30      -0.0203
      7  CD1       70.0660    8.0250   64.8390 C.ar   30  PHE30      -0.0042
      8  CD2       70.5040    5.7390   64.3270 C.ar   30  PHE30      -0.0042
      9  CE1       68.9190    7.9800   64.0690 C.ar   30  PHE30      -0.0003
     10  CE2       69.3580    5.6870   63.5570 C.ar   30  PHE30      -0.0003
     11  CZ        68.5640    6.8100   63.4270 C.ar   30  PHE30      -0.0000
     12  N         77.7130    3.7070   66.4660 N.3    35  TYR35      -0.1241
     13  CA        78.1770    3.5700   65.0850 C.3    35  TYR35       0.1605
     14  C         79.5930    4.1920   64.9200 C.2    35  TYR35       0.2264
     15  O         79.7700    5.1890   65.4590 O.2    35  TYR35      -0.2867
     16  CB        77.2060    4.3220   64.1570 C.3    35  TYR35       0.0534
     17  CG        75.8250    3.7280   64.1260 C.ar   35  TYR35      -0.0201
     18  CD1       74.8530    4.1510   64.9580 C.ar   35  TYR35      -0.0009
     19  CD2       75.5550    2.7280   63.2490 C.ar   35  TYR35      -0.0009
     20  CE1       73.6080    3.5510   64.9400 C.ar   35  TYR35       0.0417
     21  CE2       74.3350    2.1490   63.1960 C.ar   35  TYR35       0.0417
     22  CZ        73.3820    2.5470   64.0400 C.ar   35  TYR35       0.1957
     23  OH        72.2090    1.8990   63.9200 O.3    35  TYR35      -0.2866
     24  N         81.7070   14.0120   62.8720 N.3    55  TRP55      -0.1241
     25  CA        80.3140   13.7400   63.2080 C.3    55  TRP55       0.1605
     26  C         79.9300   14.4640   64.4930 C.2    55  TRP55       0.2264
     27  O         79.7110   13.8320   65.5340 O.2    55  TRP55      -0.2867
     28  CB        80.0750   12.2300   63.3330 C.3    55  TRP55       0.0550
     29  CG        78.6530   11.8060   63.2450 C.ar   55  TRP55       0.0003
     30  CD1       77.5500   12.6130   63.2140 C.ar   55  TRP55       0.0946
     31  CD2       78.1720   10.4580   63.1820 C.ar   55  TRP55       0.0152
     32  NE1       76.4130   11.8480   63.1330 N.ar   55  TRP55      -0.2442
     33  CE2       76.7670   10.5220   63.1060 C.ar   55  TRP55       0.0810
     34  CE3       78.7950    9.2030   63.1810 C.ar   55  TRP55       0.0012
     35  CZ2       75.9710    9.3770   63.0330 C.ar   55  TRP55       0.0191
     36  CZ3       78.0020    8.0630   63.1010 C.ar   55  TRP55       0.0001
     37  CH2       76.6060    8.1610   63.0290 C.ar   55  TRP55       0.0015
     38  N         79.4410   14.9220   51.5960 N.3    82  HIS82      -0.1241
     39  CA        78.0250   15.1410   51.3190 C.3    82  HIS82       0.1621
     40  C         77.4230   15.9110   52.4910 C.2    82  HIS82       0.2264
     41  O         78.1350   16.3070   53.4170 O.2    82  HIS82      -0.2867
     42  CB        77.2820   13.8200   50.9800 C.3    82  HIS82       0.0745
     43  CG        77.0740   12.8630   52.1250 C.ar   82  HIS82       0.0817
     44  ND1       78.0430   11.9680   52.5330 N.ar   82  HIS82      -0.2268
     45  CD2       75.9640   12.5680   52.8460 C.ar   82  HIS82       0.1154
     46  CE1       77.5590   11.2110   53.5070 C.ar   82  HIS82       0.1986
     47  NE2       76.3080   11.5730   53.7300 N.ar   82  HIS82      -0.2212
     48  N         75.1780   15.3640   54.9280 N.3    84  HIS84      -0.1226
     49  CA        74.7520   14.7970   56.2080 C.3    84  HIS84       0.1752
     50  C         75.6560   15.2360   57.3700 C.2    84  HIS84       0.2596
     51  O         76.7890   15.6760   57.1860 O.2    84  HIS84      -0.2718
     52  CB        74.7350   13.2680   56.1330 C.3    84  HIS84       0.0759
     53  CG        73.6030   12.7050   55.3290 C.ar   84  HIS84       0.0818
     54  ND1       73.6450   11.4400   54.7650 N.ar   84  HIS84      -0.2268
     55  CD2       72.4020   13.2330   54.9960 C.ar   84  HIS84       0.1154
     56  CE1       72.5070   11.2220   54.1240 C.ar   84  HIS84       0.1986
     57  NE2       71.7440   12.2930   54.2380 N.ar   84  HIS84      -0.2212
     58  N         75.1360   15.0650   58.5950 N.am   85  ASP85      -0.1960
     59  CA        75.7830   15.5690   59.8120 C.3    85  ASP85       0.1840
     60  C         77.1080   14.8720   60.1320 C.2    85  ASP85       0.2622
     61  O         77.9550   15.4500   60.8190 O.2    85  ASP85      -0.2715
     62  CB        74.8100   15.4070   60.9890 C.3    85  ASP85       0.1450
     63  CG        75.1950   16.2310   62.2000 C.2    85  ASP85       0.3671
     64  OD1       75.4370   17.4460   62.0470 O.co2  85  ASP85      -0.2456
     65  OD2       75.2310   15.6590   63.3140 O.co2  85  ASP85      -0.2456
     66  N         77.3150   13.6440   59.6880 N.am   86  ASP86      -0.1971
     67  CA        78.6130   13.0200   59.9040 C.3    86  ASP86       0.1709
     68  C         79.6750   13.5420   58.9460 C.2    86  ASP86       0.2293
     69  O         80.8350   13.1190   59.0310 O.2    86  ASP86      -0.2864
     70  CB        78.5050   11.4930   59.7880 C.3    86  ASP86       0.1436
     71  CG        78.0200   11.0370   58.4260 C.2    86  ASP86       0.3671
     72  OD1       77.2270   11.7640   57.7800 O.co2  86  ASP86      -0.2456
     73  OD2       78.4310    9.9310   58.0100 O.co2  86  ASP86      -0.2456
     74  N         68.6060   21.3640   54.8990 N.3   114  GLU114     -0.1245
     75  CA        68.5050   20.5100   56.0690 C.3   114  GLU114      0.1567
     76  C         68.7110   21.2700   57.3730 C.2   114  GLU114      0.2260
     77  O         68.4880   20.6920   58.4400 O.2   114  GLU114     -0.2867
     78  CB        69.5330   19.3770   55.9660 C.3   114  GLU114      0.0388
     79  CG        69.2370   18.1570   56.8160 C.3   114  GLU114      0.1160
     80  CD        68.0050   17.4100   56.3410 C.2   114  GLU114      0.3649
     81  OE1       67.5990   17.6080   55.1730 O.co2 114  GLU114     -0.2457
     82  OE2       67.4410   16.6290   57.1380 O.co2 114  GLU114     -0.2457
     83  N         74.4840    7.1790   47.6350 N.3   147  HIS147     -0.1241
     84  CA        73.9510    7.3450   48.9860 C.3   147  HIS147      0.1621
     85  C         73.2190    8.6780   49.1230 C.2   147  HIS147      0.2264
     86  O         72.2300    8.7900   49.8570 O.2   147  HIS147     -0.2867
     87  CB        75.1040    7.2250   49.9990 C.3   147  HIS147      0.0745
     88  CG        74.8000    7.7990   51.3470 C.ar  147  HIS147      0.0817
     89  ND1       74.2380    7.0560   52.3620 N.ar  147  HIS147     -0.2268
     90  CD2       75.0220    9.0310   51.8630 C.ar  147  HIS147      0.1154
     91  CE1       74.0880    7.8150   53.4340 C.ar  147  HIS147      0.1986
     92  NE2       74.5540    9.0220   53.1550 N.ar  147  HIS147     -0.2212
     93  N         80.0870    7.5710   52.3010 N.3   166  CYS166     -0.1235
     94  CA        78.9420    6.7380   52.6510 C.3   166  CYS166      0.1677
     95  C         78.2670    6.1760   51.4050 C.2   166  CYS166      0.2270
     96  O         77.2600    5.4730   51.4960 O.2   166  CYS166     -0.2867
     97  CB        77.9340    7.5350   53.4820 C.3   166  CYS166      0.0956
     98  SG        78.6540    8.4150   54.8870 S.3   166  CYS166     -0.0801
     99  N         79.8970    0.8140   51.3860 N.3   169  TYR169     -0.1241
    100  CA        79.6350    0.1260   52.6410 C.3   169  TYR169      0.1605
    101  C         80.7900   -0.7880   53.0250 C.2   169  TYR169      0.2264
    102  O         81.4390   -1.3960   52.1660 O.2   169  TYR169     -0.2867
    103  CB        78.3800   -0.7390   52.5260 C.3   169  TYR169      0.0534
    104  CG        77.0540   -0.0240   52.5250 C.ar  169  TYR169     -0.0201
    105  CD1       76.9540    1.3540   52.6570 C.ar  169  TYR169     -0.0009
    106  CD2       75.8800   -0.7490   52.3930 C.ar  169  TYR169     -0.0009
    107  CE1       75.7120    1.9770   52.6580 C.ar  169  TYR169      0.0417
    108  CE2       74.6480   -0.1390   52.3970 C.ar  169  TYR169      0.0417
    109  CZ        74.5680    1.2210   52.5400 C.ar  169  TYR169      0.1957
    110  OH        73.3360    1.8190   52.5410 O.3   169  TYR169     -0.2866
    111  N         78.4250   -4.7490   56.8120 N.3   173  ARG173     -0.1245
    112  CA        77.0700   -4.2630   56.6200 C.3   173  ARG173      0.1563
    113  C         76.4610   -4.9790   55.4220 C.2   173  ARG173      0.2260
    114  O         76.9290   -4.8160   54.2940 O.2   173  ARG173     -0.2867
    115  CB        77.0540   -2.7510   56.4210 C.3   173  ARG173      0.0307
    116  CG        75.7060   -2.2590   55.9680 C.3   173  ARG173      0.0489
    117  CD        75.5700   -0.7500   56.0980 C.3   173  ARG173      0.2205
    118  NE        75.4440   -0.3280   57.4890 N.pl3 173  ARG173     -0.0865
    119  CZ        74.3420   -0.4580   58.2260 C.cat 173  ARG173      0.5346
    120  NH1       73.2480   -1.0180   57.7210 N.pl3 173  ARG173      0.1354
    121  NH2       74.3360   -0.0370   59.4850 N.pl3 173  ARG173      0.1354
    122  N         71.6990    1.0130   54.7790 N.3   177  GLY177     -0.1210
    123  CA        71.6440    1.8980   55.9230 C.3   177  GLY177      0.1956
    124  C         70.5470    2.9280   55.7770 C.2   177  GLY177      0.2611
    125  O         69.4180    2.6030   55.3950 O.2   177  GLY177     -0.2717
    126  N         70.8820    4.1830   56.0620 N.am  178  ASN178     -0.1974
    127  CA        69.9530    5.2890   55.8640 C.3   178  ASN178      0.1688
    128  C         69.9360    5.7150   54.4000 C.2   178  ASN178      0.2292
    129  O         70.8560    6.3820   53.9270 O.2   178  ASN178     -0.2864
    130  CB        70.3280    6.4730   56.7560 C.3   178  ASN178      0.1181
    131  CG        69.5870    7.7410   56.3830 C.2   178  ASN178      0.2629
    132  OD1       68.5040    7.6920   55.8000 O.2   178  ASN178     -0.2716
    133  ND2       70.1680    8.8870   56.7180 N.am  178  ASN178     -0.0877
    134  N         67.8530    9.6400   51.5030 N.3   181  ASP181     -0.1239
    135  CA        68.3050   10.6320   50.5430 C.3   181  ASP181      0.1674
    136  C         69.0020   10.0140   49.3340 C.2   181  ASP181      0.2266
    137  O         69.5890   10.7430   48.5260 O.2   181  ASP181     -0.2867
    138  CB        69.2130   11.6310   51.2600 C.3   181  ASP181      0.1410
    139  CG        68.4490   12.4650   52.2920 C.2   181  ASP181      0.3668
    140  OD1       67.3510   12.9500   51.9590 O.co2 181  ASP181     -0.2456
    141  OD2       68.9340   12.6230   53.4320 O.co2 181  ASP181     -0.2456
    142  N         81.7460    4.2740   56.9840 N.3   208  HIS208     -0.1241
    143  CA        81.5820    3.7370   58.3270 C.3   208  HIS208      0.1621
    144  C         82.1910    2.3450   58.3440 C.2   208  HIS208      0.2264
    145  O         81.8580    1.5190   57.4920 O.2   208  HIS208     -0.2867
    146  CB        80.0890    3.7290   58.7010 C.3   208  HIS208      0.0745
    147  CG        79.4270    5.0720   58.5480 C.ar  208  HIS208      0.0817
    148  ND1       79.3640    5.9900   59.5730 N.ar  208  HIS208     -0.2268
    149  CD2       78.8040    5.6500   57.4910 C.ar  208  HIS208      0.1154
    150  CE1       78.7350    7.0760   59.1590 C.ar  208  HIS208      0.1986
    151  NE2       78.3860    6.9020   57.8960 N.ar  208  HIS208     -0.2212
@<TRIPOS>BOND
     1    83    84    1
     2   137   136    2
     3    84    85    1
     4    84    87    1
     5    85    86    2
     6   136   135    1
     7    87    88    1
     8   135   138    1
     9   135   134    1
    10    42    39    1
    11    42    43    1
    12   138   139    1
    13    39    38    1
    14    39    40    1
    15    88    90   ar
    16    88    89   ar
    17    99   100    1
    18    95    96    2
    19    95    94    1
    20    90    92   ar
    21   140   139   ar
    22    43    44   ar
    23    43    45   ar
    24   102   101    2
    25   139   141   ar
    26    93    94    1
    27    89    91   ar
    28   106   108   ar
    29   106   104   ar
    30   108   109   ar
    31    40    41    2
    32   104   103    1
    33   104   105   ar
    34   103   100    1
    35    44    46   ar
    36   109   110    1
    37   109   107   ar
    38   100   101    1
    39    94    97    1
    40   105   107   ar
    41    45    47   ar
    42    92    91   ar
    43    97    98    1
    44    46    47   ar
    45   129   128    2
    46    56    57   ar
    47    56    54   ar
    48    57    55   ar
    49   114   113    2
    50   128   127    1
    51    54    53   ar
    52   122   123    1
    53    74    75    1
    54    48    49    1
    55    55    53   ar
    56    81    80   ar
    57    53    52    1
    58   125   124    2
    59   113   112    1
    60   124   123    1
    61   124   126   am
    62   132   131    2
    63   127   126    1
    64   127   130    1
    65    78    75    1
    66    78    79    1
    67   116   117    1
    68   116   115    1
    69    75    76    1
    70   117   118    1
    71    52    49    1
    72    49    50    1
    73    80    79    1
    74    80    82   ar
    75   131   133   am
    76   131   130    1
    77   115   112    1
    78   112   111    1
    79   142   143    1
    80    51    50    2
    81    50    58   am
    82    76    77    2
    83   118   119    2
    84   149   151   ar
    85   149   147   ar
    86   145   144    2
    87   120   119    1
    88    72    71   ar
    89   151   150   ar
    90    73    71   ar
    91   119   121    1
    92   143   144    1
    93   143   146    1
    94    71    70    1
    95   147   146    1
    96   147   148   ar
    97    58    59    1
    98    68    69    2
    99    68    67    1
   100   150   148   ar
   101    66    67    1
   102    66    60   am
   103    70    67    1
   104    59    60    1
   105    59    62    1
   106    60    61    2
   107    62    63    1
   108    64    63   ar
   109    63    65   ar
   110    24    25    1
   111    37    35   ar
   112    37    36   ar
   113    35    33   ar
   114    36    34   ar
   115    33    32   ar
   116    33    31   ar
   117    32    30   ar
   118    34    31   ar
   119    31    29   ar
   120    21    19   ar
   121    21    22   ar
   122    25    28    1
   123    25    26    1
   124    30    29   ar
   125    29    28    1
   126    19    17   ar
   127    11    10   ar
   128    11     9   ar
   129    10     8   ar
   130    23    22    1
   131    22    20   ar
   132     9     7   ar
   133    17    16    1
   134    17    18   ar
   135    16    13    1
   136     8     6   ar
   137    26    27    2
   138     7     6   ar
   139    14    13    1
   140    14    15    2
   141    20    18   ar
   142     6     5    1
   143    13    12    1
   144     5     2    1
   145     4     3    2
   146     2     3    1
   147     2     1    1
