@<TRIPOS>MOLECULE
tmp/5o7yA00.pdb
 139 129 0 0 0
SMALL
GASTEIGER

@<TRIPOS>ATOM
      1  N         29.1720   47.3860   11.6110 N.3   213  ARG213     -0.1245
      2  CA        29.0450   46.0070   11.1450 C.3   213  ARG213      0.1563
      3  C         28.6740   45.1330   12.3370 C.2   213  ARG213      0.2260
      4  O         29.4390   45.0360   13.3040 O.2   213  ARG213     -0.2867
      5  CB        30.3430   45.4850   10.5240 C.3   213  ARG213      0.0307
      6  CG        30.6320   46.0230    9.1320 C.3   213  ARG213      0.0489
      7  CD        31.9950   45.6080    8.5800 C.3   213  ARG213      0.2205
      8  NE        32.1280   45.9550    7.1640 N.pl3 213  ARG213     -0.0865
      9  CZ        32.3050   47.1820    6.6560 C.cat 213  ARG213      0.5346
     10  NH1       32.4090   48.2740    7.4210 N.pl3 213  ARG213      0.1354
     11  NH2       32.3830   47.3220    5.3410 N.pl3 213  ARG213      0.1354
     12  N         28.0130   41.3820   13.5780 N.3   215  ASN215     -0.1240
     13  CA        28.5900   40.1390   13.1020 C.3   215  ASN215      0.1653
     14  C         28.0680   38.9810   13.9270 C.2   215  ASN215      0.2266
     15  O         28.0840   39.0540   15.1480 O.2   215  ASN215     -0.2867
     16  CB        30.1130   40.1750   13.2480 C.3   215  ASN215      0.1155
     17  CG        30.7310   41.3700   12.5900 C.2   215  ASN215      0.2627
     18  OD1       30.5040   41.6060   11.4000 O.2   215  ASN215     -0.2716
     19  ND2       31.5340   42.1350   13.3510 N.am  215  ASN215     -0.0877
     20  N         28.7390   34.8340   14.1960 N.3   217  TYR217     -0.1241
     21  CA        29.6110   33.7370   13.7930 C.3   217  TYR217      0.1605
     22  C         29.0140   32.4650   14.3880 C.2   217  TYR217      0.2264
     23  O         29.1500   32.2280   15.5760 O.2   217  TYR217     -0.2867
     24  CB        31.0340   33.9300   14.3330 C.3   217  TYR217      0.0534
     25  CG        31.6850   35.2340   13.9600 C.ar  217  TYR217     -0.0201
     26  CD1       32.3720   35.3710   12.7640 C.ar  217  TYR217     -0.0009
     27  CD2       31.6390   36.3290   14.8150 C.ar  217  TYR217     -0.0009
     28  CE1       32.9790   36.5670   12.4240 C.ar  217  TYR217      0.0417
     29  CE2       32.2370   37.5210   14.4820 C.ar  217  TYR217      0.0417
     30  CZ        32.8990   37.6350   13.2770 C.ar  217  TYR217      0.1957
     31  OH        33.5070   38.8080   12.9320 O.3   217  TYR217     -0.2866
     32  N         36.2600   35.8510    9.9250 N.3   229  LEU229     -0.1245
     33  CA        36.5480   37.0750    9.1660 C.3   229  LEU229      0.1561
     34  C         37.9890   36.9960    8.7000 C.2   229  LEU229      0.2260
     35  O         38.9250   37.0260    9.5120 O.2   229  LEU229     -0.2867
     36  CB        36.2940   38.3360   10.0120 C.3   229  LEU229      0.0270
     37  CG        36.5020   39.7110    9.3460 C.3   229  LEU229      0.0019
     38  CD1       35.5940   39.9410    8.1350 C.3   229  LEU229      0.0001
     39  CD2       36.2520   40.8080   10.3730 C.3   229  LEU229      0.0001
     40  N         42.8360   40.8050    7.5470 N.3   232  HIS232     -0.1241
     41  CA        42.7760   42.0970    6.8710 C.3   232  HIS232      0.1621
     42  C         43.3360   43.1560    7.8080 C.2   232  HIS232      0.2264
     43  O         43.4990   42.9290    9.0220 O.2   232  HIS232     -0.2867
     44  CB        41.3090   42.4540    6.5440 C.3   232  HIS232      0.0745
     45  CG        40.4640   42.6700    7.7720 C.ar  232  HIS232      0.0817
     46  ND1       40.0340   41.6270    8.5670 N.ar  232  HIS232     -0.2268
     47  CD2       40.0550   43.8090    8.3910 C.ar  232  HIS232      0.1154
     48  CE1       39.3860   42.1110    9.6140 C.ar  232  HIS232      0.1986
     49  NE2       39.3930   43.4350    9.5400 N.ar  232  HIS232     -0.2212
     50  N         42.2030   47.2110    8.7150 N.3   234  ASP234     -0.1239
     51  CA        41.0940   48.1150    8.5050 C.3   234  ASP234      0.1674
     52  C         41.5910   49.2660    7.6460 C.2   234  ASP234      0.2266
     53  O         42.7050   49.7390    7.8280 O.2   234  ASP234     -0.2867
     54  CB        40.5660   48.6380    9.8400 C.3   234  ASP234      0.1410
     55  CG        39.8630   47.5710   10.6740 C.2   234  ASP234      0.3668
     56  OD1       39.5660   46.4610   10.1630 O.co2 234  ASP234     -0.2456
     57  OD2       39.5760   47.8580   11.8470 O.co2 234  ASP234     -0.2456
     58  N         38.6210   52.1280   14.4450 N.3   239  THR239     -0.1218
     59  CA        37.5860   51.1460   14.7020 C.3   239  THR239      0.1862
     60  C         37.4030   50.8940   16.2050 C.2   239  THR239      0.2287
     61  O         38.3960   50.7440   16.9360 O.2   239  THR239     -0.2866
     62  CB        37.9240   49.8270   14.0080 C.3   239  THR239      0.1770
     63  OG1       38.2520   50.0830   12.6380 O.3   239  THR239     -0.2211
     64  CG2       36.7420   48.8780   14.0860 C.3   239  THR239      0.0375
     65  N         35.3490   48.3010   18.6950 N.3   241  LEU241     -0.1245
     66  CA        34.6840   47.0060   18.6500 C.3   241  LEU241      0.1561
     67  C         34.1220   46.6800   20.0400 C.2   241  LEU241      0.2260
     68  O         34.7900   46.8680   21.0800 O.2   241  LEU241     -0.2867
     69  CB        35.6630   45.9230   18.1970 C.3   241  LEU241      0.0270
     70  CG        35.1610   44.4660   18.2260 C.3   241  LEU241      0.0019
     71  CD1       34.3240   44.1420   17.0060 C.3   241  LEU241      0.0001
     72  CD2       36.3150   43.4900   18.3000 C.3   241  LEU241      0.0001
     73  N         38.6430   37.2060   18.1250 N.3   250  LEU250     -0.1245
     74  CA        39.5130   38.2150   17.5180 C.3   250  LEU250      0.1561
     75  C         40.9960   37.8970   17.7930 C.2   250  LEU250      0.2260
     76  O         41.3950   37.6920   18.9740 O.2   250  LEU250     -0.2867
     77  CB        39.1750   39.6090   18.0640 C.3   250  LEU250      0.0270
     78  CG        40.0940   40.7550   17.6420 C.3   250  LEU250      0.0019
     79  CD1       39.9370   41.0040   16.1620 C.3   250  LEU250      0.0001
     80  CD2       39.8080   42.0070   18.4560 C.3   250  LEU250      0.0001
     81  N         44.5790   41.6260   11.3310 N.3   289  HIS289     -0.1226
     82  CA        43.7750   40.9200   12.3050 C.3   289  HIS289      0.1752
     83  C         42.6870   40.0740   11.6170 C.2   289  HIS289      0.2596
     84  O         42.3970   40.2340   10.4330 O.2   289  HIS289     -0.2718
     85  CB        43.1640   41.8830   13.3090 C.3   289  HIS289      0.0759
     86  CG        42.3330   42.9490   12.6880 C.ar  289  HIS289      0.0818
     87  ND1       42.8800   44.0670   12.1040 N.ar  289  HIS289     -0.2268
     88  CD2       40.9950   43.0730   12.5580 C.ar  289  HIS289      0.1154
     89  CE1       41.9150   44.8280   11.6250 C.ar  289  HIS289      0.1986
     90  NE2       40.7590   44.2660   11.9110 N.ar  289  HIS289     -0.2212
     91  N         42.1240   39.1510   12.3770 N.am  290  ARG290     -0.1966
     92  CA        41.1700   38.1830   11.8410 C.3   290  ARG290      0.1729
     93  C         40.2340   37.7520   12.9370 C.2   290  ARG290      0.2616
     94  O         40.4880   38.0300   14.1100 O.2   290  ARG290     -0.2715
     95  CB        41.9080   36.9790   11.2560 C.3   290  ARG290      0.0348
     96  CG        42.4880   36.0260   12.3000 C.3   290  ARG290      0.0492
     97  CD        43.3320   34.9340   11.6660 C.3   290  ARG290      0.2205
     98  NE        43.8500   34.0030   12.6800 N.pl3 290  ARG290     -0.0865
     99  CZ        44.3900   32.8210   12.3980 C.cat 290  ARG290      0.5346
    100  NH1       44.5460   32.4450   11.1280 N.pl3 290  ARG290      0.1354
    101  NH2       44.8060   32.0140   13.3780 N.pl3 290  ARG290      0.1354
    102  N         39.1300   37.1010   12.5550 N.am  291  ALA291     -0.1977
    103  CA        38.2260   36.4990   13.5440 C.3   291  ALA291      0.1597
    104  C         38.0970   35.0230   13.2600 C.2   291  ALA291      0.2287
    105  O         37.7320   34.6250   12.1540 O.2   291  ALA291     -0.2864
    106  CB        36.8700   37.1690   13.5490 C.3   291  ALA291      0.0319
    107  N         29.5710   33.3260   18.2830 N.3   299  ARG299     -0.1245
    108  CA        30.2070   34.5570   18.7460 C.3   299  ARG299      0.1563
    109  C         29.5000   35.7190   18.0490 C.2   299  ARG299      0.2260
    110  O         29.1170   35.5930   16.8880 O.2   299  ARG299     -0.2867
    111  CB        31.6940   34.5570   18.3660 C.3   299  ARG299      0.0307
    112  CG        32.4830   35.7730   18.8570 C.3   299  ARG299      0.0489
    113  CD        33.9890   35.5770   18.7310 C.3   299  ARG299      0.2205
    114  NE        34.6190   36.8530   19.0070 N.pl3 299  ARG299     -0.0865
    115  CZ        34.8300   37.8190   18.1010 C.cat 299  ARG299      0.5346
    116  NH1       34.5670   37.6340   16.7930 N.pl3 299  ARG299      0.1354
    117  NH2       35.3100   38.9880   18.5060 N.pl3 299  ARG299      0.1354
    118  N         29.5840   40.1950   17.6240 N.3   301  SER301     -0.1217
    119  CA        30.2920   41.4420   17.8220 C.3   301  SER301      0.1889
    120  C         29.6790   42.5580   17.0030 C.2   301  SER301      0.2288
    121  O         28.9300   42.3070   16.0620 O.2   301  SER301     -0.2866
    122  CB        31.7700   41.3120   17.4680 C.3   301  SER301      0.2089
    123  OG        31.9220   41.0820   16.0810 O.3   301  SER301     -0.2183
    124  N         31.2520   46.2250   15.2950 N.3   303  ALA303     -0.1245
    125  CA        32.3850   47.1330   15.0400 C.3   303  ALA303      0.1562
    126  C         31.8570   48.4490   14.4680 C.2   303  ALA303      0.2260
    127  O         30.9960   48.4460   13.5760 O.2   303  ALA303     -0.2867
    128  CB        33.3800   46.4920   14.0990 C.3   303  ALA303      0.0290
    129  N         33.0910   51.9760   12.7830 N.3   305  PHE305     -0.1241
    130  CA        34.2190   52.4800   12.0210 C.3   305  PHE305      0.1605
    131  C         34.1060   53.9900   11.8540 C.2   305  PHE305      0.2264
    132  O         33.0380   54.4710   11.4900 O.2   305  PHE305     -0.2867
    133  CB        34.2080   51.8210   10.6540 C.3   305  PHE305      0.0534
    134  CG        34.2650   50.3370   10.7160 C.ar  305  PHE305     -0.0203
    135  CD1       35.4770   49.6820   10.7630 C.ar  305  PHE305     -0.0042
    136  CD2       33.1130   49.5890   10.7550 C.ar  305  PHE305     -0.0042
    137  CE1       35.5500   48.3030   10.8560 C.ar  305  PHE305     -0.0003
    138  CE2       33.1680   48.2020   10.8540 C.ar  305  PHE305     -0.0003
    139  CZ        34.3900   47.5640   10.8960 C.ar  305  PHE305     -0.0000
@<TRIPOS>BOND
     1    11     9    1
     2    44    41    1
     3    44    45    1
     4     9     8    2
     5     9    10    1
     6    41    40    1
     7    41    42    1
     8     8     7    1
     9    52    53    2
    10    52    51    1
    11    45    47   ar
    12    45    46   ar
    13    42    43    2
    14    38    37    1
    15    47    49   ar
    16    51    50    1
    17    51    54    1
    18    46    48   ar
    19     7     6    1
    20    34    33    1
    21    34    35    2
    22     6     5    1
    23    33    32    1
    24    33    36    1
    25    37    36    1
    26    37    39    1
    27    49    48   ar
    28    54    55    1
    29    56    55   ar
    30    84    83    2
    31     5     2    1
    32   133   134    1
    33   133   130    1
    34    55    57   ar
    35   134   136   ar
    36   134   135   ar
    37   136   138   ar
    38   135   137   ar
    39   138   139   ar
    40   137   139   ar
    41   100    99    1
    42     2     1    1
    43     2     3    1
    44    95    92    1
    45    95    96    1
    46    81    82    1
    47    18    17    2
    48   132   131    2
    49    83    82    1
    50    83    91   am
    51    89    90   ar
    52    89    87   ar
    53    97    96    1
    54    97    98    1
    55    92    91    1
    56    92    93    1
    57   131   130    1
    58    90    88   ar
    59   130   129    1
    60    87    86   ar
    61   105   104    2
    62    82    85    1
    63     3     4    2
    64    99    98    2
    65    99   101    1
    66    28    26   ar
    67    28    30   ar
    68   102    93   am
    69   102   103    1
    70    88    86   ar
    71    17    16    1
    72    17    19   am
    73    63    62    1
    74    86    85    1
    75    26    25   ar
    76    31    30    1
    77    93    94    2
    78    13    16    1
    79    13    12    1
    80    13    14    1
    81   104   103    1
    82    30    29   ar
    83   103   106    1
    84   127   126    2
    85    21    20    1
    86    21    24    1
    87    21    22    1
    88    14    15    2
    89    25    24    1
    90    25    27   ar
    91    62    64    1
    92    62    59    1
    93   128   125    1
    94    22    23    2
    95    58    59    1
    96   126   125    1
    97    29    27   ar
    98    59    60    1
    99   125   124    1
   100   121   120    2
   101   123   122    1
   102    79    78    1
   103    60    61    2
   104   116   115    1
   105   110   109    2
   106   120   119    1
   107    71    70    1
   108   122   119    1
   109    74    75    1
   110    74    77    1
   111    74    73    1
   112   118   119    1
   113    78    77    1
   114    78    80    1
   115    75    76    2
   116   109   108    1
   117   115   117    1
   118   115   114    2
   119    69    70    1
   120    69    66    1
   121    70    72    1
   122   107   108    1
   123   111   108    1
   124   111   112    1
   125    66    65    1
   126    66    67    1
   127   113   112    1
   128   113   114    1
   129    67    68    2
