@<TRIPOS>MOLECULE
tmp/5o7yA02.pdb
 103 101 0 0 0
SMALL
GASTEIGER

@<TRIPOS>ATOM
      1  N         30.2220   53.9980   10.2910 N.3   211  ALA211     -0.1245
      2  CA        29.4740   52.8300    9.8540 C.3   211  ALA211      0.1562
      3  C         29.5920   51.7350   10.9160 C.2   211  ALA211      0.2260
      4  O         30.5490   51.7100   11.6970 O.2   211  ALA211     -0.2867
      5  CB        30.0260   52.3180    8.5290 C.3   211  ALA211      0.0290
      6  N         29.1720   47.3860   11.6110 N.3   213  ARG213     -0.1245
      7  CA        29.0450   46.0070   11.1450 C.3   213  ARG213      0.1563
      8  C         28.6740   45.1330   12.3370 C.2   213  ARG213      0.2260
      9  O         29.4390   45.0360   13.3040 O.2   213  ARG213     -0.2867
     10  CB        30.3430   45.4850   10.5240 C.3   213  ARG213      0.0307
     11  CG        30.6320   46.0230    9.1320 C.3   213  ARG213      0.0489
     12  CD        31.9950   45.6080    8.5800 C.3   213  ARG213      0.2205
     13  NE        32.1280   45.9550    7.1640 N.pl3 213  ARG213     -0.0865
     14  CZ        32.3050   47.1820    6.6560 C.cat 213  ARG213      0.5346
     15  NH1       32.4090   48.2740    7.4210 N.pl3 213  ARG213      0.1354
     16  NH2       32.3830   47.3220    5.3410 N.pl3 213  ARG213      0.1354
     17  N         42.2030   47.2110    8.7150 N.3   234  ASP234     -0.1225
     18  CA        41.0940   48.1150    8.5050 C.3   234  ASP234      0.1805
     19  C         41.5910   49.2660    7.6460 C.2   234  ASP234      0.2598
     20  O         42.7050   49.7390    7.8280 O.2   234  ASP234     -0.2718
     21  CB        40.5660   48.6380    9.8400 C.3   234  ASP234      0.1424
     22  CG        39.8630   47.5710   10.6740 C.2   234  ASP234      0.3668
     23  OD1       39.5660   46.4610   10.1630 O.co2 234  ASP234     -0.2456
     24  OD2       39.5760   47.8580   11.8470 O.co2 234  ASP234     -0.2456
     25  N         40.7380   49.7410    6.7480 N.am  235  PHE235     -0.1962
     26  CA        41.1530   50.7090    5.7110 C.3   235  PHE235      0.1771
     27  C         41.2140   52.1520    6.2220 C.2   235  PHE235      0.2620
     28  O         42.0540   52.9270    5.7860 O.2   235  PHE235     -0.2715
     29  CB        40.2130   50.6180    4.5110 C.3   235  PHE235      0.0574
     30  CG        40.6730   51.4040    3.3100 C.ar  235  PHE235     -0.0200
     31  CD1       41.6620   50.8900    2.4670 C.ar  235  PHE235     -0.0042
     32  CD2       40.1220   52.6500    3.0240 C.ar  235  PHE235     -0.0042
     33  CE1       42.0780   51.5950    1.3500 C.ar  235  PHE235     -0.0003
     34  CE2       40.5540   53.3690    1.9290 C.ar  235  PHE235     -0.0003
     35  CZ        41.5440   52.8460    1.0930 C.ar  235  PHE235     -0.0000
     36  N         40.2970   52.5130    7.1180 N.am  236  GLY236     -0.1940
     37  CA        40.0520   53.9010    7.4720 C.3   236  GLY236      0.2014
     38  C         40.7150   54.4270    8.7330 C.2   236  GLY236      0.2639
     39  O         41.9270   54.3190    8.8920 O.2   236  GLY236     -0.2714
     40  N         39.9340   55.0500    9.6100 N.am  237  GLY237     -0.1939
     41  CA        40.5120   55.7930   10.7180 C.3   237  GLY237      0.2014
     42  C         40.6430   55.0110   12.0130 C.2   237  GLY237      0.2639
     43  O         41.7090   54.4880   12.3240 O.2   237  GLY237     -0.2714
     44  N         39.5590   54.9830   12.7800 N.am  238  LEU238     -0.1963
     45  CA        39.5450   54.3210   14.0700 C.3   238  LEU238      0.1728
     46  C         38.3470   53.3960   14.1410 C.2   238  LEU238      0.2616
     47  O         37.2010   53.8440   13.9750 O.2   238  LEU238     -0.2715
     48  CB        39.4560   55.3610   15.1660 C.3   238  LEU238      0.0311
     49  CG        40.1530   55.1960   16.5060 C.3   238  LEU238      0.0022
     50  CD1       41.6490   54.9290   16.3700 C.3   238  LEU238      0.0001
     51  CD2       39.9040   56.4910   17.2930 C.3   238  LEU238      0.0001
     52  N         38.6210   52.1280   14.4450 N.am  239  THR239     -0.1951
     53  CA        37.5860   51.1460   14.7020 C.3   239  THR239      0.1897
     54  C         37.4030   50.8940   16.2050 C.2   239  THR239      0.2313
     55  O         38.3960   50.7440   16.9360 O.2   239  THR239     -0.2863
     56  CB        37.9240   49.8270   14.0080 C.3   239  THR239      0.1794
     57  OG1       38.2520   50.0830   12.6380 O.3   239  THR239     -0.2208
     58  CG2       36.7420   48.8780   14.0860 C.3   239  THR239      0.0378
     59  N         43.4120   52.2160   11.7030 N.3   273  GLY273     -0.1225
     60  CA        43.2850   51.8440   10.3050 C.3   273  GLY273      0.1811
     61  C         44.3530   52.4440    9.3800 C.2   273  GLY273      0.2280
     62  O         45.1400   53.3050    9.7590 O.2   273  GLY273     -0.2866
     63  N         33.0910   51.9760   12.7830 N.3   305  PHE305     -0.1227
     64  CA        34.2190   52.4800   12.0210 C.3   305  PHE305      0.1736
     65  C         34.1060   53.9900   11.8540 C.2   305  PHE305      0.2595
     66  O         33.0380   54.4710   11.4900 O.2   305  PHE305     -0.2718
     67  CB        34.2080   51.8210   10.6540 C.3   305  PHE305      0.0547
     68  CG        34.2650   50.3370   10.7160 C.ar  305  PHE305     -0.0202
     69  CD1       35.4770   49.6820   10.7630 C.ar  305  PHE305     -0.0042
     70  CD2       33.1130   49.5890   10.7550 C.ar  305  PHE305     -0.0042
     71  CE1       35.5500   48.3030   10.8560 C.ar  305  PHE305     -0.0003
     72  CE2       33.1680   48.2020   10.8540 C.ar  305  PHE305     -0.0003
     73  CZ        34.3900   47.5640   10.8960 C.ar  305  PHE305     -0.0000
     74  N         35.1850   54.7200   12.1340 N.am  306  HIS306     -0.1961
     75  CA        35.2030   56.1940   12.0650 C.3   306  HIS306      0.1787
     76  C         36.2380   56.5730   11.0310 C.2   306  HIS306      0.2620
     77  O         37.4380   56.3900   11.2550 O.2   306  HIS306     -0.2715
     78  CB        35.5130   56.7890   13.4450 C.3   306  HIS306      0.0785
     79  CG        34.5390   56.3580   14.4850 C.ar  306  HIS306      0.0821
     80  ND1       34.6780   55.1740   15.1730 N.ar  306  HIS306     -0.2267
     81  CD2       33.3510   56.8810   14.8670 C.ar  306  HIS306      0.1154
     82  CE1       33.6350   55.0090   15.9700 C.ar  306  HIS306      0.1986
     83  NE2       32.8200   56.0360   15.8080 N.ar  306  HIS306     -0.2212
     84  N         35.7540   57.0730    9.8870 N.am  307  ASP307     -0.1971
     85  CA        36.5580   57.2940    8.7090 C.3   307  ASP307      0.1709
     86  C         36.4850   58.7710    8.2880 C.2   307  ASP307      0.2293
     87  O         35.6710   59.5210    8.8220 O.2   307  ASP307     -0.2864
     88  CB        36.0570   56.3790    7.5970 C.3   307  ASP307      0.1436
     89  CG        36.2490   54.9090    7.9340 C.2   307  ASP307      0.3671
     90  OD1       37.1700   54.6060    8.7070 O.co2 307  ASP307     -0.2456
     91  OD2       35.4690   54.0770    7.4660 O.co2 307  ASP307     -0.2456
     92  N         39.8080   60.7530    0.2060 N.3   335  TYR335     -0.1241
     93  CA        39.4580   59.4550    0.8200 C.3   335  TYR335      0.1605
     94  C         38.5700   58.6230   -0.0860 C.2   335  TYR335      0.2264
     95  O         38.7970   57.4260   -0.2380 O.2   335  TYR335     -0.2867
     96  CB        38.7650   59.6480    2.1760 C.3   335  TYR335      0.0534
     97  CG        38.3670   58.3400    2.8180 C.ar  335  TYR335     -0.0201
     98  CD1       39.3370   57.4220    3.2090 C.ar  335  TYR335     -0.0009
     99  CD2       37.0240   58.0000    3.0330 C.ar  335  TYR335     -0.0009
    100  CE1       38.9900   56.2140    3.7950 C.ar  335  TYR335      0.0417
    101  CE2       36.6740   56.7800    3.6160 C.ar  335  TYR335      0.0417
    102  CZ        37.6750   55.8980    3.9890 C.ar  335  TYR335      0.1957
    103  OH        37.3960   54.6760    4.5720 O.3   335  TYR335     -0.2866
@<TRIPOS>BOND
     1    95    94    2
     2    94    93    1
     3    92    93    1
     4    93    96    1
     5    35    33   ar
     6    35    34   ar
     7    33    31   ar
     8    34    32   ar
     9    96    97    1
    10    31    30   ar
    11    97    99   ar
    12    97    98   ar
    13    32    30   ar
    14    99   101   ar
    15    98   100   ar
    16    30    29    1
    17   101   102   ar
    18   100   102   ar
    19   102   103    1
    20    29    26    1
    21    16    14    1
    22    26    27    1
    23    26    25    1
    24    28    27    2
    25    27    36   am
    26    14    13    2
    27    14    15    1
    28    25    19   am
    29    36    37    1
    30    13    12    1
    31    91    89   ar
    32    37    38    1
    33    88    89    1
    34    88    85    1
    35    19    20    2
    36    19    18    1
    37    89    90   ar
    38    86    85    1
    39    86    87    2
    40    18    17    1
    41    18    21    1
    42     5     2    1
    43    12    11    1
    44    85    84    1
    45    38    39    2
    46    38    40   am
    47    11    10    1
    48    61    62    2
    49    61    60    1
    50    40    41    1
    51    21    22    1
    52     2     1    1
    53     2     3    1
    54    84    76   am
    55    23    22   ar
    56    60    59    1
    57    10     7    1
    58    67    68    1
    59    67    64    1
    60    22    24   ar
    61    68    70   ar
    62    68    69   ar
    63    41    42    1
    64    70    72   ar
    65    69    71   ar
    66    72    73   ar
    67    71    73   ar
    68     3     4    2
    69    76    77    2
    70    76    75    1
    71     7     6    1
    72     7     8    1
    73    66    65    2
    74    65    64    1
    75    65    74   am
    76    42    43    2
    77    42    44   am
    78    64    63    1
    79    75    74    1
    80    75    78    1
    81     8     9    2
    82    57    56    1
    83    44    45    1
    84    78    79    1
    85    47    46    2
    86    56    58    1
    87    56    53    1
    88    45    46    1
    89    45    48    1
    90    46    52   am
    91    52    53    1
    92    79    81   ar
    93    79    80   ar
    94    53    54    1
    95    81    83   ar
    96    48    49    1
    97    80    82   ar
    98    83    82   ar
    99    54    55    2
   100    50    49    1
   101    49    51    1
