@<TRIPOS>MOLECULE
tmp/5o80F00.pdb
 155 150 0 0 0
SMALL
GASTEIGER

@<TRIPOS>ATOM
      1  N        -56.4710  -63.8880  -99.0680 N.3    24  PHE24      -0.1241
      2  CA       -57.1350  -63.4290  -97.8590 C.3    24  PHE24       0.1605
      3  C        -58.6360  -63.4910  -98.1080 C.2    24  PHE24       0.2264
      4  O        -59.0990  -63.1210  -99.1870 O.2    24  PHE24      -0.2867
      5  CB       -56.6340  -62.0070  -97.5650 C.3    24  PHE24       0.0534
      6  CG       -57.2750  -61.3110  -96.3910 C.ar   24  PHE24      -0.0203
      7  CD1      -57.9240  -62.0030  -95.3900 C.ar   24  PHE24      -0.0042
      8  CD2      -57.1780  -59.9270  -96.2890 C.ar   24  PHE24      -0.0042
      9  CE1      -58.4900  -61.3240  -94.3300 C.ar   24  PHE24      -0.0003
     10  CE2      -57.7450  -59.2470  -95.2420 C.ar   24  PHE24      -0.0003
     11  CZ       -58.4000  -59.9430  -94.2580 C.ar   24  PHE24      -0.0000
     12  N        -62.1280  -62.4530  -95.9260 N.3    26  GLU26      -0.1245
     13  CA       -62.7740  -61.9100  -94.7410 C.3    26  GLU26       0.1567
     14  C        -64.2790  -62.1420  -94.8260 C.2    26  GLU26       0.2260
     15  O        -64.8640  -62.0700  -95.9130 O.2    26  GLU26      -0.2867
     16  CB       -62.4790  -60.4160  -94.6090 C.3    26  GLU26       0.0388
     17  CG       -62.8000  -59.8500  -93.2590 C.3    26  GLU26       0.1160
     18  CD       -62.3840  -58.3890  -93.1130 C.2    26  GLU26       0.3649
     19  OE1      -61.5620  -57.8820  -93.9290 O.co2  26  GLU26      -0.2457
     20  OE2      -62.8890  -57.7450  -92.1680 O.co2  26  GLU26      -0.2457
     21  N        -66.7620  -60.4950  -95.1050 N.3    28  LEU28      -0.1245
     22  CA       -66.8900  -59.1060  -95.5310 C.3    28  LEU28       0.1561
     23  C        -67.6470  -59.0850  -96.8470 C.2    28  LEU28       0.2260
     24  O        -67.2190  -59.7260  -97.8150 O.2    28  LEU28      -0.2867
     25  CB       -65.5220  -58.4540  -95.7060 C.3    28  LEU28       0.0270
     26  CG       -65.3600  -56.9360  -95.6530 C.3    28  LEU28       0.0019
     27  CD1      -63.8920  -56.6330  -95.9760 C.3    28  LEU28       0.0001
     28  CD2      -66.2860  -56.2020  -96.5910 C.3    28  LEU28       0.0001
     29  N        -58.3760  -59.2660  -90.9890 N.3    70  GLY70      -0.1210
     30  CA       -59.4610  -58.3460  -91.3050 C.3    70  GLY70       0.1956
     31  C        -60.0880  -57.6960  -90.0910 C.2    70  GLY70       0.2611
     32  O        -60.0850  -58.2870  -89.0080 O.2    70  GLY70      -0.2717
     33  N        -60.6160  -56.4770  -90.2660 N.am   71  ASN71      -0.1974
     34  CA       -61.3150  -55.7940  -89.1700 C.3    71  ASN71       0.1688
     35  C        -62.3710  -56.6870  -88.5170 C.2    71  ASN71       0.2292
     36  O        -62.6440  -56.5670  -87.3190 O.2    71  ASN71      -0.2864
     37  CB       -61.9680  -54.4990  -89.6790 C.3    71  ASN71       0.1181
     38  CG       -60.9770  -53.5620  -90.3900 C.2    71  ASN71       0.2629
     39  OD1      -59.8020  -53.4760  -90.0320 O.2    71  ASN71      -0.2716
     40  ND2      -61.4640  -52.8480  -91.3990 N.am   71  ASN71      -0.0877
     41  N        -68.1650  -53.8110  -90.4870 N.3    96  TRP96      -0.1241
     42  CA       -68.7790  -53.5130  -91.7700 C.3    96  TRP96       0.1605
     43  C        -70.2950  -53.3670  -91.6730 C.2    96  TRP96       0.2264
     44  O        -70.9980  -53.5350  -92.6770 O.2    96  TRP96      -0.2867
     45  CB       -68.3730  -54.5980  -92.7600 C.3    96  TRP96       0.0550
     46  CG       -66.8810  -54.7820  -92.7300 C.ar   96  TRP96       0.0003
     47  CD1      -66.1860  -55.7380  -92.0580 C.ar   96  TRP96       0.0946
     48  CD2      -65.9090  -53.9430  -93.3560 C.ar   96  TRP96       0.0152
     49  NE1      -64.8420  -55.5640  -92.2460 N.ar   96  TRP96      -0.2442
     50  CE2      -64.6450  -54.4650  -93.0390 C.ar   96  TRP96       0.0810
     51  CE3      -65.9870  -52.8100  -94.1690 C.ar   96  TRP96       0.0012
     52  CZ2      -63.4720  -53.8970  -93.5010 C.ar   96  TRP96       0.0191
     53  CZ3      -64.8220  -52.2420  -94.6190 C.ar   96  TRP96       0.0001
     54  CH2      -63.5790  -52.7870  -94.2850 C.ar   96  TRP96       0.0015
     55  N        -55.7360  -58.0740  -85.4930 N.3   171  ASN171     -0.1225
     56  CA       -55.7810  -57.3030  -86.7150 C.3   171  ASN171      0.1785
     57  C        -55.2070  -55.9270  -86.4500 C.2   171  ASN171      0.2597
     58  O        -55.0350  -55.5280  -85.3060 O.2   171  ASN171     -0.2718
     59  CB       -57.2080  -57.2020  -87.2310 C.3   171  ASN171      0.1169
     60  CG       -57.2600  -56.8620  -88.6770 C.2   171  ASN171      0.2627
     61  OD1      -56.6890  -57.5600  -89.5000 O.2   171  ASN171     -0.2716
     62  ND2      -57.9340  -55.7740  -89.0050 N.am  171  ASN171     -0.0877
     63  N        -54.9060  -55.2040  -87.5270 N.am  172  GLU172     -0.1979
     64  CA       -54.3420  -53.8660  -87.3990 C.3   172  GLU172      0.1602
     65  C        -55.2010  -52.9950  -86.5020 C.2   172  GLU172      0.2287
     66  O        -56.1640  -52.3670  -86.9530 O.2   172  GLU172     -0.2864
     67  CB       -54.1920  -53.2090  -88.7640 C.3   172  GLU172      0.0415
     68  CG       -53.4200  -54.0350  -89.7460 C.3   172  GLU172      0.1163
     69  CD       -52.2610  -54.8050  -89.1290 C.2   172  GLU172      0.3649
     70  OE1      -52.4820  -55.9170  -88.6060 O.co2 172  GLU172     -0.2457
     71  OE2      -51.1180  -54.3050  -89.1940 O.co2 172  GLU172     -0.2457
     72  N        -60.8100  -46.7320  -86.8020 N.3   177  TRP177     -0.1241
     73  CA       -61.9510  -47.4650  -87.3390 C.3   177  TRP177      0.1605
     74  C        -62.1350  -48.8190  -86.6790 C.2   177  TRP177      0.2264
     75  O        -63.2210  -49.4040  -86.7900 O.2   177  TRP177     -0.2867
     76  CB       -61.7840  -47.6900  -88.8410 C.3   177  TRP177      0.0550
     77  CG       -60.4380  -48.3010  -89.2220 C.ar  177  TRP177      0.0003
     78  CD1      -60.1630  -49.6290  -89.4650 C.ar  177  TRP177      0.0946
     79  CD2      -59.1960  -47.6000  -89.4010 C.ar  177  TRP177      0.0152
     80  NE1      -58.8230  -49.7910  -89.7740 N.ar  177  TRP177     -0.2442
     81  CE2      -58.2130  -48.5620  -89.7430 C.ar  177  TRP177      0.0810
     82  CE3      -58.8180  -46.2560  -89.2980 C.ar  177  TRP177      0.0012
     83  CZ2      -56.8820  -48.2140  -89.9880 C.ar  177  TRP177      0.0191
     84  CZ3      -57.4950  -45.9180  -89.5380 C.ar  177  TRP177      0.0001
     85  CH2      -56.5450  -46.8910  -89.8830 C.ar  177  TRP177      0.0015
     86  N        -49.0950  -53.5890  -94.5260 N.3   241  HIS241     -0.1241
     87  CA       -50.2690  -53.3520  -95.3550 C.3   241  HIS241      0.1621
     88  C        -50.0030  -52.2140  -96.3420 C.2   241  HIS241      0.2264
     89  O        -49.3950  -51.1940  -95.9940 O.2   241  HIS241     -0.2867
     90  CB       -51.4780  -53.0050  -94.4990 C.3   241  HIS241      0.0745
     91  CG       -51.9220  -54.1010  -93.5870 C.ar  241  HIS241      0.0817
     92  ND1      -53.2530  -54.3800  -93.3700 N.ar  241  HIS241     -0.2268
     93  CD2      -51.2240  -54.9620  -92.8100 C.ar  241  HIS241      0.1154
     94  CE1      -53.3560  -55.3920  -92.5270 C.ar  241  HIS241      0.1986
     95  NE2      -52.1400  -55.7620  -92.1710 N.ar  241  HIS241     -0.2212
     96  N        -52.1950  -50.3450  -99.7790 N.3   243  TYR243     -0.1241
     97  CA       -53.1990  -50.2410 -100.8210 C.3   243  TYR243      0.1605
     98  C        -52.9130  -48.9930 -101.6520 C.2   243  TYR243      0.2264
     99  O        -52.3950  -47.9950 -101.1360 O.2   243  TYR243     -0.2867
    100  CB       -54.5910  -50.1830 -100.2160 C.3   243  TYR243      0.0534
    101  CG       -55.0690  -51.4690  -99.5630 C.ar  243  TYR243     -0.0201
    102  CD1      -55.2090  -52.6350 -100.3050 C.ar  243  TYR243     -0.0009
    103  CD2      -55.4190  -51.5080  -98.2050 C.ar  243  TYR243     -0.0009
    104  CE1      -55.6760  -53.8120  -99.7150 C.ar  243  TYR243      0.0417
    105  CE2      -55.8940  -52.6770  -97.6060 C.ar  243  TYR243      0.0417
    106  CZ       -56.0170  -53.8300  -98.3690 C.ar  243  TYR243      0.1957
    107  OH       -56.4700  -55.0110  -97.8090 O.3   243  TYR243     -0.2866
    108  N        -51.7090  -57.9030  -96.4520 N.3   291  GLU291     -0.1245
    109  CA       -52.7520  -57.1210  -97.1170 C.3   291  GLU291      0.1567
    110  C        -52.0790  -56.2290  -98.1550 C.2   291  GLU291      0.2260
    111  O        -51.3810  -55.2740  -97.8010 O.2   291  GLU291     -0.2867
    112  CB       -53.5570  -56.2940  -96.1170 C.3   291  GLU291      0.0388
    113  CG       -54.6930  -57.0460  -95.4830 C.3   291  GLU291      0.1160
    114  CD       -55.5800  -56.1610  -94.6570 C.2   291  GLU291      0.3649
    115  OE1      -55.8040  -54.9980  -95.0770 O.co2 291  GLU291     -0.2457
    116  OE2      -56.0320  -56.6260  -93.5780 O.co2 291  GLU291     -0.2457
    117  N        -56.9590  -50.5320 -104.5500 N.3   295  TRP295     -0.1241
    118  CA       -58.2550  -50.3740 -103.8830 C.3   295  TRP295      0.1605
    119  C        -58.6620  -48.9050 -103.9370 C.2   295  TRP295      0.2264
    120  O        -58.1040  -48.0880 -103.1990 O.2   295  TRP295     -0.2867
    121  CB       -58.1580  -50.8750 -102.4380 C.3   295  TRP295      0.0550
    122  CG       -59.4190  -50.7240 -101.5870 C.ar  295  TRP295      0.0003
    123  CD1      -60.6780  -50.4900 -102.0300 C.ar  295  TRP295      0.0946
    124  CD2      -59.5140  -50.8190 -100.1500 C.ar  295  TRP295      0.0152
    125  NE1      -61.5520  -50.4230 -100.9720 N.ar  295  TRP295     -0.2442
    126  CE2      -60.8650  -50.6250  -99.8080 C.ar  295  TRP295      0.0810
    127  CE3      -58.5880  -51.0530  -99.1250 C.ar  295  TRP295      0.0012
    128  CZ2      -61.3180  -50.6580  -98.4900 C.ar  295  TRP295      0.0191
    129  CZ3      -59.0400  -51.0810  -97.8100 C.ar  295  TRP295      0.0001
    130  CH2      -60.3900  -50.8840  -97.5070 C.ar  295  TRP295      0.0015
    131  N        -66.9260  -53.2590 -101.0750 N.3   318  LEU318     -0.1245
    132  CA       -65.5400  -53.3110 -101.5430 C.3   318  LEU318      0.1561
    133  C        -65.3920  -53.9070 -102.9420 C.2   318  LEU318      0.2260
    134  O        -64.3170  -54.4020 -103.2990 O.2   318  LEU318     -0.2867
    135  CB       -64.6670  -54.0890 -100.5560 C.3   318  LEU318      0.0270
    136  CG       -64.0410  -53.2190  -99.4760 C.3   318  LEU318      0.0019
    137  CD1      -65.0250  -52.9080  -98.3720 C.3   318  LEU318      0.0001
    138  CD2      -62.8690  -53.9540  -98.9370 C.3   318  LEU318      0.0001
    139  N        -58.4620  -58.8500 -101.6750 N.3   351  GLN351     -0.1245
    140  CA       -58.7620  -60.1670 -101.1110 C.3   351  GLN351      0.1566
    141  C        -59.0600  -61.1640 -102.2260 C.2   351  GLN351      0.2260
    142  O        -59.0090  -60.8150 -103.4040 O.2   351  GLN351     -0.2867
    143  CB       -59.9500  -60.1050 -100.1440 C.3   351  GLN351      0.0367
    144  CG       -59.9370  -58.9410  -99.1360 C.3   351  GLN351      0.0905
    145  CD       -60.7590  -59.2630  -97.9140 C.2   351  GLN351      0.2608
    146  OE1      -61.3240  -60.3580  -97.8010 O.2   351  GLN351     -0.2717
    147  NE2      -60.8300  -58.3240  -96.9850 N.am  351  GLN351     -0.0878
    148  N        -62.5410  -56.5600 -103.2180 N.3   356  ILE356     -0.1245
    149  CA       -61.3410  -56.0830 -103.9090 C.3   356  ILE356      0.1561
    150  C        -60.5010  -57.2400 -104.4550 C.2   356  ILE356      0.2260
    151  O        -59.3350  -57.4110 -104.0830 O.2   356  ILE356     -0.2867
    152  CB       -60.5170  -55.1490 -102.9970 C.3   356  ILE356      0.0252
    153  CG1      -60.2650  -55.7330 -101.5980 C.3   356  ILE356      0.0019
    154  CG2      -61.2410  -53.8650 -102.8430 C.3   356  ILE356      0.0019
    155  CD1      -59.3070  -54.8920 -100.7220 C.3   356  ILE356      0.0001
@<TRIPOS>BOND
     1   117   118    1
     2   150   151    2
     3   150   149    1
     4   119   118    1
     5   119   120    2
     6   149   148    1
     7   149   152    1
     8   118   121    1
     9   142   141    2
    10   134   133    2
    11   152   154    1
    12   152   153    1
    13   133   132    1
    14   121   122    1
    15   141   140    1
    16   123   122   ar
    17   123   125   ar
    18   139   140    1
    19    98    99    2
    20    98    97    1
    21   153   155    1
    22   122   124   ar
    23   132   131    1
    24   132   135    1
    25   140   143    1
    26   125   126   ar
    27    97   100    1
    28    97    96    1
    29   135   136    1
    30   102   104   ar
    31   102   101   ar
    32   100   101    1
    33   124   126   ar
    34   124   127   ar
    35   143   144    1
    36   126   128   ar
    37   104   106   ar
    38   101   103   ar
    39   136   138    1
    40   136   137    1
    41     4     3    2
    42   144   145    1
    43   127   129   ar
    44     1     2    1
    45   128   130   ar
    46   106   107    1
    47   106   105   ar
    48   103   105   ar
    49   110   111    2
    50   110   109    1
    51     3     2    1
    52   145   146    2
    53   145   147   am
    54     2     5    1
    55    24    23    2
    56   129   130   ar
    57     5     6    1
    58   109   108    1
    59   109   112    1
    60    23    22    1
    61    28    26    1
    62     6     8   ar
    63     6     7   ar
    64    88    89    2
    65    88    87    1
    66     8    10   ar
    67   112   113    1
    68    27    26    1
    69    12    13    1
    70    15    14    2
    71    25    26    1
    72    25    22    1
    73    22    21    1
    74   113   114    1
    75     7     9   ar
    76    87    86    1
    77    87    90    1
    78    10    11   ar
    79   115   114   ar
    80    14    13    1
    81    13    16    1
    82   114   116   ar
    83    53    54   ar
    84    53    51   ar
    85    16    17    1
    86    90    91    1
    87     9    11   ar
    88    54    52   ar
    89    51    48   ar
    90    19    18   ar
    91    91    92   ar
    92    91    93   ar
    93    52    50   ar
    94    92    94   ar
    95    48    50   ar
    96    48    46   ar
    97    17    18    1
    98    18    20   ar
    99    50    49   ar
   100    93    95   ar
   101    45    46    1
   102    45    42    1
   103    46    47   ar
   104    44    43    2
   105    94    95   ar
   106    49    47   ar
   107    42    43    1
   108    42    41    1
   109    40    38   am
   110    30    29    1
   111    30    31    1
   112    38    39    2
   113    38    37    1
   114    33    31   am
   115    33    34    1
   116    31    32    2
   117    83    85   ar
   118    83    81   ar
   119    85    84   ar
   120    80    81   ar
   121    80    78   ar
   122    68    69    1
   123    68    67    1
   124    81    79   ar
   125    37    34    1
   126    84    82   ar
   127    61    60    2
   128    78    77   ar
   129    79    82   ar
   130    79    77   ar
   131    77    76    1
   132    71    69   ar
   133    34    35    1
   134    69    70   ar
   135    62    60   am
   136    76    73    1
   137    67    64    1
   138    60    59    1
   139    35    36    2
   140    63    64    1
   141    63    57   am
   142    64    65    1
   143    73    72    1
   144    73    74    1
   145    59    56    1
   146    66    65    2
   147    75    74    2
   148    56    57    1
   149    56    55    1
   150    57    58    2
