@<TRIPOS>MOLECULE
tmp/5o83A00.pdb
 221 210 0 0 0
SMALL
GASTEIGER

@<TRIPOS>ATOM
      1  N          1.3310  -40.1690   -8.2950 N.3   493  LYS493     -0.1245
      2  CA         1.1550  -38.9620   -9.1250 C.3   493  LYS493      0.1561
      3  C         -0.2400  -38.3170   -8.9490 C.2   493  LYS493      0.2260
      4  O         -0.2680  -37.1240   -8.6370 O.2   493  LYS493     -0.2867
      5  CB         1.4980  -39.1850  -10.6120 C.3   493  LYS493      0.0271
      6  CG         1.4660  -37.8950  -11.4290 C.3   493  LYS493      0.0035
      7  CD         1.9670  -38.0720  -12.8430 C.3   493  LYS493      0.0206
      8  CE         2.0130  -36.7560  -13.5710 C.3   493  LYS493      0.1093
      9  NZ         2.5450  -36.9080  -14.9490 N.3   493  LYS493     -0.1314
     10  N         -0.6130  -29.9480  -14.4890 N.3   535  THR535     -0.1203
     11  CA         0.0290  -31.1650  -13.9770 C.3   535  THR535      0.1994
     12  C          1.5560  -30.9750  -14.0090 C.2   535  THR535      0.2618
     13  O          2.0310  -29.8440  -14.1320 O.2   535  THR535     -0.2717
     14  CB        -0.4930  -32.4270  -14.7440 C.3   535  THR535      0.1784
     15  OG1        0.0260  -33.6200  -14.1550 O.3   535  THR535     -0.2211
     16  CG2       -0.2060  -32.3890  -16.2510 C.3   535  THR535      0.0376
     17  N          2.3100  -32.0670  -13.8710 N.am  536  PHE536     -0.1961
     18  CA         3.7640  -32.0650  -13.9540 C.3   536  PHE536      0.1771
     19  C          4.2210  -33.2450  -14.7900 C.2   536  PHE536      0.2619
     20  O          3.5480  -34.2710  -14.8420 O.2   536  PHE536     -0.2715
     21  CB         4.4390  -32.0380  -12.5740 C.3   536  PHE536      0.0574
     22  CG         4.2610  -33.2710  -11.7200 C.ar  536  PHE536     -0.0200
     23  CD1        5.2680  -34.2270  -11.6300 C.ar  536  PHE536     -0.0042
     24  CD2        3.1090  -33.4510  -10.9590 C.ar  536  PHE536     -0.0042
     25  CE1        5.1110  -35.3560  -10.8230 C.ar  536  PHE536     -0.0003
     26  CE2        2.9470  -34.5880  -10.1660 C.ar  536  PHE536     -0.0003
     27  CZ         3.9480  -35.5320  -10.1050 C.ar  536  PHE536     -0.0000
     28  N          5.3430  -33.0810  -15.4660 N.am  537  MET537     -0.1963
     29  CA         5.9310  -34.0810  -16.3390 C.3   537  MET537      0.1736
     30  C          6.8230  -35.0330  -15.5470 C.2   537  MET537      0.2616
     31  O          7.3200  -34.6830  -14.4730 O.2   537  MET537     -0.2715
     32  CB         6.6180  -33.3990  -17.5280 C.3   537  MET537      0.0427
     33  CG         5.6280  -32.6170  -18.3670 C.3   537  MET537      0.0599
     34  SD         6.3040  -31.2300  -19.2780 S.3   537  MET537     -0.1393
     35  CE         6.9310  -32.0760  -20.7520 C.3   537  MET537      0.0692
     36  N          6.9700  -36.2590  -16.0480 N.am  538  ASP538     -0.1957
     37  CA         7.6700  -37.3400  -15.3600 C.3   538  ASP538      0.1840
     38  C          9.2200  -37.3190  -15.4900 C.2   538  ASP538      0.2622
     39  O          9.8780  -38.1540  -14.8600 O.2   538  ASP538     -0.2715
     40  CB         7.0700  -38.6850  -15.7850 C.3   538  ASP538      0.1450
     41  CG         5.5910  -38.7680  -15.4230 C.2   538  ASP538      0.3671
     42  OD1        5.2760  -38.8410  -14.2120 O.co2 538  ASP538     -0.2456
     43  OD2        4.7490  -38.6650  -16.3400 O.co2 538  ASP538     -0.2456
     44  N          9.7970  -36.3060  -16.1940 N.am  539  SER539     -0.1950
     45  CA        11.2500  -36.0920  -16.3390 C.3   539  SER539      0.1924
     46  C         11.8940  -35.8370  -14.9510 C.2   539  SER539      0.2314
     47  O         11.1880  -35.4630  -14.0070 O.2   539  SER539     -0.2863
     48  CB        11.5280  -34.9290  -17.2870 C.3   539  SER539      0.2116
     49  OG        12.8970  -34.7460  -17.5620 O.3   539  SER539     -0.2180
     50  N          9.2240  -31.2050  -14.5490 N.3   543  PRO543     -0.2116
     51  CA         8.7720  -29.9270  -15.1440 C.3   543  PRO543      0.1372
     52  C          7.2660  -29.7060  -15.0200 C.2   543  PRO543      0.2244
     53  O          6.5300  -30.6790  -14.9880 O.2   543  PRO543     -0.2868
     54  CB         9.2290  -30.0310  -16.6050 C.3   543  PRO543      0.0268
     55  CG        10.2730  -31.0940  -16.6040 C.3   543  PRO543      0.0207
     56  CD         9.8390  -32.0690  -15.5740 C.3   543  PRO543      0.0892
     57  N          3.4660  -28.4540  -16.1570 N.3   545  TRP545     -0.1241
     58  CA         2.5870  -28.2780  -17.3060 C.3   545  TRP545      0.1605
     59  C          1.4750  -27.3470  -16.8350 C.2   545  TRP545      0.2264
     60  O          0.6200  -27.7630  -16.0480 O.2   545  TRP545     -0.2867
     61  CB         2.0190  -29.6380  -17.6860 C.3   545  TRP545      0.0550
     62  CG         1.2010  -29.6730  -18.9330 C.ar  545  TRP545      0.0003
     63  CD1       -0.1600  -29.6290  -19.0250 C.ar  545  TRP545      0.0946
     64  CD2        1.6870  -29.9320  -20.2530 C.ar  545  TRP545      0.0152
     65  NE1       -0.5510  -29.8070  -20.3290 N.ar  545  TRP545     -0.2442
     66  CE2        0.5630  -30.0080  -21.1050 C.ar  545  TRP545      0.0810
     67  CE3        2.9690  -30.1160  -20.8020 C.ar  545  TRP545      0.0012
     68  CZ2        0.6840  -30.2400  -22.4810 C.ar  545  TRP545      0.0191
     69  CZ3        3.0830  -30.3390  -22.1650 C.ar  545  TRP545      0.0001
     70  CH2        1.9490  -30.4180  -22.9840 C.ar  545  TRP545      0.0015
     71  N          5.6300  -24.5210  -19.9500 N.3   562  ILE562     -0.1245
     72  CA         6.3410  -25.5550  -19.1880 C.3   562  ILE562      0.1561
     73  C          7.4250  -24.8750  -18.3510 C.2   562  ILE562      0.2260
     74  O          8.2920  -24.1970  -18.8990 O.2   562  ILE562     -0.2867
     75  CB         6.9020  -26.7350  -20.0480 C.3   562  ILE562      0.0252
     76  CG1        5.7750  -27.5270  -20.7560 C.3   562  ILE562      0.0019
     77  CG2        7.7670  -27.6720  -19.1910 C.3   562  ILE562      0.0019
     78  CD1        6.2160  -28.4540  -21.8920 C.3   562  ILE562      0.0001
     79  N         10.6100  -25.3800  -16.0560 N.3   564  LYS564     -0.1245
     80  CA        11.6390  -26.3450  -15.6780 C.3   564  LYS564      0.1561
     81  C         12.7550  -25.6560  -14.9120 C.2   564  LYS564      0.2260
     82  O         13.4190  -24.7610  -15.4370 O.2   564  LYS564     -0.2867
     83  CB        12.1730  -27.1840  -16.8670 C.3   564  LYS564      0.0271
     84  CG        13.3080  -28.1340  -16.4560 C.3   564  LYS564      0.0035
     85  CD        13.6230  -29.2030  -17.4600 C.3   564  LYS564      0.0206
     86  CE        14.7610  -28.8450  -18.3730 C.3   564  LYS564      0.1093
     87  NZ        15.3370  -30.0620  -19.0030 N.3   564  LYS564     -0.1314
     88  N         19.9890  -26.5730  -17.4520 N.3   568  ASP568     -0.1225
     89  CA        20.3800  -25.4980  -18.3580 C.3   568  ASP568      0.1805
     90  C         19.4380  -25.5340  -19.5760 C.2   568  ASP568      0.2597
     91  O         19.2320  -26.6080  -20.1520 O.2   568  ASP568     -0.2718
     92  CB        21.8440  -25.7050  -18.7900 C.3   568  ASP568      0.1424
     93  CG        22.4620  -24.5710  -19.5820 C.2   568  ASP568      0.3668
     94  OD1       22.2890  -23.4000  -19.1760 O.co2 568  ASP568     -0.2456
     95  OD2       23.1800  -24.8590  -20.5700 O.co2 568  ASP568     -0.2456
     96  N         18.8360  -24.3730  -19.9300 N.am  569  LEU569     -0.1979
     97  CA        17.8980  -24.2150  -21.0560 C.3   569  LEU569      0.1596
     98  C         18.5070  -23.3810  -22.1980 C.2   569  LEU569      0.2287
     99  O         17.8430  -23.1190  -23.2100 O.2   569  LEU569     -0.2864
    100  CB        16.5890  -23.5640  -20.5610 C.3   569  LEU569      0.0297
    101  CG        15.4630  -24.5110  -20.1770 C.3   569  LEU569      0.0022
    102  CD1       15.5080  -24.8470  -18.7030 C.3   569  LEU569      0.0001
    103  CD2       14.1430  -23.8970  -20.4660 C.3   569  LEU569      0.0001
    104  N         19.2340  -25.4570  -25.5920 N.3   572  ASP572     -0.1239
    105  CA        17.9210  -25.7400  -26.1680 C.3   572  ASP572      0.1674
    106  C         17.4340  -24.4770  -26.8520 C.2   572  ASP572      0.2266
    107  O         16.9920  -24.5580  -27.9990 O.2   572  ASP572     -0.2867
    108  CB        16.9190  -26.1630  -25.0820 C.3   572  ASP572      0.1410
    109  CG        17.0410  -27.6110  -24.6930 C.2   572  ASP572      0.3668
    110  OD1       16.3680  -28.4460  -25.3260 O.co2 572  ASP572     -0.2456
    111  OD2       17.8310  -27.9150  -23.7620 O.co2 572  ASP572     -0.2456
    112  N          9.3120  -24.1900  -31.5410 N.3   598  TYR598     -0.1241
    113  CA         8.5880  -23.8400  -30.3100 C.3   598  TYR598      0.1605
    114  C          9.4290  -22.9390  -29.3940 C.2   598  TYR598      0.2264
    115  O         10.6600  -22.9400  -29.4730 O.2   598  TYR598     -0.2867
    116  CB         8.1080  -25.1140  -29.5750 C.3   598  TYR598      0.0534
    117  CG         9.2360  -25.9860  -29.0720 C.ar  598  TYR598     -0.0201
    118  CD1        9.8290  -25.7460  -27.8370 C.ar  598  TYR598     -0.0009
    119  CD2        9.7040  -27.0610  -29.8240 C.ar  598  TYR598     -0.0009
    120  CE1       10.8660  -26.5400  -27.3670 C.ar  598  TYR598      0.0417
    121  CE2       10.7460  -27.8650  -29.3620 C.ar  598  TYR598      0.0417
    122  CZ        11.3330  -27.5890  -28.1370 C.ar  598  TYR598      0.1957
    123  OH        12.3800  -28.3240  -27.6490 O.3   598  TYR598     -0.2866
    124  N         11.2940  -21.4320  -26.1580 N.3   600  CYS600     -0.1235
    125  CA        12.1640  -21.8960  -25.0830 C.3   600  CYS600      0.1677
    126  C         12.9680  -20.6980  -24.6530 C.2   600  CYS600      0.2270
    127  O         13.6460  -20.0890  -25.4800 O.2   600  CYS600     -0.2867
    128  CB        13.0620  -23.0440  -25.5310 C.3   600  CYS600      0.0956
    129  SG        14.1470  -23.6800  -24.2300 S.3   600  CYS600     -0.0801
    130  N          9.2280  -23.2060  -21.5140 N.3   610  ILE610     -0.1231
    131  CA         9.1280  -23.9040  -22.7990 C.3   610  ILE610      0.1692
    132  C          7.6570  -23.8060  -23.2510 C.2   610  ILE610      0.2592
    133  O          6.7530  -24.0850  -22.4680 O.2   610  ILE610     -0.2718
    134  CB         9.6280  -25.3790  -22.7430 C.3   610  ILE610      0.0266
    135  CG1       11.0380  -25.5030  -22.1300 C.3   610  ILE610      0.0019
    136  CG2        9.6130  -26.0020  -24.1260 C.3   610  ILE610      0.0020
    137  CD1       11.0920  -26.3070  -20.8160 C.3   610  ILE610      0.0001
    138  N          7.4230  -23.3620  -24.4880 N.am  611  GLU611     -0.1966
    139  CA         6.0860  -23.2160  -25.0590 C.3   611  GLU611      0.1733
    140  C          5.5310  -24.6010  -25.3280 C.2   611  GLU611      0.2616
    141  O          6.2620  -25.4800  -25.7910 O.2   611  GLU611     -0.2715
    142  CB         6.1500  -22.4030  -26.3600 C.3   611  GLU611      0.0429
    143  CG         4.8210  -22.1540  -27.0510 C.3   611  GLU611      0.1163
    144  CD         4.8850  -21.8630  -28.5410 C.2   611  GLU611      0.3649
    145  OE1        5.9930  -21.9210  -29.1270 O.co2 611  GLU611     -0.2457
    146  OE2        3.8090  -21.6170  -29.1350 O.co2 611  GLU611     -0.2457
    147  N          4.2540  -24.7980  -24.9980 N.am  612  VAL612     -0.1963
    148  CA         3.5450  -26.0470  -25.2100 C.3   612  VAL612      0.1727
    149  C          3.0550  -26.0850  -26.6580 C.2   612  VAL612      0.2616
    150  O          2.3770  -25.1540  -27.1180 O.2   612  VAL612     -0.2715
    151  CB         2.3850  -26.2140  -24.1960 C.3   612  VAL612      0.0290
    152  CG1        1.4170  -27.3190  -24.6120 C.3   612  VAL612      0.0023
    153  CG2        2.9160  -26.4560  -22.7920 C.3   612  VAL612      0.0023
    154  N          3.4240  -27.1520  -27.3800 N.am  613  VAL613     -0.1977
    155  CA         2.9360  -27.3550  -28.7340 C.3   613  VAL613      0.1596
    156  C          1.6800  -28.1910  -28.4930 C.2   613  VAL613      0.2287
    157  O          1.7690  -29.3430  -28.0610 O.2   613  VAL613     -0.2864
    158  CB         3.9520  -28.0410  -29.6930 C.3   613  VAL613      0.0276
    159  CG1        3.3100  -28.3370  -31.0530 C.3   613  VAL613      0.0022
    160  CG2        5.2070  -27.1960  -29.8670 C.3   613  VAL613      0.0022
    161  N         -0.0280  -32.3660  -29.8530 N.3   616  SER616     -0.1202
    162  CA         1.1920  -33.0680  -30.2280 C.3   616  SER616      0.2020
    163  C          1.3340  -34.2440  -29.2780 C.2   616  SER616      0.2619
    164  O          0.6360  -34.2950  -28.2590 O.2   616  SER616     -0.2717
    165  CB         2.4100  -32.1430  -30.1830 C.3   616  SER616      0.2103
    166  OG         2.8410  -31.8460  -28.8660 O.3   616  SER616     -0.2182
    167  N          2.1790  -35.2120  -29.6340 N.am  617  ASP617     -0.1959
    168  CA         2.4450  -36.4090  -28.8280 C.3   617  ASP617      0.1840
    169  C          3.8260  -36.9150  -29.2460 C.2   617  ASP617      0.2622
    170  O          4.2560  -36.6200  -30.3620 O.2   617  ASP617     -0.2715
    171  CB         1.3560  -37.4770  -29.0850 C.3   617  ASP617      0.1450
    172  CG         0.9480  -38.3490  -27.9020 C.2   617  ASP617      0.3671
    173  OD1        1.5720  -38.2290  -26.8240 O.co2 617  ASP617     -0.2456
    174  OD2        0.0060  -39.1510  -28.0580 O.co2 617  ASP617     -0.2456
    175  N          4.5420  -37.6200  -28.3560 N.am  618  THR618     -0.1951
    176  CA         5.8650  -38.1610  -28.6950 C.3   618  THR618      0.1897
    177  C          5.6820  -39.3940  -29.5770 C.2   618  THR618      0.2313
    178  O          4.6540  -40.0670  -29.4800 O.2   618  THR618     -0.2863
    179  CB         6.7040  -38.5000  -27.4390 C.3   618  THR618      0.1794
    180  OG1        6.0160  -39.4680  -26.6520 O.3   618  THR618     -0.2208
    181  CG2        7.0470  -37.2770  -26.5940 C.3   618  THR618      0.0378
    182  N          5.0470  -42.4930  -27.5150 N.3   621  ASN621     -0.1240
    183  CA         3.6820  -42.6540  -26.9960 C.3   621  ASN621      0.1653
    184  C          2.7390  -43.2520  -28.0360 C.2   621  ASN621      0.2266
    185  O          1.8850  -44.0720  -27.6910 O.2   621  ASN621     -0.2867
    186  CB         3.1330  -41.3400  -26.4170 C.3   621  ASN621      0.1155
    187  CG         3.5230  -41.0980  -24.9740 C.2   621  ASN621      0.2627
    188  OD1        4.3240  -40.2120  -24.6590 O.2   621  ASN621     -0.2716
    189  ND2        2.9560  -41.8760  -24.0610 N.am  621  ASN621     -0.0877
    190  N         11.4300  -40.7240  -27.7480 N.3   675  ASP675     -0.1239
    191  CA        10.8640  -39.8730  -26.7020 C.3   675  ASP675      0.1674
    192  C         11.1870  -38.3860  -26.8830 C.2   675  ASP675      0.2266
    193  O         10.4720  -37.5420  -26.3330 O.2   675  ASP675     -0.2867
    194  CB        11.2530  -40.3680  -25.2940 C.3   675  ASP675      0.1410
    195  CG        10.4080  -39.7970  -24.1800 C.2   675  ASP675      0.3668
    196  OD1        9.4530  -39.0690  -24.4000 O.co2 675  ASP675     -0.2456
    197  OD2       10.6150  -40.1850  -23.0280 O.co2 675  ASP675     -0.2456
    198  N          8.7140  -35.4660  -31.5190 N.3   678  MET678     -0.1245
    199  CA         7.2730  -35.3280  -31.3940 C.3   678  MET678      0.1570
    200  C          6.5920  -35.1490  -32.7320 C.2   678  MET678      0.2261
    201  O          7.2050  -34.7200  -33.7030 O.2   678  MET678     -0.2867
    202  CB         6.9220  -34.1590  -30.4730 C.3   678  MET678      0.0387
    203  CG         7.3720  -34.3490  -29.0430 C.3   678  MET678      0.0595
    204  SD         6.5380  -33.2090  -27.9300 S.3   678  MET678     -0.1393
    205  CE         5.0650  -34.0440  -27.7070 C.3   678  MET678      0.0692
    206  N         12.5060  -32.2540  -29.5560 N.3   688  ILE688     -0.1231
    207  CA        12.3420  -31.4990  -28.3080 C.3   688  ILE688      0.1692
    208  C         13.6370  -31.3340  -27.4320 C.2   688  ILE688      0.2592
    209  O         14.1130  -30.2070  -27.3490 O.2   688  ILE688     -0.2718
    210  CB        11.1330  -32.0000  -27.4660 C.3   688  ILE688      0.0266
    211  CG1       11.1910  -33.5240  -27.1810 C.3   688  ILE688      0.0019
    212  CG2        9.8280  -31.5990  -28.1690 C.3   688  ILE688      0.0020
    213  CD1       10.1790  -34.0980  -26.2110 C.3   688  ILE688      0.0001
    214  N         14.1640  -32.3660  -26.7370 N.am  689  ASP689     -0.1974
    215  CA        15.3490  -32.1770  -25.8840 C.3   689  ASP689      0.1709
    216  C         16.6530  -31.9990  -26.6730 C.2   689  ASP689      0.2293
    217  O         17.1770  -32.9650  -27.2300 O.2   689  ASP689     -0.2864
    218  CB        15.4740  -33.2970  -24.8400 C.3   689  ASP689      0.1436
    219  CG        14.4450  -33.2030  -23.7320 C.2   689  ASP689      0.3671
    220  OD1       14.6810  -32.4370  -22.7660 O.co2 689  ASP689     -0.2456
    221  OD2       13.4040  -33.9020  -23.8230 O.co2 689  ASP689     -0.2456
@<TRIPOS>BOND
     1   201   200    2
     2   200   199    1
     3   112   113    1
     4   198   199    1
     5   199   202    1
     6   159   158    1
     7   202   203    1
     8   170   169    2
     9   113   116    1
    10   113   114    1
    11   162   165    1
    12   162   161    1
    13   162   163    1
    14   165   166    1
    15   160   158    1
    16   119   121   ar
    17   119   117   ar
    18   158   155    1
    19   167   163   am
    20   167   168    1
    21   177   178    2
    22   177   176    1
    23   116   117    1
    24   206   207    1
    25   115   114    2
    26   121   122   ar
    27   163   164    2
    28   169   168    1
    29   169   175   am
    30   146   144   ar
    31   145   144   ar
    32   171   168    1
    33   171   172    1
    34   117   118   ar
    35   203   204    1
    36   155   156    1
    37   155   154    1
    38   176   175    1
    39   176   179    1
    40   144   143    1
    41   156   157    2
    42   207   210    1
    43   207   208    1
    44   212   210    1
    45   122   123    1
    46   122   120   ar
    47   174   172   ar
    48   184   185    2
    49   184   183    1
    50   107   106    2
    51   204   205    1
    52   172   173   ar
    53   118   120   ar
    54   190   191    1
    55   182   183    1
    56   210   211    1
    57   179   180    1
    58   179   181    1
    59   208   209    2
    60   208   214   am
    61   154   149   am
    62   217   216    2
    63   211   213    1
    64   150   149    2
    65   143   142    1
    66   183   186    1
    67   192   191    1
    68   192   193    2
    69   106   105    1
    70   214   215    1
    71   191   194    1
    72   216   215    1
    73   149   148    1
    74   186   187    1
    75   142   139    1
    76   105   104    1
    77   105   108    1
    78   124   125    1
    79   215   218    1
    80   141   140    2
    81   128   125    1
    82   128   129    1
    83   127   126    2
    84   140   139    1
    85   140   147   am
    86   110   109   ar
    87   194   195    1
    88   148   147    1
    89   148   151    1
    90   125   126    1
    91   108   109    1
    92   139   138    1
    93   187   188    2
    94   187   189   am
    95   218   219    1
    96   109   111   ar
    97   152   151    1
    98   138   132   am
    99   196   195   ar
   100   151   153    1
   101   195   197   ar
   102   136   134    1
   103   221   219   ar
   104   219   220   ar
   105   132   131    1
   106   132   133    2
   107    99    98    2
   108    70    68   ar
   109    70    69   ar
   110   131   134    1
   111   131   130    1
   112   134   135    1
   113    68    66   ar
   114    98    97    1
   115    69    67   ar
   116   135   137    1
   117    78    76    1
   118    66    65   ar
   119    66    64   ar
   120    97   100    1
   121    97    96    1
   122    67    64   ar
   123    76    75    1
   124    35    34    1
   125    95    93   ar
   126   100   101    1
   127   103   101    1
   128    65    63   ar
   129    64    62   ar
   130   101   102    1
   131    91    90    2
   132    75    77    1
   133    75    72    1
   134    71    72    1
   135    96    90   am
   136    93    94   ar
   137    93    92    1
   138    90    89    1
   139    34    33    1
   140    72    73    1
   141    63    62   ar
   142    87    86    1
   143    62    61    1
   144    74    73    2
   145    92    89    1
   146    86    85    1
   147    33    32    1
   148    89    88    1
   149    61    58    1
   150    49    48    1
   151    32    29    1
   152    85    84    1
   153    58    59    1
   154    58    57    1
   155    48    45    1
   156    83    84    1
   157    83    80    1
   158    59    60    2
   159    54    55    1
   160    54    51    1
   161    55    56    1
   162    43    41   ar
   163    29    30    1
   164    29    28    1
   165    45    44    1
   166    45    46    1
   167    16    14    1
   168    44    38   am
   169    79    80    1
   170    36    30   am
   171    36    37    1
   172    40    41    1
   173    40    37    1
   174    80    81    1
   175    56    50    1
   176    30    31    2
   177    38    37    1
   178    38    39    2
   179    28    19   am
   180    82    81    2
   181    41    42   ar
   182    51    52    1
   183    51    50    1
   184    52    53    2
   185    46    47    2
   186     9     8    1
   187    20    19    2
   188    19    18    1
   189    14    15    1
   190    14    11    1
   191    10    11    1
   192    13    12    2
   193    12    11    1
   194    12    17   am
   195    18    17    1
   196    18    21    1
   197     8     7    1
   198     7     6    1
   199    21    22    1
   200    22    23   ar
   201    22    24   ar
   202    23    25   ar
   203     6     5    1
   204    24    26   ar
   205    25    27   ar
   206     5     2    1
   207    26    27   ar
   208     2     3    1
   209     2     1    1
   210     3     4    2
