@<TRIPOS>MOLECULE
tmp/5o8iB00.pdb
 162 159 0 0 0
SMALL
GASTEIGER

@<TRIPOS>ATOM
      1  N        -11.3750   13.9170   15.0910 N.3     8  ILE8       -0.1231
      2  CA       -12.0940   13.8070   16.3430 C.3     8  ILE8        0.1692
      3  C        -11.5980   12.5810   17.1380 C.2     8  ILE8        0.2592
      4  O        -11.6190   12.5710   18.3780 O.2     8  ILE8       -0.2718
      5  CB       -13.6390   13.7810   16.1420 C.3     8  ILE8        0.0266
      6  CG1      -14.3170   13.9000   17.5270 C.3     8  ILE8        0.0019
      7  CG2      -14.0750   12.5490   15.3520 C.3     8  ILE8        0.0020
      8  CD1      -15.7320   14.3070   17.4470 C.3     8  ILE8        0.0001
      9  N        -11.2310   11.5090   16.4390 N.am    9  PHE9       -0.1976
     10  CA       -10.7170   10.3470   17.1840 C.3     9  PHE9        0.1639
     11  C         -9.4330   10.6260   17.8810 C.2     9  PHE9        0.2290
     12  O         -9.1470    9.9760   18.8850 O.2     9  PHE9       -0.2864
     13  CB       -10.6060    9.1460   16.2270 C.3     9  PHE9        0.0560
     14  CG       -11.8780    8.5880   15.7310 C.ar    9  PHE9       -0.0200
     15  CD1      -13.1380    8.9450   16.1940 C.ar    9  PHE9       -0.0042
     16  CD2      -11.8610    7.6120   14.6990 C.ar    9  PHE9       -0.0042
     17  CE1      -14.2620    8.4380   15.6550 C.ar    9  PHE9       -0.0003
     18  CE2      -13.0350    7.1530   14.1380 C.ar    9  PHE9       -0.0003
     19  CZ       -14.2200    7.5570   14.6340 C.ar    9  PHE9       -0.0000
     20  N        -10.3550   11.8110   21.2240 N.3    12  ILE12      -0.1245
     21  CA       -10.8000   10.6480   22.0730 C.3    12  ILE12       0.1561
     22  C         -9.5450    9.9400   22.5550 C.2    12  ILE12       0.2260
     23  O         -9.4380    9.6060   23.7500 O.2    12  ILE12      -0.2867
     24  CB       -11.7990    9.7860   21.3260 C.3    12  ILE12       0.0252
     25  CG1      -13.0730   10.5390   21.0550 C.3    12  ILE12       0.0019
     26  CG2      -12.0390    8.4940   22.0300 C.3    12  ILE12       0.0019
     27  CD1      -13.9930    9.7890   20.2030 C.3    12  ILE12       0.0001
     28  N        -11.7380   14.5940   25.1200 N.3    17  ILE17      -0.1231
     29  CA       -13.1440   14.4820   25.1860 C.3    17  ILE17       0.1678
     30  C        -13.5100   13.0810   25.5640 C.2    17  ILE17       0.2434
     31  O        -12.8240   12.1280   25.1820 O.2    17  ILE17      -0.2733
     32  CB       -13.8060   14.8830   23.9500 C.3    17  ILE17       0.0265
     33  CG1      -13.5470   14.0060   22.8470 C.3    17  ILE17       0.0019
     34  CG2      -13.5680   16.3900   23.5730 C.3    17  ILE17       0.0020
     35  CD1      -14.4220   14.1990   21.6820 C.3    17  ILE17       0.0001
     36  N        -14.6060   12.9270   26.3450 N.am   18  PRO18      -0.2718
     37  CA       -14.9430   11.6420   26.8290 C.3    18  PRO18       0.1535
     38  C        -15.5660   10.7130   25.7960 C.2    18  PRO18       0.2598
     39  O        -16.2350   11.1630   24.8680 O.2    18  PRO18      -0.2715
     40  CB       -15.7700   11.9070   28.0680 C.3    18  PRO18       0.0310
     41  CG       -16.3090   13.2050   27.9130 C.3    18  PRO18       0.0237
     42  CD       -15.4130   14.0070   26.9850 C.3    18  PRO18       0.0939
     43  N        -15.4530    9.4580   26.0420 N.am   19  ALA19      -0.1978
     44  CA       -16.1250    8.4200   25.3380 C.3    19  ALA19       0.1597
     45  C        -16.3740    7.2540   26.2900 C.2    19  ALA19       0.2287
     46  O        -15.5860    7.1110   27.2690 O.2    19  ALA19      -0.2864
     47  CB       -15.3720    7.9810   24.1280 C.3    19  ALA19       0.0319
     48  N        -14.6670    1.8040   21.9210 N.3    31  PHE31      -0.1227
     49  CA       -15.6360    2.6760   22.6190 C.3    31  PHE31       0.1736
     50  C        -16.9630    2.6690   21.9250 C.2    31  PHE31       0.2595
     51  O        -17.0330    2.4250   20.6820 O.2    31  PHE31      -0.2718
     52  CB       -15.0880    4.1110   22.7770 C.3    31  PHE31       0.0547
     53  CG       -14.7000    4.7560   21.4770 C.ar   31  PHE31      -0.0202
     54  CD1      -13.4260    4.6110   20.9560 C.ar   31  PHE31      -0.0042
     55  CD2      -15.5760    5.5420   20.7720 C.ar   31  PHE31      -0.0042
     56  CE1      -13.0800    5.1730   19.7770 C.ar   31  PHE31      -0.0003
     57  CE2      -15.2060    6.1610   19.5740 C.ar   31  PHE31      -0.0003
     58  CZ       -13.9090    5.9470   19.1130 C.ar   31  PHE31      -0.0000
     59  N        -18.0520    2.9630   22.6440 N.am   32  HIS32      -0.1961
     60  CA       -19.3450    2.9430   22.0610 C.3    32  HIS32       0.1787
     61  C        -19.5670    4.1270   21.0840 C.2    32  HIS32       0.2620
     62  O        -19.1190    5.2430   21.3220 O.2    32  HIS32      -0.2715
     63  CB       -20.4020    2.9770   23.1820 C.3    32  HIS32       0.0785
     64  CG       -20.4590    1.7290   23.9820 C.ar   32  HIS32       0.0821
     65  ND1      -21.1270    0.6240   23.5940 N.ar   32  HIS32      -0.2267
     66  CD2      -19.8150    1.4190   25.1820 C.ar   32  HIS32       0.1154
     67  CE1      -20.9510   -0.3330   24.5120 C.ar   32  HIS32       0.1986
     68  NE2      -20.1560    0.1380   25.4960 N.ar   32  HIS32      -0.2212
     69  N        -20.2990    3.8130   20.0010 N.am   33  ASP33      -0.1957
     70  CA       -20.6330    4.8390   19.0230 C.3    33  ASP33       0.1840
     71  C        -21.7820    5.7010   19.5090 C.2    33  ASP33       0.2622
     72  O        -22.7700    5.1710   20.0380 O.2    33  ASP33      -0.2715
     73  CB       -21.0000    4.1170   17.7060 C.3    33  ASP33       0.1450
     74  CG       -21.0320    5.0590   16.5130 C.2    33  ASP33       0.3671
     75  OD1      -21.7580    5.9990   16.4570 O.co2  33  ASP33      -0.2456
     76  OD2      -20.3090    4.7380   15.5760 O.co2  33  ASP33      -0.2456
     77  N        -21.6470    7.0050   19.3610 N.am   34  ILE34      -0.1963
     78  CA       -22.6840    7.9300   19.8150 C.3    34  ILE34       0.1727
     79  C        -23.8790    8.0380   18.8700 C.2    34  ILE34       0.2616
     80  O        -24.8920    8.6340   19.2580 O.2    34  ILE34      -0.2715
     81  CB       -22.1460    9.2850   20.1330 C.3    34  ILE34       0.0290
     82  CG1      -21.7240   10.0070   18.9100 C.3    34  ILE34       0.0022
     83  CG2      -21.2240    9.1180   21.4290 C.3    34  ILE34       0.0023
     84  CD1      -21.5710   11.4970   19.2120 C.3    34  ILE34       0.0001
     85  N        -23.7720    7.4210   17.7020 N.am   35  SER35      -0.1950
     86  CA       -24.8850    7.3670   16.7500 C.3    35  SER35       0.1924
     87  C        -25.1970    5.8970   16.4220 C.2    35  SER35       0.2314
     88  O        -24.9580    5.4300   15.2950 O.2    35  SER35      -0.2863
     89  CB       -24.5690    8.1710   15.4860 C.3    35  SER35       0.2116
     90  OG       -24.4580    9.5780   15.8310 O.3    35  SER35      -0.2180
     91  N        -23.4070   -1.0010   19.3920 N.3    41  HIS41      -0.1241
     92  CA       -22.6290   -0.4910   18.2700 C.3    41  HIS41       0.1621
     93  C        -21.4430    0.2110   18.8390 C.2    41  HIS41       0.2264
     94  O        -21.5710    1.2660   19.5130 O.2    41  HIS41      -0.2867
     95  CB       -23.5090    0.4680   17.4200 C.3    41  HIS41       0.0745
     96  CG       -22.8250    0.9950   16.1910 C.ar   41  HIS41       0.0817
     97  ND1      -23.5600    1.7550   15.3000 N.ar   41  HIS41      -0.2268
     98  CD2      -21.5550    0.8860   15.7000 C.ar   41  HIS41       0.1154
     99  CE1      -22.6870    2.1000   14.3560 C.ar   41  HIS41       0.1986
    100  NE2      -21.4920    1.5860   14.5370 N.ar   41  HIS41      -0.2212
    101  N        -16.9040    1.0030   18.2330 N.3    43  LEU43      -0.1245
    102  CA       -15.8160    1.2140   17.3250 C.3    43  LEU43       0.1561
    103  C        -14.5520    0.6860   17.9660 C.2    43  LEU43       0.2260
    104  O        -14.3570    0.8330   19.1870 O.2    43  LEU43      -0.2867
    105  CB       -15.5900    2.6950   17.0140 C.3    43  LEU43       0.0270
    106  CG       -16.7760    3.4040   16.4200 C.3    43  LEU43       0.0019
    107  CD1      -16.4300    4.8650   16.1130 C.3    43  LEU43       0.0001
    108  CD2      -17.2340    2.8380   15.1520 C.3    43  LEU43       0.0001
    109  N        -15.3050    1.1120    6.6560 N.3    89  ASN89      -0.1240
    110  CA       -15.6510    1.9480    5.5210 C.3    89  ASN89       0.1653
    111  C        -14.4350    2.6320    4.9650 C.2    89  ASN89       0.2266
    112  O        -13.6380    3.2050    5.7100 O.2    89  ASN89      -0.2867
    113  CB       -16.6570    3.0050    5.9560 C.3    89  ASN89       0.1155
    114  CG       -18.0450    2.4020    6.3720 C.2    89  ASN89       0.2627
    115  OD1      -18.3430    1.2750    5.9410 O.2    89  ASN89      -0.2716
    116  ND2      -18.7630    3.1430    7.2140 N.am   89  ASN89      -0.0877
    117  N        -18.7590    5.2860    2.4740 N.3    95  GLY95      -0.1210
    118  CA       -19.4310    6.0480    3.5370 C.3    95  GLY95       0.1956
    119  C        -18.5370    6.4530    4.6860 C.2    95  GLY95       0.2612
    120  O        -18.9830    6.7770    5.7470 O.2    95  GLY95      -0.2717
    121  N        -17.2060    6.5090    4.4320 N.am   96  GLN96      -0.1965
    122  CA       -16.2760    6.8670    5.4730 C.3    96  GLN96       0.1733
    123  C        -16.5270    8.4020    5.7850 C.2    96  GLN96       0.2617
    124  O        -16.4800    9.2380    4.8740 O.2    96  GLN96      -0.2715
    125  CB       -14.8370    6.6190    5.0810 C.3    96  GLN96       0.0408
    126  CG       -13.8360    6.9140    6.1460 C.3    96  GLN96       0.0908
    127  CD       -12.4100    6.5410    5.8400 C.2    96  GLN96       0.2608
    128  OE1      -12.1030    6.1190    4.7160 O.2    96  GLN96      -0.2717
    129  NE2      -11.5060    6.6690    6.8390 N.am   96  GLN96      -0.0878
    130  N        -16.7130    8.6800    7.0530 N.am   97  SER97      -0.1936
    131  CA       -16.8350   10.1020    7.4500 C.3    97  SER97       0.2055
    132  C        -15.6160   10.5980    8.1720 C.2    97  SER97       0.2642
    133  O        -15.3690   11.7770    8.1040 O.2    97  SER97      -0.2714
    134  CB       -18.1110   10.4310    8.2900 C.3    97  SER97       0.2130
    135  OG       -18.2620    9.3730    9.3080 O.3    97  SER97      -0.2179
    136  N        -15.0270    9.8230    9.0550 N.am   98  VAL98      -0.1977
    137  CA       -13.8640   10.2250    9.8840 C.3    98  VAL98       0.1596
    138  C        -12.6650    9.5620    9.2020 C.2    98  VAL98       0.2287
    139  O        -12.6500    8.3410    9.0790 O.2    98  VAL98      -0.2864
    140  CB       -13.9830    9.8100   11.3680 C.3    98  VAL98       0.0276
    141  CG1      -12.7230   10.2450   12.0870 C.3    98  VAL98       0.0022
    142  CG2      -15.2100   10.4520   11.9980 C.3    98  VAL98       0.0022
    143  N        -11.2810    2.9180   11.3600 N.3   102  HIS102     -0.1241
    144  CA       -12.0700    2.4270   12.4720 C.3   102  HIS102      0.1621
    145  C        -12.8930    1.2540   12.0600 C.2   102  HIS102      0.2264
    146  O        -13.4580    1.2010   10.9370 O.2   102  HIS102     -0.2867
    147  CB       -12.9870    3.5500   13.0470 C.3   102  HIS102      0.0745
    148  CG       -13.8170    4.2980   12.0540 C.ar  102  HIS102      0.0817
    149  ND1      -13.2720    5.2290   11.1930 N.ar  102  HIS102     -0.2268
    150  CD2      -15.1640    4.3480   11.8540 C.ar  102  HIS102      0.1154
    151  CE1      -14.2800    5.7640   10.4750 C.ar  102  HIS102      0.1986
    152  NE2      -15.4240    5.2500   10.8480 N.ar  102  HIS102     -0.2212
    153  N        -16.2190   -0.7930   12.8750 N.3   104  HIS104     -0.1241
    154  CA       -17.5360   -0.8450   13.5350 C.3   104  HIS104      0.1621
    155  C        -17.8430   -2.2910   13.9370 C.2   104  HIS104      0.2264
    156  O        -17.5940   -3.1930   13.1380 O.2   104  HIS104     -0.2867
    157  CB       -18.6450   -0.4070   12.5910 C.3   104  HIS104      0.0745
    158  CG       -18.5960    0.9790   12.0960 C.ar  104  HIS104      0.0817
    159  ND1      -19.3440    1.9930   12.6500 N.ar  104  HIS104     -0.2268
    160  CD2      -17.8750    1.5590   11.0820 C.ar  104  HIS104      0.1154
    161  CE1      -19.1090    3.1170   11.9460 C.ar  104  HIS104      0.1986
    162  NE2      -18.1880    2.8540   10.9970 N.ar  104  HIS104     -0.2212
@<TRIPOS>BOND
     1   117   118    1
     2   118   119    1
     3   121   119   am
     4   121   122    1
     5   119   120    2
     6   128   127    2
     7   124   123    2
     8   111   110    1
     9   111   112    2
    10   125   122    1
    11   125   126    1
    12   122   123    1
    13   110   113    1
    14   110   109    1
    15   123   130   am
    16   127   126    1
    17   127   129   am
    18   115   114    2
    19   113   114    1
    20   114   116   am
    21   130   131    1
    22   131   132    1
    23   131   134    1
    24   133   132    2
    25   132   136   am
    26   134   135    1
    27   136   137    1
    28   139   138    2
    29   138   137    1
    30   137   140    1
    31   151   152   ar
    32   151   149   ar
    33   152   150   ar
    34   146   145    2
    35   162   160   ar
    36   162   161   ar
    37   160   158   ar
    38   149   148   ar
    39   143   144    1
    40   140   142    1
    41   140   141    1
    42   150   148   ar
    43   161   159   ar
    44   148   147    1
    45   145   144    1
    46   158   157    1
    47   158   159   ar
    48   144   147    1
    49   157   154    1
    50   153   154    1
    51   156   155    2
    52   154   155    1
    53    18    19   ar
    54    18    16   ar
    55    99   100   ar
    56    99    97   ar
    57   100    98   ar
    58    19    17   ar
    59    16    14   ar
    60     1     2    1
    61   108   106    1
    62    88    87    2
    63    97    96   ar
    64     7     5    1
    65    89    90    1
    66    89    86    1
    67    76    74   ar
    68    17    15   ar
    69    98    96   ar
    70    14    15   ar
    71    14    13    1
    72   107   106    1
    73     5     2    1
    74     5     6    1
    75    96    95    1
    76    13    10    1
    77     2     3    1
    78   106   105    1
    79    87    86    1
    80     9     3   am
    81     9    10    1
    82    75    74   ar
    83    74    73    1
    84    86    85    1
    85   105   102    1
    86     3     4    2
    87    10    11    1
    88   102   103    1
    89   102   101    1
    90    95    92    1
    91     8     6    1
    92    85    79   am
    93    73    70    1
    94    11    12    2
    95   103   104    2
    96    92    93    1
    97    92    91    1
    98    93    94    2
    99    79    80    2
   100    79    78    1
   101    82    84    1
   102    82    81    1
   103    70    71    1
   104    70    69    1
   105    58    57   ar
   106    58    56   ar
   107    77    71   am
   108    77    78    1
   109    71    72    2
   110    57    55   ar
   111    56    54   ar
   112    78    81    1
   113    69    61   am
   114    81    83    1
   115    27    25    1
   116    51    50    2
   117    55    53   ar
   118    54    53   ar
   119    25    24    1
   120    61    62    2
   121    61    60    1
   122    20    21    1
   123    24    26    1
   124    24    21    1
   125    53    52    1
   126    35    33    1
   127    48    49    1
   128    50    49    1
   129    50    59   am
   130    60    59    1
   131    60    63    1
   132    21    22    1
   133    22    23    2
   134    49    52    1
   135    33    32    1
   136    63    64    1
   137    34    32    1
   138    65    64   ar
   139    65    67   ar
   140    32    29    1
   141    64    66   ar
   142    47    44    1
   143    67    68   ar
   144    39    38    2
   145    28    29    1
   146    31    30    2
   147    66    68   ar
   148    29    30    1
   149    44    43    1
   150    44    45    1
   151    30    36   am
   152    38    43   am
   153    38    37    1
   154    45    46    2
   155    36    37    1
   156    36    42    1
   157    37    40    1
   158    42    41    1
   159    41    40    1
