@<TRIPOS>MOLECULE
tmp/5o8uA00.pdb
 193 188 0 0 0
SMALL
GASTEIGER

@<TRIPOS>ATOM
      1  N         20.1180  -10.6430  -16.6790 N.3   170  PRO170     -0.2102
      2  CA        20.7050  -11.9350  -16.9330 C.3   170  PRO170      0.1504
      3  C         20.4640  -12.9570  -15.8450 C.2   170  PRO170      0.2575
      4  O         20.3350  -14.1180  -16.1610 O.2   170  PRO170     -0.2718
      5  CB        22.2120  -11.6470  -17.0120 C.3   170  PRO170      0.0282
      6  CG        22.4120  -10.3180  -16.4330 C.3   170  PRO170      0.0208
      7  CD        21.1260   -9.5640  -16.6800 C.3   170  PRO170      0.0893
      8  N         20.3870  -12.5320  -14.5880 N.am  171  GLU171     -0.1980
      9  CA        20.1060  -13.4720  -13.5240 C.3   171  GLU171      0.1602
     10  C         18.7380  -14.1140  -13.6090 C.2   171  GLU171      0.2287
     11  O         18.5990  -15.2900  -13.2150 O.2   171  GLU171     -0.2864
     12  CB        20.3440  -12.8620  -12.1330 C.3   171  GLU171      0.0415
     13  CG        19.4790  -11.6530  -11.8040 C.3   171  GLU171      0.1163
     14  CD        20.0890  -10.3100  -12.1630 C.2   171  GLU171      0.3649
     15  OE1       19.5500   -9.3180  -11.6570 O.co2 171  GLU171     -0.2457
     16  OE2       21.0840  -10.2170  -12.9300 O.co2 171  GLU171     -0.2457
     17  N         19.0670  -16.7020  -16.3700 N.3   174  LEU174     -0.1231
     18  CA        19.7350  -17.8960  -15.8480 C.3   174  LEU174      0.1693
     19  C         18.8770  -18.5720  -14.8080 C.2   174  LEU174      0.2592
     20  O         19.2390  -19.6090  -14.3000 O.2   174  LEU174     -0.2718
     21  CB        21.1200  -17.5790  -15.2470 C.3   174  LEU174      0.0284
     22  CG        22.3920  -18.0980  -15.9390 C.3   174  LEU174      0.0019
     23  CD1       23.5810  -18.0570  -14.9760 C.3   174  LEU174      0.0001
     24  CD2       22.2580  -19.4950  -16.5080 C.3   174  LEU174      0.0001
     25  N         17.7580  -17.9760  -14.4380 N.am  175  ASN175     -0.1960
     26  CA        16.8360  -18.5840  -13.4590 C.3   175  ASN175      0.1819
     27  C         17.2200  -18.5700  -11.9850 C.2   175  ASN175      0.2621
     28  O         16.8560  -19.4760  -11.2180 O.2   175  ASN175     -0.2715
     29  CB        16.4960  -20.0070  -13.8850 C.3   175  ASN175      0.1195
     30  CG        15.0310  -20.2210  -13.9450 C.2   175  ASN175      0.2630
     31  OD1       14.4370  -20.8540  -13.0690 O.2   175  ASN175     -0.2716
     32  ND2       14.4120  -19.6700  -14.9910 N.am  175  ASN175     -0.0877
     33  N         17.9240  -17.5310  -11.5630 N.am  176  TRP176     -0.1960
     34  CA        18.2420  -17.3650  -10.1490 C.3   176  TRP176      0.1771
     35  C         16.9710  -17.1640   -9.3020 C.2   176  TRP176      0.2620
     36  O         16.1220  -16.3250   -9.6190 O.2   176  TRP176     -0.2715
     37  CB        19.1800  -16.2100   -9.9410 C.3   176  TRP176      0.0590
     38  CG        19.7800  -16.1460   -8.5890 C.ar  176  TRP176      0.0006
     39  CD1       20.0160  -17.1880   -7.7100 C.ar  176  TRP176      0.0946
     40  CD2       20.2230  -14.9550   -7.9190 C.ar  176  TRP176      0.0152
     41  NE1       20.6000  -16.6970   -6.5470 N.ar  176  TRP176     -0.2442
     42  CE2       20.7520  -15.3440   -6.6610 C.ar  176  TRP176      0.0810
     43  CE3       20.2640  -13.6020   -8.2770 C.ar  176  TRP176      0.0012
     44  CZ2       21.2840  -14.4200   -5.7670 C.ar  176  TRP176      0.0191
     45  CZ3       20.7970  -12.7000   -7.3990 C.ar  176  TRP176      0.0001
     46  CH2       21.3030  -13.1030   -6.1610 C.ar  176  TRP176      0.0015
     47  N         16.8520  -17.9210   -8.2170 N.am  177  MET177     -0.1963
     48  CA        15.6280  -17.8550   -7.3810 C.3   177  MET177      0.1736
     49  C         15.6740  -16.7140   -6.4130 C.2   177  MET177      0.2616
     50  O         14.6770  -16.4090   -5.8310 O.2   177  MET177     -0.2715
     51  CB        15.4010  -19.1650   -6.6130 C.3   177  MET177      0.0427
     52  CG        15.3710  -20.4160   -7.4900 C.3   177  MET177      0.0599
     53  SD        13.8930  -20.5420   -8.5410 S.3   177  MET177     -0.1393
     54  CE        14.1320  -19.3090   -9.8280 C.3   177  MET177      0.0692
     55  N         16.8330  -16.1120   -6.2010 N.am  178  HIS178     -0.1973
     56  CA        16.9240  -15.0640   -5.2120 C.3   178  HIS178      0.1656
     57  C         17.3050  -13.7180   -5.8160 C.2   178  HIS178      0.2291
     58  O         17.9700  -12.9050   -5.1700 O.2   178  HIS178     -0.2864
     59  CB        17.9060  -15.4690   -4.1170 C.3   178  HIS178      0.0771
     60  CG        17.7300  -16.8800   -3.6870 C.ar  178  HIS178      0.0820
     61  ND1       16.5910  -17.3120   -3.0440 N.ar  178  HIS178     -0.2267
     62  CD2       18.5140  -17.9830   -3.8630 C.ar  178  HIS178      0.1154
     63  CE1       16.7000  -18.6120   -2.8100 C.ar  178  HIS178      0.1986
     64  NE2       17.8520  -19.0420   -3.3030 N.ar  178  HIS178     -0.2212
     65  N         21.3920  -14.4090  -24.0630 N.3   211  LEU211     -0.1245
     66  CA        22.5540  -14.3830  -23.1610 C.3   211  LEU211      0.1561
     67  C         23.8170  -14.1690  -23.9570 C.2   211  LEU211      0.2260
     68  O         24.6540  -13.4740  -23.5030 O.2   211  LEU211     -0.2867
     69  CB        22.6690  -15.6490  -22.3170 C.3   211  LEU211      0.0270
     70  CG        21.7360  -15.7850  -21.1250 C.3   211  LEU211      0.0019
     71  CD1       21.9750  -17.1350  -20.4650 C.3   211  LEU211      0.0001
     72  CD2       21.9000  -14.6730  -20.1180 C.3   211  LEU211      0.0001
     73  N         26.3700  -11.1710  -23.0340 N.3   215  LEU215     -0.1245
     74  CA        27.7320  -11.4040  -22.5540 C.3   215  LEU215      0.1561
     75  C         28.7460  -10.7740  -23.4800 C.2   215  LEU215      0.2260
     76  O         29.8350  -10.3830  -23.0200 O.2   215  LEU215     -0.2867
     77  CB        28.0270  -12.8760  -22.3640 C.3   215  LEU215      0.0270
     78  CG        27.2160  -13.5280  -21.2790 C.3   215  LEU215      0.0019
     79  CD1       27.2230  -15.0220  -21.5080 C.3   215  LEU215      0.0001
     80  CD2       27.7190  -13.1870  -19.8960 C.3   215  LEU215      0.0001
     81  N         31.5720  -13.6160  -16.6330 N.3   221  PRO221     -0.2116
     82  CA        31.7570  -13.4220  -15.1730 C.3   221  PRO221      0.1372
     83  C         33.1720  -13.6270  -14.7340 C.2   221  PRO221      0.2244
     84  O         33.8180  -14.5020  -15.2460 O.2   221  PRO221     -0.2868
     85  CB        30.9350  -14.5490  -14.5800 C.3   221  PRO221      0.0268
     86  CG        29.8800  -14.8230  -15.6250 C.3   221  PRO221      0.0207
     87  CD        30.5290  -14.5980  -16.9450 C.3   221  PRO221      0.0892
     88  N         32.2230  -13.0840   -9.0250 N.3   225  LEU225     -0.1245
     89  CA        30.8250  -13.4730   -9.2050 C.3   225  LEU225      0.1561
     90  C         30.6750  -15.0030   -9.1470 C.2   225  LEU225      0.2260
     91  O         29.6710  -15.5160   -8.6400 O.2   225  LEU225     -0.2867
     92  CB        30.3060  -12.9460  -10.5180 C.3   225  LEU225      0.0270
     93  CG        28.8670  -13.2550  -10.9010 C.3   225  LEU225      0.0019
     94  CD1       27.8630  -12.8120   -9.8760 C.3   225  LEU225      0.0001
     95  CD2       28.5840  -12.5420  -12.2070 C.3   225  LEU225      0.0001
     96  N         29.9440  -16.7260   -6.0210 N.3   228  LYS228     -0.1231
     97  CA        28.6240  -16.4830   -5.4400 C.3   228  LYS228      0.1693
     98  C         27.5260  -17.3570   -6.0210 C.2   228  LYS228      0.2592
     99  O         26.3170  -17.2410   -5.6280 O.2   228  LYS228     -0.2718
    100  CB        28.2660  -14.9930   -5.5790 C.3   228  LYS228      0.0285
    101  CG        29.2200  -14.1070   -4.7760 C.3   228  LYS228      0.0035
    102  CD        28.7420  -12.6570   -4.6830 C.3   228  LYS228      0.0206
    103  CE        28.9700  -11.8770   -5.9740 C.3   228  LYS228      0.1093
    104  NZ        28.6600  -10.4390   -5.8350 N.3   228  LYS228     -0.1314
    105  N         27.9020  -18.2100   -6.9590 N.am  229  ILE229     -0.1966
    106  CA        26.9440  -19.0800   -7.6420 C.3   229  ILE229      0.1727
    107  C         26.7650  -20.3930   -6.8720 C.2   229  ILE229      0.2617
    108  O         27.7390  -21.1230   -6.6420 O.2   229  ILE229     -0.2715
    109  CB        27.4000  -19.3870   -9.0530 C.3   229  ILE229      0.0290
    110  CG1       27.6290  -18.0650   -9.8510 C.3   229  ILE229      0.0022
    111  CG2       26.4000  -20.3300   -9.7370 C.3   229  ILE229      0.0023
    112  CD1       26.4950  -17.0710   -9.9120 C.3   229  ILE229      0.0001
    113  N         25.5560  -20.6340   -6.3630 N.am  230  SER230     -0.1936
    114  CA        25.3460  -21.7080   -5.4110 C.3   230  SER230      0.2055
    115  C         25.1550  -23.0540   -6.0690 C.2   230  SER230      0.2643
    116  O         25.3850  -24.0640   -5.4310 O.2   230  SER230     -0.2714
    117  CB        24.1400  -21.4390   -4.5150 C.3   230  SER230      0.2130
    118  OG        22.9580  -21.3350   -5.3120 O.3   230  SER230     -0.2179
    119  N         24.6970  -23.0760   -7.3070 N.am  231  CYS231     -0.1967
    120  CA        24.2850  -24.2900   -7.9330 C.3   231  CYS231      0.1712
    121  C         25.2080  -24.7030   -9.0810 C.2   231  CYS231      0.2296
    122  O         25.7530  -23.8830   -9.8270 O.2   231  CYS231     -0.2864
    123  CB        22.8710  -24.1140   -8.3810 C.3   231  CYS231      0.0983
    124  SG        22.7220  -22.7210   -9.5200 S.3   231  CYS231     -0.0798
    125  N         24.7140  -26.3850  -11.9140 N.3   233  SER233     -0.1202
    126  CA        24.2950  -26.1680  -13.3060 C.3   233  SER233      0.2020
    127  C         24.7420  -24.8320  -13.7950 C.2   233  SER233      0.2618
    128  O         25.3460  -24.7360  -14.8460 O.2   233  SER233     -0.2717
    129  CB        22.7730  -26.2900  -13.4910 C.3   233  SER233      0.2103
    130  OG        22.0880  -25.5250  -12.5290 O.3   233  SER233     -0.2182
    131  N         24.5120  -23.8040  -12.9720 N.am  234  ALA234     -0.1979
    132  CA        24.8280  -22.4300  -13.3370 C.3   234  ALA234      0.1597
    133  C         26.3270  -22.2680  -13.3690 C.2   234  ALA234      0.2287
    134  O         26.8580  -21.6170  -14.2670 O.2   234  ALA234     -0.2864
    135  CB        24.1940  -21.4540  -12.3660 C.3   234  ALA234      0.0319
    136  N         27.5100  -23.9290  -16.6190 N.3   237  TYR237     -0.1227
    137  CA        27.3170  -22.9550  -17.7200 C.3   237  TYR237      0.1736
    138  C         28.3560  -21.8250  -17.7680 C.2   237  TYR237      0.2595
    139  O         29.0210  -21.5910  -18.7400 O.2   237  TYR237     -0.2718
    140  CB        25.9630  -22.3280  -17.5700 C.3   237  TYR237      0.0548
    141  CG        25.7530  -21.2350  -18.5390 C.ar  237  TYR237     -0.0200
    142  CD1       25.8180  -21.4720  -19.9180 C.ar  237  TYR237     -0.0009
    143  CD2       25.5250  -19.9510  -18.0990 C.ar  237  TYR237     -0.0009
    144  CE1       25.6220  -20.4520  -20.8290 C.ar  237  TYR237      0.0417
    145  CE2       25.3400  -18.9150  -18.9850 C.ar  237  TYR237      0.0417
    146  CZ        25.3840  -19.1560  -20.3480 C.ar  237  TYR237      0.1957
    147  OH        25.2020  -18.0880  -21.1970 O.3   237  TYR237     -0.2866
    148  N         28.4900  -21.1000  -16.6840 N.am  238  ILE238     -0.1980
    149  CA        29.4450  -20.0250  -16.6490 C.3   238  ILE238      0.1595
    150  C         30.8430  -20.5380  -17.0630 C.2   238  ILE238      0.2287
    151  O         31.4840  -19.9650  -17.9310 O.2   238  ILE238     -0.2864
    152  CB        29.4510  -19.3530  -15.2630 C.3   238  ILE238      0.0276
    153  CG1       28.0920  -18.6490  -15.0100 C.3   238  ILE238      0.0022
    154  CG2       30.6210  -18.4080  -15.1120 C.3   238  ILE238      0.0022
    155  CD1       27.9210  -18.2060  -13.5820 C.3   238  ILE238      0.0001
    156  N         31.8030  -20.9070  -20.8880 N.3   241  LEU241     -0.1245
    157  CA        31.7780  -19.8320  -21.8780 C.3   241  LEU241      0.1561
    158  C         33.1600  -19.3940  -22.2870 C.2   241  LEU241      0.2260
    159  O         34.0870  -19.4080  -21.4860 O.2   241  LEU241     -0.2867
    160  CB        31.0860  -18.6090  -21.3040 C.3   241  LEU241      0.0270
    161  CG        29.6650  -18.8300  -20.7740 C.3   241  LEU241      0.0019
    162  CD1       29.3090  -17.7550  -19.7610 C.3   241  LEU241      0.0001
    163  CD2       28.6810  -18.8980  -21.9210 C.3   241  LEU241      0.0001
    164  N         26.6450   -7.0260  -14.9480 N.3   270  LEU270     -0.1231
    165  CA        26.3030   -8.4580  -14.8990 C.3   270  LEU270      0.1693
    166  C         25.9380   -8.9440  -13.4880 C.2   270  LEU270      0.2592
    167  O         24.9120   -9.5940  -13.2910 O.2   270  LEU270     -0.2718
    168  CB        27.4630   -9.3060  -15.4440 C.3   270  LEU270      0.0284
    169  CG        27.2230  -10.8000  -15.6380 C.3   270  LEU270      0.0019
    170  CD1       25.9200  -11.0820  -16.3840 C.3   270  LEU270      0.0001
    171  CD2       28.4120  -11.4360  -16.3710 C.3   270  LEU270      0.0001
    172  N         26.7780   -8.6030  -12.5270 N.am  271  ASP271     -0.1960
    173  CA        26.5980   -8.9610  -11.1160 C.3   271  ASP271      0.1840
    174  C         25.6010   -8.0170  -10.4450 C.2   271  ASP271      0.2623
    175  O         25.9440   -6.8900  -10.1490 O.2   271  ASP271     -0.2715
    176  CB        27.9600   -8.9030  -10.4280 C.3   271  ASP271      0.1450
    177  CG        27.9170   -9.3340   -8.9670 C.2   271  ASP271      0.3671
    178  OD1       26.8220   -9.5160   -8.4050 O.co2 271  ASP271     -0.2456
    179  OD2       29.0160   -9.4690   -8.3640 O.co2 271  ASP271     -0.2456
    180  N         24.4000   -8.4960  -10.1170 N.am  272  SER272     -0.1936
    181  CA        23.3670   -7.6150   -9.5630 C.3   272  SER272      0.2055
    182  C         23.7270   -7.0390   -8.2400 C.2   272  SER272      0.2643
    183  O         23.2460   -6.0100   -7.8990 O.2   272  SER272     -0.2714
    184  CB        22.0080   -8.3280   -9.4910 C.3   272  SER272      0.2130
    185  OG        22.1030   -9.4790   -8.7050 O.3   272  SER272     -0.2179
    186  N         24.5990   -7.6870   -7.4910 N.am  273  ASP273     -0.1971
    187  CA        25.0880   -7.1490   -6.2600 C.3   273  ASP273      0.1709
    188  C         25.8450   -5.8620   -6.4840 C.2   273  ASP273      0.2293
    189  O         25.9880   -5.1020   -5.5500 O.2   273  ASP273     -0.2864
    190  CB        26.0970   -8.1120   -5.5800 C.3   273  ASP273      0.1436
    191  CG        25.4710   -9.4140   -5.0720 C.2   273  ASP273      0.3671
    192  OD1       26.1990  -10.4110   -4.9800 O.co2 273  ASP273     -0.2456
    193  OD2       24.2760   -9.4850   -4.7690 O.co2 273  ASP273     -0.2456
@<TRIPOS>BOND
     1    65    66    1
     2    67    68    2
     3    67    66    1
     4    75    76    2
     5    75    74    1
     6    66    69    1
     7    73    74    1
     8    74    77    1
     9    77    78    1
    10    69    70    1
    11   158   157    1
    12   158   159    2
    13   163   161    1
    14   157   160    1
    15   157   156    1
    16    79    78    1
    17   160   161    1
    18    78    80    1
    19   147   146    1
    20    70    71    1
    21    70    72    1
    22   144   146   ar
    23   144   142   ar
    24   161   162    1
    25   146   145   ar
    26   142   141   ar
    27   145   143   ar
    28   139   138    2
    29   141   143   ar
    30   141   140    1
    31   151   150    2
    32   138   137    1
    33   138   148   am
    34   137   140    1
    35   137   136    1
    36   150   149    1
    37     5     2    1
    38     5     6    1
    39    87    81    1
    40    87    86    1
    41     2     1    1
    42     2     3    1
    43   148   149    1
    44     7     1    1
    45     7     6    1
    46   149   152    1
    47    81    82    1
    48    24    22    1
    49   170   169    1
    50   171   169    1
    51    17    18    1
    52     4     3    2
    53    22    21    1
    54    22    23    1
    55    18    21    1
    56    18    19    1
    57     3     8   am
    58   169   168    1
    59    86    85    1
    60   168   165    1
    61   152   154    1
    62   152   153    1
    63    84    83    2
    64    82    83    1
    65    82    85    1
    66   153   155    1
    67    32    30   am
    68   164   165    1
    69   165   166    1
    70   128   127    2
    71    19    25   am
    72    19    20    2
    73     8     9    1
    74    25    26    1
    75   134   133    2
    76    30    29    1
    77    30    31    2
    78    29    26    1
    79   127   126    1
    80   127   131   am
    81    10     9    1
    82    10    11    2
    83     9    12    1
    84   129   126    1
    85   129   130    1
    86   166   167    2
    87   166   172   am
    88    26    27    1
    89   133   132    1
    90   132   131    1
    91   132   135    1
    92   126   125    1
    93    16    14   ar
    94   172   173    1
    95    95    93    1
    96    14    13    1
    97    14    15   ar
    98    12    13    1
    99    27    33   am
   100    27    28    2
   101    33    34    1
   102   173   174    1
   103   173   176    1
   104    93    92    1
   105    93    94    1
   106    92    89    1
   107   174   175    2
   108   174   180   am
   109   176   177    1
   110    34    37    1
   111    34    35    1
   112   180   181    1
   113    37    38    1
   114   112   110    1
   115   110   109    1
   116    54    53    1
   117   122   121    2
   118   111   109    1
   119    36    35    2
   120   181   184    1
   121   181   182    1
   122   124   123    1
   123   184   185    1
   124    35    47   am
   125    89    90    1
   126    89    88    1
   127    90    91    2
   128   121   120    1
   129   109   106    1
   130   177   178   ar
   131   177   179   ar
   132    38    40   ar
   133    38    39   ar
   134    53    52    1
   135   123   120    1
   136    43    40   ar
   137    43    45   ar
   138   182   183    2
   139   182   186   am
   140    47    48    1
   141   120   119    1
   142    40    42   ar
   143    39    41   ar
   144   106   105    1
   145   106   107    1
   146   186   187    1
   147    52    51    1
   148    45    46   ar
   149    48    51    1
   150    48    49    1
   151   119   115   am
   152   105    98   am
   153   107   108    2
   154   107   113   am
   155    42    41   ar
   156    42    44   ar
   157   188   187    1
   158   188   189    2
   159    49    55   am
   160    49    50    2
   161   113   114    1
   162   187   190    1
   163    55    56    1
   164    46    44   ar
   165   115   116    2
   166   115   114    1
   167    98    99    2
   168    98    97    1
   169    96    97    1
   170   103   104    1
   171   103   102    1
   172    57    56    1
   173    57    58    2
   174   190   191    1
   175   100    97    1
   176   100   101    1
   177   114   117    1
   178   118   117    1
   179    56    59    1
   180   191   192   ar
   181   191   193   ar
   182   101   102    1
   183    59    60    1
   184    62    60   ar
   185    62    64   ar
   186    60    61   ar
   187    64    63   ar
   188    61    63   ar
