@<TRIPOS>MOLECULE
tmp/5o8vA00.pdb
 167 161 0 0 0
SMALL
GASTEIGER

@<TRIPOS>ATOM
      1  N        -20.2220  -12.6260   16.6710 N.3   165  PRO165     -0.2102
      2  CA       -20.6780  -13.9880   16.8170 C.3   165  PRO165      0.1504
      3  C        -20.3940  -14.8350   15.5260 C.2   165  PRO165      0.2575
      4  O        -19.9610  -15.9570   15.6670 O.2   165  PRO165     -0.2718
      5  CB       -22.1450  -13.8050   17.1600 C.3   165  PRO165      0.0282
      6  CG       -22.5190  -12.4900   16.6060 C.3   165  PRO165      0.0208
      7  CD       -21.3080  -11.6530   16.7880 C.3   165  PRO165      0.0893
      8  N        -20.4650  -14.2460   14.3240 N.am  166  GLU166     -0.1980
      9  CA       -19.9820  -14.9320   13.1110 C.3   166  GLU166      0.1602
     10  C        -18.5190  -15.4310   13.1160 C.2   166  GLU166      0.2287
     11  O        -18.1860  -16.4150   12.4200 O.2   166  GLU166     -0.2864
     12  CB       -20.2880  -14.0760   11.8600 C.3   166  GLU166      0.0415
     13  CG       -19.5580  -12.7680   11.7480 C.3   166  GLU166      0.1163
     14  CD       -20.3190  -11.5450   12.3090 C.2   166  GLU166      0.3649
     15  OE1      -20.2070  -10.4680   11.7230 O.co2 166  GLU166     -0.2457
     16  OE2      -21.0790  -11.6880   13.2580 O.co2 166  GLU166     -0.2457
     17  N        -18.3980  -18.5850   15.4110 N.3   169  LEU169     -0.1231
     18  CA       -18.9310  -19.7130   14.6780 C.3   169  LEU169      0.1693
     19  C        -18.0990  -20.1530   13.4980 C.2   169  LEU169      0.2592
     20  O        -18.4570  -21.1210   12.8540 O.2   169  LEU169     -0.2718
     21  CB       -20.3050  -19.3790   14.1740 C.3   169  LEU169      0.0284
     22  CG       -21.3820  -19.4840   15.2220 C.3   169  LEU169      0.0019
     23  CD1      -22.5550  -18.6680   14.7580 C.3   169  LEU169      0.0001
     24  CD2      -21.8240  -20.9250   15.4590 C.3   169  LEU169      0.0001
     25  N        -17.0320  -19.4410   13.1810 N.am  170  ASN170     -0.1960
     26  CA       -16.1340  -19.8470   12.1150 C.3   170  ASN170      0.1819
     27  C        -16.7140  -19.6470   10.6930 C.2   170  ASN170      0.2621
     28  O        -16.3460  -20.3790    9.7650 O.2   170  ASN170     -0.2715
     29  CB       -15.7050  -21.3120   12.3560 C.3   170  ASN170      0.1195
     30  CG       -14.3810  -21.6470   11.7370 C.2   170  ASN170      0.2630
     31  OD1      -13.5210  -20.7770   11.5570 O.2   170  ASN170     -0.2716
     32  ND2      -14.2080  -22.9240   11.3840 N.am  170  ASN170     -0.0877
     33  N        -17.6100  -18.6610   10.5300 N.am  171  TRP171     -0.1974
     34  CA       -18.0570  -18.2540    9.2070 C.3   171  TRP171      0.1640
     35  C        -16.8630  -17.7560    8.4170 C.2   171  TRP171      0.2290
     36  O        -16.1710  -16.8420    8.8680 O.2   171  TRP171     -0.2864
     37  CB       -19.1000  -17.1600    9.2270 C.3   171  TRP171      0.0576
     38  CG       -19.7330  -16.8720    7.8890 C.ar  171  TRP171      0.0006
     39  CD1      -19.9500  -17.7910    6.8530 C.ar  171  TRP171      0.0946
     40  CD2      -20.3020  -15.6340    7.4260 C.ar  171  TRP171      0.0152
     41  NE1      -20.5800  -17.1880    5.8220 N.ar  171  TRP171     -0.2442
     42  CE2      -20.8260  -15.8790    6.1280 C.ar  171  TRP171      0.0810
     43  CE3      -20.4660  -14.3320    8.0030 C.ar  171  TRP171      0.0012
     44  CZ2      -21.4790  -14.8700    5.3560 C.ar  171  TRP171      0.0191
     45  CZ3      -21.1170  -13.3190    7.2380 C.ar  171  TRP171      0.0001
     46  CH2      -21.6070  -13.6050    5.9100 C.ar  171  TRP171      0.0015
     47  N        -16.9530  -16.1300    5.5590 N.3   173  HIS173     -0.1241
     48  CA       -17.1530  -14.9710    4.7430 C.3   173  HIS173      0.1621
     49  C        -17.5810  -13.7290    5.5090 C.2   173  HIS173      0.2264
     50  O        -18.3230  -12.8920    4.9530 O.2   173  HIS173     -0.2867
     51  CB       -18.1640  -15.3170    3.6660 C.3   173  HIS173      0.0745
     52  CG       -17.7490  -16.4890    2.8450 C.ar  173  HIS173      0.0817
     53  ND1      -16.7260  -16.4240    1.9240 N.ar  173  HIS173     -0.2268
     54  CD2      -18.1810  -17.7700    2.8400 C.ar  173  HIS173      0.1154
     55  CE1      -16.5830  -17.6060    1.3510 C.ar  173  HIS173      0.1986
     56  NE2      -17.4540  -18.4370    1.8880 N.ar  173  HIS173     -0.2212
     57  N        -21.7000  -16.9590   23.1400 N.3   206  LEU206     -0.1245
     58  CA       -22.8770  -16.8240   22.2730 C.3   206  LEU206      0.1561
     59  C        -24.1660  -16.7940   23.0980 C.2   206  LEU206      0.2260
     60  O        -25.0760  -16.0700   22.7860 O.2   206  LEU206     -0.2867
     61  CB       -22.9440  -17.9900   21.3030 C.3   206  LEU206      0.0270
     62  CG       -21.7360  -18.0860   20.3770 C.3   206  LEU206      0.0019
     63  CD1      -21.5200  -19.5000   19.8580 C.3   206  LEU206      0.0001
     64  CD2      -21.8730  -17.0880   19.2260 C.3   206  LEU206      0.0001
     65  N        -24.4710  -13.3000   24.3390 N.3   209  ILE209     -0.1231
     66  CA       -24.8300  -12.4150   23.2590 C.3   209  ILE209      0.1692
     67  C        -26.3150  -12.5300   22.9340 C.2   209  ILE209      0.2591
     68  O        -27.0110  -11.4950   22.7520 O.2   209  ILE209     -0.2718
     69  CB       -23.9980  -12.6650   21.9880 C.3   209  ILE209      0.0266
     70  CG1      -22.5570  -12.1700   22.2190 C.3   209  ILE209      0.0019
     71  CG2      -24.6890  -11.9720   20.8110 C.3   209  ILE209      0.0020
     72  CD1      -21.5170  -12.6950   21.2430 C.3   209  ILE209      0.0001
     73  N        -26.7780  -13.7810   22.8040 N.am  210  LEU210     -0.1980
     74  CA       -28.1630  -14.0330   22.3760 C.3   210  LEU210      0.1596
     75  C        -29.1900  -13.5660   23.4220 C.2   210  LEU210      0.2287
     76  O        -30.2830  -13.0780   23.0520 O.2   210  LEU210     -0.2864
     77  CB       -28.3770  -15.5180   22.0380 C.3   210  LEU210      0.0297
     78  CG       -27.6490  -15.9330   20.7620 C.3   210  LEU210      0.0022
     79  CD1      -27.6110  -17.4350   20.5860 C.3   210  LEU210      0.0001
     80  CD2      -28.2640  -15.2690   19.5300 C.3   210  LEU210      0.0001
     81  N        -31.9040  -15.5610   16.6570 N.3   216  PRO216     -0.2116
     82  CA       -32.0480  -14.9870   15.2960 C.3   216  PRO216      0.1372
     83  C        -33.3650  -15.3360   14.5710 C.2   216  PRO216      0.2244
     84  O        -33.9210  -16.4210   14.7350 O.2   216  PRO216     -0.2868
     85  CB       -30.8660  -15.5920   14.5550 C.3   216  PRO216      0.0268
     86  CG       -30.6590  -16.9030   15.2390 C.3   216  PRO216      0.0207
     87  CD       -30.8440  -16.5810   16.7040 C.3   216  PRO216      0.0892
     88  N        -32.2950  -14.1260    8.8950 N.3   220  LEU220     -0.1245
     89  CA       -30.8930  -14.3670    9.1130 C.3   220  LEU220      0.1561
     90  C        -30.6390  -15.8620    8.9360 C.2   220  LEU220      0.2260
     91  O        -29.6180  -16.2530    8.3800 O.2   220  LEU220     -0.2867
     92  CB       -30.4840  -13.8680   10.5170 C.3   220  LEU220      0.0270
     93  CG       -29.0720  -14.3090   10.9870 C.3   220  LEU220      0.0019
     94  CD1      -27.9690  -13.9190    9.9990 C.3   220  LEU220      0.0001
     95  CD2      -28.7440  -13.7570   12.3800 C.3   220  LEU220      0.0001
     96  N        -29.8550  -17.4270    5.6820 N.3   223  LYS223     -0.1231
     97  CA       -28.5530  -17.1350    5.1130 C.3   223  LYS223      0.1693
     98  C        -27.4820  -18.0660    5.6150 C.2   223  LYS223      0.2592
     99  O        -26.2790  -17.9580    5.2440 O.2   223  LYS223     -0.2718
    100  CB       -28.2490  -15.6470    5.3200 C.3   223  LYS223      0.0285
    101  CG       -29.3020  -14.8020    4.5970 C.3   223  LYS223      0.0035
    102  CD       -28.9840  -13.3250    4.4930 C.3   223  LYS223      0.0206
    103  CE       -28.9430  -12.6600    5.8750 C.3   223  LYS223      0.1093
    104  NZ       -28.8100  -11.2010    5.6540 N.3   223  LYS223     -0.1314
    105  N        -27.9010  -19.0190    6.4220 N.am  224  ILE224     -0.1966
    106  CA       -26.9770  -19.9610    7.0400 C.3   224  ILE224      0.1727
    107  C        -27.0700  -21.4070    6.4500 C.2   224  ILE224      0.2616
    108  O        -27.9370  -22.2130    6.7580 O.2   224  ILE224     -0.2715
    109  CB       -27.1090  -19.8780    8.5640 C.3   224  ILE224      0.0290
    110  CG1      -26.7720  -18.4240    8.9720 C.3   224  ILE224      0.0022
    111  CG2      -26.1800  -20.9010    9.2070 C.3   224  ILE224      0.0023
    112  CD1      -26.9210  -18.0360   10.4010 C.3   224  ILE224      0.0001
    113  N        -26.0790  -21.7360    5.6490 N.am  225  CYS225     -0.1954
    114  CA       -26.0390  -23.0110    4.9520 C.3   225  CYS225      0.1843
    115  C        -25.2510  -24.0330    5.6960 C.2   225  CYS225      0.2626
    116  O        -24.5250  -24.7660    5.0410 O.2   225  CYS225     -0.2714
    117  CB       -25.3170  -22.8300    3.6230 C.3   225  CYS225      0.0997
    118  SG       -23.5650  -22.3450    3.7890 S.3   225  CYS225     -0.0797
    119  N        -25.3040  -24.0410    7.0330 N.am  226  SER226     -0.1950
    120  CA       -24.7360  -25.1470    7.8040 C.3   226  SER226      0.1924
    121  C        -25.7460  -25.5490    8.8520 C.2   226  SER226      0.2314
    122  O        -26.0190  -24.7810    9.7830 O.2   226  SER226     -0.2863
    123  CB       -23.3730  -24.8130    8.4430 C.3   226  SER226      0.2116
    124  OG       -23.4760  -24.4060    9.7920 O.3   226  SER226     -0.2180
    125  N        -24.4810  -25.2730   12.4990 N.3   229  ALA229     -0.1245
    126  CA       -24.6800  -23.9590   13.1070 C.3   229  ALA229      0.1562
    127  C        -26.1430  -23.6200   13.2700 C.2   229  ALA229      0.2260
    128  O        -26.5390  -23.0770   14.3090 O.2   229  ALA229     -0.2867
    129  CB       -24.0020  -22.8730   12.2810 C.3   229  ALA229      0.0290
    130  N        -28.4500  -22.4890   17.0710 N.3   233  ILE233     -0.1245
    131  CA       -29.2870  -21.3680   17.4450 C.3   233  ILE233      0.1561
    132  C        -30.7420  -21.8070   17.6740 C.2   233  ILE233      0.2260
    133  O        -31.3310  -21.4730   18.7100 O.2   233  ILE233     -0.2867
    134  CB       -29.2650  -20.3010   16.3430 C.3   233  ILE233      0.0252
    135  CG1      -27.8400  -19.7220   16.1020 C.3   233  ILE233      0.0019
    136  CG2      -30.3170  -19.3180   16.8250 C.3   233  ILE233      0.0019
    137  CD1      -27.5260  -19.4260   14.6180 C.3   233  ILE233      0.0001
    138  N        -26.9210   -8.8290   15.0260 N.3   265  LEU265     -0.1231
    139  CA       -26.4470  -10.1650   14.8590 C.3   265  LEU265      0.1693
    140  C        -26.1410  -10.4250   13.3820 C.2   265  LEU265      0.2592
    141  O        -25.1500  -11.0590   13.0310 O.2   265  LEU265     -0.2718
    142  CB       -27.5220  -11.0980   15.4330 C.3   265  LEU265      0.0284
    143  CG       -27.1810  -12.4880   15.8410 C.3   265  LEU265      0.0019
    144  CD1      -25.9600  -12.4560   16.7470 C.3   265  LEU265      0.0001
    145  CD2      -28.3720  -13.1730   16.5270 C.3   265  LEU265      0.0001
    146  N        -26.9680   -9.8680   12.5240 N.am  266  ASP266     -0.1960
    147  CA       -26.8220  -10.0290   11.0940 C.3   266  ASP266      0.1840
    148  C        -25.8700   -9.0340   10.5560 C.2   266  ASP266      0.2623
    149  O        -26.2370   -7.8840   10.2530 O.2   266  ASP266     -0.2715
    150  CB       -28.1610   -9.8520   10.3910 C.3   266  ASP266      0.1450
    151  CG       -28.1190  -10.2010    8.9010 C.2   266  ASP266      0.3671
    152  OD1      -27.0520  -10.1710    8.2070 O.co2 266  ASP266     -0.2456
    153  OD2      -29.2310  -10.4910    8.3820 O.co2 266  ASP266     -0.2456
    154  N        -24.6730   -9.5070   10.2390 N.am  267  SER267     -0.1936
    155  CA       -23.6510   -8.6070    9.7660 C.3   267  SER267      0.2055
    156  C        -23.9800   -7.8890    8.5090 C.2   267  SER267      0.2643
    157  O        -23.3810   -6.8530    8.2340 O.2   267  SER267     -0.2714
    158  CB       -22.2960   -9.3340    9.6020 C.3   267  SER267      0.2130
    159  OG       -22.3880  -10.5290    8.8590 O.3   267  SER267     -0.2179
    160  N        -24.9260   -8.3900    7.7190 N.am  268  ASP268     -0.1971
    161  CA       -25.3760   -7.6460    6.5290 C.3   268  ASP268      0.1709
    162  C        -26.1390   -6.3840    6.8850 C.2   268  ASP268      0.2293
    163  O        -26.2760   -5.4930    6.0350 O.2   268  ASP268     -0.2864
    164  CB       -26.3510   -8.4540    5.6470 C.3   268  ASP268      0.1436
    165  CG       -25.7030   -9.7110    5.0510 C.2   268  ASP268      0.3671
    166  OD1      -26.4040  -10.6840    4.7890 O.co2 268  ASP268     -0.2456
    167  OD2      -24.4770   -9.7400    4.8900 O.co2 268  ASP268     -0.2456
@<TRIPOS>BOND
     1    55    56   ar
     2    55    53   ar
     3    56    54   ar
     4    53    52   ar
     5    54    52   ar
     6    52    51    1
     7   117   118    1
     8   117   114    1
     9    51    48    1
    10   102   101    1
    11   102   103    1
    12   101   100    1
    13    48    49    1
    14    48    47    1
    15   166   165   ar
    16   167   165   ar
    17   114   113    1
    18   114   115    1
    19    50    49    2
    20   116   115    2
    21   165   164    1
    22    97   100    1
    23    97    98    1
    24    97    96    1
    25    99    98    2
    26    44    46   ar
    27    44    42   ar
    28    98   105   am
    29   164   161    1
    30   113   107   am
    31   104   103    1
    32   115   119   am
    33    41    42   ar
    34    41    39   ar
    35    46    45   ar
    36   163   162    2
    37    42    40   ar
    38   105   106    1
    39   107   108    2
    40   107   106    1
    41   161   162    1
    42   161   160    1
    43    39    38   ar
    44   119   120    1
    45   106   109    1
    46    45    43   ar
    47    40    38   ar
    48    40    43   ar
    49   160   156   am
    50   120   123    1
    51   120   121    1
    52    38    37    1
    53   152   151   ar
    54   157   156    2
    55    91    90    2
    56   153   151   ar
    57    35    36    2
    58    35    34    1
    59   123   124    1
    60   156   155    1
    61   109   110    1
    62   109   111    1
    63   121   122    2
    64   159   158    1
    65    88    89    1
    66   151   150    1
    67    90    89    1
    68   110   112    1
    69    89    92    1
    70    34    37    1
    71    34    33    1
    72   158   155    1
    73    28    27    2
    74   155   154    1
    75    94    93    1
    76   154   148   am
    77   149   148    2
    78   150   147    1
    79    92    93    1
    80    33    27   am
    81   148   147    1
    82    27    26    1
    83    93    95    1
    84   147   146    1
    85    32    30   am
    86    31    30    2
    87    15    14   ar
    88    30    29    1
    89    13    12    1
    90    13    14    1
    91    12     9    1
    92    26    29    1
    93    26    25    1
    94   129   126    1
    95    14    16   ar
    96    11    10    2
    97   125   126    1
    98   146   140   am
    99    20    19    2
   100   141   140    2
   101   126   127    1
   102     9    10    1
   103     9     8    1
   104    25    19   am
   105   127   128    2
   106   140   139    1
   107    19    18    1
   108    21    18    1
   109    21    22    1
   110     8     3   am
   111    85    86    1
   112    85    82    1
   113    83    84    2
   114    83    82    1
   115   137   135    1
   116    18    17    1
   117    23    22    1
   118   139   138    1
   119   139   142    1
   120    22    24    1
   121    86    87    1
   122    82    81    1
   123   142   143    1
   124     3     4    2
   125     3     2    1
   126   143   145    1
   127   143   144    1
   128   135   134    1
   129   134   136    1
   130   134   131    1
   131     6     7    1
   132     6     5    1
   133    81    87    1
   134     1     7    1
   135     1     2    1
   136     2     5    1
   137   130   131    1
   138   131   132    1
   139   132   133    2
   140    64    62    1
   141    80    78    1
   142    63    62    1
   143    62    61    1
   144    79    78    1
   145    78    77    1
   146    71    69    1
   147    72    70    1
   148    61    58    1
   149    69    70    1
   150    69    66    1
   151    77    74    1
   152    58    59    1
   153    58    57    1
   154    74    73    1
   155    74    75    1
   156    68    67    2
   157    60    59    2
   158    73    67   am
   159    67    66    1
   160    76    75    2
   161    66    65    1
