@<TRIPOS>MOLECULE
tmp/5o90A01.pdb
 180 168 0 0 0
SMALL
GASTEIGER

@<TRIPOS>ATOM
      1  N        -29.9530    5.1800  -29.1020 N.3    26  VAL26      -0.1231
      2  CA       -29.3710    4.7960  -27.8130 C.3    26  VAL26       0.1692
      3  C        -28.5890    5.9580  -27.1980 C.2    26  VAL26       0.2593
      4  O        -27.8000    5.7560  -26.2520 O.2    26  VAL26      -0.2718
      5  CB       -28.4560    3.5590  -27.9240 C.3    26  VAL26       0.0266
      6  CG1      -27.8510    3.1790  -26.5770 C.3    26  VAL26       0.0020
      7  CG2      -29.2910    2.3780  -28.4250 C.3    26  VAL26       0.0020
      8  N        -28.7930    7.1780  -27.7070 N.am   27  GLY27      -0.1942
      9  CA       -28.2280    8.3430  -27.0670 C.3    27  GLY27       0.2014
     10  C        -27.2910    9.0950  -28.0050 C.2    27  GLY27       0.2640
     11  O        -27.4420    9.0420  -29.2360 O.2    27  GLY27      -0.2714
     12  N        -26.3280    9.7960  -27.3970 N.am   28  SER28      -0.1935
     13  CA       -25.4320   10.6770  -28.1160 C.3    28  SER28       0.2055
     14  C        -24.0530   10.0490  -28.2610 C.2    28  SER28       0.2644
     15  O        -23.6170    9.2760  -27.4060 O.2    28  SER28      -0.2714
     16  CB       -25.3060   12.0180  -27.4030 C.3    28  SER28       0.2130
     17  OG       -26.5730   12.6300  -27.2290 O.3    28  SER28      -0.2179
     18  N        -23.3630   10.4130  -29.3390 N.am   29  GLY29      -0.1939
     19  CA       -21.9520   10.1320  -29.4790 C.3    29  GLY29       0.2014
     20  C        -21.2330   11.3460  -30.0350 C.2    29  GLY29       0.2638
     21  O        -21.7970   12.4490  -30.0510 O.2    29  GLY29      -0.2714
     22  N        -19.9960   11.1770  -30.5020 N.am   30  ALA30      -0.1977
     23  CA       -19.1700   12.3500  -30.7520 C.3    30  ALA30       0.1597
     24  C        -19.5850   12.9900  -32.0700 C.2    30  ALA30       0.2287
     25  O        -19.4280   12.3940  -33.1480 O.2    30  ALA30      -0.2864
     26  CB       -17.6940   11.9770  -30.7540 C.3    30  ALA30       0.0319
     27  N        -26.4720    8.0370  -32.2580 N.3    34  VAL34      -0.1245
     28  CA       -26.2060    6.6600  -32.6500 C.3    34  VAL34       0.1561
     29  C        -27.4530    5.8060  -32.4270 C.2    34  VAL34       0.2260
     30  O        -28.1960    6.0020  -31.4580 O.2    34  VAL34      -0.2867
     31  CB       -24.9900    6.0710  -31.8780 C.3    34  VAL34       0.0252
     32  CG1      -23.8140    7.0560  -31.7880 C.3    34  VAL34       0.0019
     33  CG2      -25.4090    5.6640  -30.5160 C.3    34  VAL34       0.0019
     34  N        -24.1810   -0.8640  -33.5000 N.3    47  ALA47      -0.1245
     35  CA       -24.4310    0.5480  -33.2230 C.3    47  ALA47       0.1562
     36  C        -24.0750    1.3470  -34.4600 C.2    47  ALA47       0.2260
     37  O        -22.9900    1.1560  -35.0220 O.2    47  ALA47      -0.2867
     38  CB       -23.6040    1.0420  -32.0380 C.3    47  ALA47       0.0290
     39  N        -23.7440    5.2790  -35.8650 N.3    49  LYS49      -0.1245
     40  CA       -23.6470    6.7220  -35.6290 C.3    49  LYS49       0.1561
     41  C        -23.7750    7.4780  -36.9380 C.2    49  LYS49       0.2260
     42  O        -23.0630    7.1690  -37.9030 O.2    49  LYS49      -0.2867
     43  CB       -22.3100    7.0920  -35.0030 C.3    49  LYS49       0.0271
     44  CG       -22.1120    8.5820  -34.7840 C.3    49  LYS49       0.0035
     45  CD       -20.6460    8.8820  -34.7210 C.3    49  LYS49       0.0206
     46  CE       -20.1940    9.2170  -33.3310 C.3    49  LYS49       0.1093
     47  NZ       -18.7500    9.5160  -33.4410 N.3    49  LYS49      -0.1314
     48  N        -12.1260   11.5960  -37.3710 N.3    67  GLU67      -0.1245
     49  CA       -12.7410   10.4170  -36.7910 C.3    67  GLU67       0.1567
     50  C        -12.6460    9.2380  -37.7470 C.2    67  GLU67       0.2260
     51  O        -12.1120    8.1750  -37.3880 O.2    67  GLU67      -0.2867
     52  CB       -14.1940   10.7080  -36.4140 C.3    67  GLU67       0.0388
     53  CG       -14.9320    9.5220  -35.7620 C.3    67  GLU67       0.1160
     54  CD       -16.2350    9.9740  -35.1560 C.2    67  GLU67       0.3649
     55  OE1      -16.6420   11.0950  -35.5020 O.co2  67  GLU67      -0.2457
     56  OE2      -16.8490    9.2390  -34.3440 O.co2  67  GLU67      -0.2457
     57  N        -10.9560    5.7770  -36.9470 N.3    71  LEU71      -0.1245
     58  CA       -11.7560    4.5740  -36.8460 C.3    71  LEU71       0.1561
     59  C        -11.3500    3.5540  -37.8940 C.2    71  LEU71       0.2260
     60  O        -11.4450    2.3510  -37.6380 O.2    71  LEU71      -0.2867
     61  CB       -13.2380    4.9090  -36.9500 C.3    71  LEU71       0.0270
     62  CG       -13.8530    5.6480  -35.7540 C.3    71  LEU71       0.0019
     63  CD1      -15.3450    5.8520  -35.9940 C.3    71  LEU71       0.0001
     64  CD2      -13.5620    4.9740  -34.3450 C.3    71  LEU71       0.0001
     65  N        -12.9310    0.5460  -29.9880 N.3    80  ILE80      -0.1245
     66  CA       -13.9860    0.5520  -30.9920 C.3    80  ILE80       0.1561
     67  C        -13.3700    0.6030  -32.3820 C.2    80  ILE80       0.2260
     68  O        -12.4320    1.3970  -32.6480 O.2    80  ILE80      -0.2867
     69  CB       -14.9330    1.7270  -30.7210 C.3    80  ILE80       0.0252
     70  CG1      -15.8690    1.3530  -29.5740 C.3    80  ILE80       0.0019
     71  CG2      -15.6980    2.0530  -31.9190 C.3    80  ILE80       0.0019
     72  CD1      -17.1090    0.6300  -29.9820 C.3    80  ILE80       0.0001
     73  N        -14.4540   -0.1510  -36.7970 N.3    82  LEU82      -0.1245
     74  CA       -15.5380    0.0310  -37.7600 C.3    82  LEU82       0.1561
     75  C        -15.8660   -1.3360  -38.3670 C.2    82  LEU82       0.2260
     76  O        -14.9770   -2.0230  -38.8960 O.2    82  LEU82      -0.2867
     77  CB       -15.1570    1.0640  -38.8410 C.3    82  LEU82       0.0270
     78  CG       -15.3990    2.5870  -38.7140 C.3    82  LEU82       0.0019
     79  CD1      -15.2090    3.2190  -40.0860 C.3    82  LEU82       0.0001
     80  CD2      -16.7810    2.9670  -38.2110 C.3    82  LEU82       0.0001
     81  N        -21.3250    5.7950  -39.3710 N.3   100  LEU100     -0.1231
     82  CA       -20.3120    4.8650  -38.9130 C.3   100  LEU100      0.1693
     83  C        -21.0350    3.7690  -38.1490 C.2   100  LEU100      0.2592
     84  O        -22.0900    4.0310  -37.5790 O.2   100  LEU100     -0.2718
     85  CB       -19.2990    5.5940  -38.0590 C.3   100  LEU100      0.0284
     86  CG       -18.7500    6.9580  -38.4620 C.3   100  LEU100      0.0019
     87  CD1      -18.2640    7.6080  -37.1500 C.3   100  LEU100      0.0001
     88  CD2      -17.6050    6.8030  -39.3460 C.3   100  LEU100      0.0001
     89  N        -20.5290    2.5310  -38.1870 N.am  101  VAL101     -0.1966
     90  CA       -21.2020    1.4090  -37.5170 C.3   101  VAL101      0.1727
     91  C        -20.1720    0.5230  -36.8240 C.2   101  VAL101      0.2617
     92  O        -19.0410    0.3690  -37.3000 O.2   101  VAL101     -0.2715
     93  CB       -22.1280    0.5970  -38.4710 C.3   101  VAL101      0.0290
     94  CG1      -21.4680    0.3010  -39.7030 C.3   101  VAL101      0.0023
     95  CG2      -22.5580   -0.7210  -37.8760 C.3   101  VAL101      0.0023
     96  N        -20.5390    0.0100  -35.6490 N.am  102  THR102     -0.1937
     97  CA       -19.6230   -0.7700  -34.8340 C.3   102  THR102      0.2028
     98  C        -20.4250   -1.8340  -34.1020 C.2   102  THR102      0.2642
     99  O        -21.6590   -1.8200  -34.1130 O.2   102  THR102     -0.2714
    100  CB       -18.8540    0.1520  -33.8580 C.3   102  THR102      0.1808
    101  OG1      -17.6270   -0.4570  -33.4650 O.3   102  THR102     -0.2208
    102  CG2      -19.7030    0.4620  -32.6270 C.3   102  THR102      0.0379
    103  N        -19.7220   -2.8010  -33.5170 N.am  103  HIS103     -0.1959
    104  CA       -20.3990   -3.7590  -32.6430 C.3   103  HIS103      0.1787
    105  C        -21.1420   -3.0210  -31.5440 C.2   103  HIS103      0.2620
    106  O        -20.5950   -2.0950  -30.9370 O.2   103  HIS103     -0.2715
    107  CB       -19.4090   -4.7170  -31.9870 C.3   103  HIS103      0.0785
    108  CG       -18.5550   -5.4540  -32.9520 C.ar  103  HIS103      0.0821
    109  ND1      -18.9140   -6.6780  -33.4750 N.ar  103  HIS103     -0.2267
    110  CD2      -17.3440   -5.1600  -33.4760 C.ar  103  HIS103      0.1154
    111  CE1      -17.9650   -7.1040  -34.2910 C.ar  103  HIS103      0.1986
    112  NE2      -16.9970   -6.2040  -34.3040 N.ar  103  HIS103     -0.2212
    113  N        -22.3840   -3.4390  -31.3040 N.am  104  LEU104     -0.1963
    114  CA       -23.2380   -2.7940  -30.3240 C.3   104  LEU104      0.1728
    115  C        -22.7930   -3.2120  -28.9330 C.2   104  LEU104      0.2616
    116  O        -22.6840   -4.4090  -28.6380 O.2   104  LEU104     -0.2715
    117  CB       -24.7000   -3.1540  -30.5460 C.3   104  LEU104      0.0311
    118  CG       -25.6880   -2.5340  -29.5360 C.3   104  LEU104      0.0022
    119  CD1      -25.7720   -0.9710  -29.5610 C.3   104  LEU104      0.0001
    120  CD2      -27.0820   -3.1220  -29.7170 C.3   104  LEU104      0.0001
    121  N        -22.4970   -2.2410  -28.0860 N.am  105  MET105     -0.1963
    122  CA       -22.1400   -2.5360  -26.7060 C.3   105  MET105      0.1736
    123  C        -23.3120   -2.1410  -25.8120 C.2   105  MET105      0.2617
    124  O        -24.0680   -1.2260  -26.1300 O.2   105  MET105     -0.2715
    125  CB       -20.8500   -1.8030  -26.3430 C.3   105  MET105      0.0427
    126  CG       -19.6740   -2.1140  -27.3440 C.3   105  MET105      0.0599
    127  SD       -18.8800   -3.7120  -27.0160 S.3   105  MET105     -0.1393
    128  CE       -18.3000   -3.5410  -25.3230 C.3   105  MET105      0.0692
    129  N        -23.5160   -2.8630  -24.7270 N.am  106  GLY106     -0.1940
    130  CA       -24.7130   -2.6020  -23.9490 C.3   106  GLY106      0.2014
    131  C        -24.6810   -1.3820  -23.0320 C.2   106  GLY106      0.2639
    132  O        -25.7010   -0.6860  -22.8920 O.2   106  GLY106     -0.2714
    133  N        -23.5340   -1.0840  -22.4150 N.am  107  ALA107     -0.1963
    134  CA       -23.4710    0.0250  -21.4650 C.3   107  ALA107      0.1728
    135  C        -22.1100    0.7230  -21.5350 C.2   107  ALA107      0.2616
    136  O        -21.1940    0.3110  -22.2660 O.2   107  ALA107     -0.2715
    137  CB       -23.7300   -0.4600  -20.0360 C.3   107  ALA107      0.0334
    138  N        -22.0120    1.8130  -20.7770 N.am  108  ASP108     -0.1971
    139  CA       -20.7800    2.5330  -20.5090 C.3   108  ASP108      0.1709
    140  C        -20.5460    2.5500  -19.0020 C.2   108  ASP108      0.2293
    141  O        -21.4910    2.4180  -18.2220 O.2   108  ASP108     -0.2864
    142  CB       -20.8460    3.9660  -21.0480 C.3   108  ASP108      0.1436
    143  CG       -21.9110    4.8130  -20.3440 C.2   108  ASP108      0.3671
    144  OD1      -21.7580    5.0490  -19.1360 O.co2 108  ASP108     -0.2456
    145  OD2      -22.9020    5.2340  -20.9640 O.co2 108  ASP108     -0.2456
    146  N        -22.9020    4.2630  -16.5370 N.3   111  ASN111     -0.1240
    147  CA       -24.1190    3.5430  -16.1770 C.3   111  ASN111      0.1653
    148  C        -23.8540    2.3740  -15.2430 C.2   111  ASN111      0.2266
    149  O        -24.6900    2.0850  -14.3860 O.2   111  ASN111     -0.2867
    150  CB       -24.8300    3.0300  -17.4250 C.3   111  ASN111      0.1155
    151  CG       -25.2480    4.1560  -18.3670 C.2   111  ASN111      0.2627
    152  OD1      -25.5460    5.2810  -17.9220 O.2   111  ASN111     -0.2716
    153  ND2      -25.2770    3.8590  -19.6690 N.am  111  ASN111     -0.0877
    154  N        -17.7830    7.6810  -19.3840 N.3   150  SER150     -0.1217
    155  CA       -18.8090    7.5670  -20.4130 C.3   150  SER150      0.1889
    156  C        -18.2080    7.2240  -21.7720 C.2   150  SER150      0.2288
    157  O        -18.9500    7.0100  -22.7400 O.2   150  SER150     -0.2866
    158  CB       -19.5900    8.8730  -20.5090 C.3   150  SER150      0.2089
    159  OG       -18.7380    9.9420  -20.9000 O.3   150  SER150     -0.2183
    160  N        -17.0340    1.5840  -23.2040 N.3   153  ALA153     -0.1245
    161  CA       -18.2240    0.7910  -23.4700 C.3   153  ALA153      0.1562
    162  C        -18.0350   -0.6250  -22.9200 C.2   153  ALA153      0.2260
    163  O        -16.9360   -1.1980  -22.9830 O.2   153  ALA153     -0.2867
    164  CB       -18.5050    0.7630  -24.9810 C.3   153  ALA153      0.0290
    165  N        -13.7980    4.4320  -26.5280 N.3   163  LEU163     -0.1231
    166  CA       -14.2120    5.1650  -27.7110 C.3   163  LEU163      0.1693
    167  C        -14.0120    6.6560  -27.5020 C.2   163  LEU163      0.2592
    168  O        -13.6690    7.1230  -26.4030 O.2   163  LEU163     -0.2718
    169  CB       -15.6410    4.8350  -28.1080 C.3   163  LEU163      0.0284
    170  CG       -16.8940    5.1420  -27.3380 C.3   163  LEU163      0.0019
    171  CD1      -18.0030    5.1710  -28.3760 C.3   163  LEU163      0.0001
    172  CD2      -17.1870    4.0590  -26.3490 C.3   163  LEU163      0.0001
    173  N        -14.1480    7.3800  -28.6160 N.am  164  ASP164     -0.1974
    174  CA       -14.0390    8.8340  -28.6810 C.3   164  ASP164      0.1709
    175  C        -12.6100    9.3350  -28.4500 C.2   164  ASP164      0.2293
    176  O        -12.3940   10.5150  -28.1560 O.2   164  ASP164     -0.2864
    177  CB       -15.0560    9.4990  -27.7400 C.3   164  ASP164      0.1436
    178  CG       -16.4880    9.4160  -28.2930 C.2   164  ASP164      0.3671
    179  OD1      -16.6090    9.1340  -29.5220 O.co2 164  ASP164     -0.2456
    180  OD2      -17.4800    9.6210  -27.5340 O.co2 164  ASP164     -0.2456
@<TRIPOS>BOND
     1    79    78    1
     2    94    93    1
     3    81    82    1
     4    88    86    1
     5    82    83    1
     6    82    85    1
     7    76    75    2
     8    77    78    1
     9    77    74    1
    10    78    80    1
    11    93    95    1
    12    93    90    1
    13    86    85    1
    14    86    87    1
    15    75    74    1
    16    89    83   am
    17    89    90    1
    18    83    84    2
    19    42    41    2
    20    59    60    2
    21    59    58    1
    22    74    73    1
    23    50    51    2
    24    50    49    1
    25    90    91    1
    26    48    49    1
    27    92    91    2
    28    61    58    1
    29    61    62    1
    30    57    58    1
    31    41    40    1
    32    91    96   am
    33    49    52    1
    34    52    53    1
    35    63    62    1
    36    39    40    1
    37    53    54    1
    38    62    64    1
    39    96    97    1
    40    40    43    1
    41    55    54   ar
    42    54    56   ar
    43    37    36    2
    44    43    44    1
    45    97    98    1
    46    97   100    1
    47    44    45    1
    48    45    46    1
    49    36    35    1
    50   112   111   ar
    51   112   110   ar
    52   111   109   ar
    53    99    98    2
    54    98   103   am
    55   100   101    1
    56   100   102    1
    57   103   104    1
    58    34    35    1
    59   110   108   ar
    60   109   108   ar
    61    47    46    1
    62    35    38    1
    63    25    24    2
    64   108   107    1
    65    28    29    1
    66    28    27    1
    67    28    31    1
    68    68    67    2
    69   104   107    1
    70   104   105    1
    71    29    30    2
    72    67    66    1
    73    24    23    1
    74    71    69    1
    75    31    32    1
    76    31    33    1
    77   105   113   am
    78   105   106    2
    79   113   114    1
    80    66    69    1
    81    66    65    1
    82    26    23    1
    83    23    22    1
    84    69    70    1
    85   117   114    1
    86   117   118    1
    87    22    20   am
    88   114   115    1
    89    21    20    2
    90    20    19    1
    91    72    70    1
    92   120   118    1
    93   119   118    1
    94   179   178   ar
    95    19    18    1
    96    18    14   am
    97    11    10    2
    98     1     2    1
    99   115   116    2
   100   115   121   am
   101   174   173    1
   102   174   175    1
   103   174   177    1
   104   173   167   am
   105   175   176    2
   106     7     5    1
   107   171   170    1
   108   178   177    1
   109   178   180   ar
   110    14    13    1
   111    14    15    2
   112    13    16    1
   113    13    12    1
   114   169   166    1
   115   169   170    1
   116   121   122    1
   117    10    12   am
   118    10     9    1
   119     5     2    1
   120     5     6    1
   121     2     3    1
   122   166   167    1
   123   166   165    1
   124     8     3   am
   125     8     9    1
   126   167   168    2
   127    16    17    1
   128   126   127    1
   129   126   125    1
   130   170   172    1
   131     3     4    2
   132   127   128    1
   133   122   125    1
   134   122   123    1
   135   124   123    2
   136   123   129   am
   137   164   161    1
   138   129   130    1
   139   130   131    1
   140   161   160    1
   141   161   162    1
   142   131   132    2
   143   131   133   am
   144   163   162    2
   145   157   156    2
   146   133   134    1
   147   136   135    2
   148   156   155    1
   149   135   134    1
   150   135   138   am
   151   134   137    1
   152   142   139    1
   153   142   143    1
   154   145   143   ar
   155   159   158    1
   156   138   139    1
   157   158   155    1
   158   139   140    1
   159   155   154    1
   160   143   144   ar
   161   153   151   am
   162   140   141    2
   163   151   152    2
   164   151   150    1
   165   150   147    1
   166   146   147    1
   167   147   148    1
   168   148   149    2
