@<TRIPOS>MOLECULE
tmp/5o91A00.pdb
 209 194 0 0 0
SMALL
GASTEIGER

@<TRIPOS>ATOM
      1  N          6.6440   -2.3800  -16.7390 N.3    16  LYS16      -0.1245
      2  CA         6.7400   -3.0190  -15.4290 C.3    16  LYS16       0.1561
      3  C          6.8830   -4.5240  -15.5530 C.2    16  LYS16       0.2260
      4  O          6.8080   -5.0690  -16.6530 O.2    16  LYS16      -0.2867
      5  CB         5.5080   -2.6870  -14.5740 C.3    16  LYS16       0.0271
      6  CG         4.2180   -3.3410  -15.0370 C.3    16  LYS16       0.0035
      7  CD         2.9980   -2.6870  -14.4100 C.3    16  LYS16       0.0206
      8  CE         1.8390   -3.6670  -14.3350 C.3    16  LYS16       0.1093
      9  NZ         0.5860   -3.0540  -13.8250 N.3    16  LYS16      -0.1314
     10  N          5.0980   -8.0680  -14.5780 N.3    18  ILE18      -0.1231
     11  CA         3.7200   -8.5250  -14.3750 C.3    18  ILE18       0.1692
     12  C          3.6430  -10.0360  -14.1120 C.2    18  ILE18       0.2593
     13  O          2.5960  -10.6640  -14.3290 O.2    18  ILE18      -0.2718
     14  CB         2.8310   -8.1300  -15.5800 C.3    18  ILE18       0.0266
     15  CG1        3.2960   -8.8020  -16.8820 C.3    18  ILE18       0.0019
     16  CG2        2.8400   -6.6200  -15.7530 C.3    18  ILE18       0.0020
     17  CD1        2.3620   -8.5780  -18.0580 C.3    18  ILE18       0.0001
     18  N          4.7430  -10.6070  -13.6220 N.am   19  GLY19      -0.1942
     19  CA         4.8390  -12.0460  -13.4130 C.3    19  GLY19       0.2014
     20  C          6.2490  -12.5170  -13.1130 C.2    19  GLY19       0.2640
     21  O          7.2310  -11.8550  -13.4690 O.2    19  GLY19      -0.2714
     22  N          6.3320  -13.6680  -12.4520 N.am   20  SER20      -0.1935
     23  CA         7.6060  -14.3200  -12.1510 C.3    20  SER20       0.2055
     24  C          7.3890  -15.7880  -11.7610 C.2    20  SER20       0.2643
     25  O          6.2800  -16.1880  -11.3810 O.2    20  SER20      -0.2714
     26  CB         8.3550  -13.5650  -11.0480 C.3    20  SER20       0.2130
     27  OG         7.4770  -13.1750  -10.0080 O.3    20  SER20      -0.2179
     28  N          8.4570  -16.5780  -11.8680 N.am   21  GLY21      -0.1954
     29  CA         8.4010  -18.0240  -11.6140 C.3    21  GLY21       0.1869
     30  C          9.6930  -18.7150  -12.0290 C.2    21  GLY21       0.2309
     31  O         10.1270  -18.5860  -13.1780 O.2    21  GLY21      -0.2863
     32  N         12.2900  -17.0230  -14.6510 N.3    24  SER24      -0.1217
     33  CA        11.6250  -16.3290  -15.7550 C.3    24  SER24       0.1889
     34  C         10.8340  -15.1300  -15.2500 C.2    24  SER24       0.2288
     35  O         10.2100  -15.1900  -14.1930 O.2    24  SER24      -0.2866
     36  CB        10.7030  -17.2800  -16.5290 C.3    24  SER24       0.2089
     37  OG         9.6360  -17.7440  -15.7250 O.3    24  SER24      -0.2183
     38  N          8.0370  -12.0700  -16.5250 N.3    26  VAL26      -0.1245
     39  CA         7.1140  -11.5060  -17.5070 C.3    26  VAL26       0.1561
     40  C          7.0920   -9.9920  -17.3150 C.2    26  VAL26       0.2260
     41  O          6.9070   -9.5190  -16.1960 O.2    26  VAL26      -0.2867
     42  CB         5.6910  -12.0730  -17.3470 C.3    26  VAL26       0.0252
     43  CG1        4.8100  -11.6510  -18.5180 C.3    26  VAL26       0.0019
     44  CG2        5.7380  -13.5900  -17.2290 C.3    26  VAL26       0.0019
     45  N          5.5500   -6.1370  -18.9010 N.3    28  GLN28      -0.1245
     46  CA         4.6010   -5.3970  -19.7050 C.3    28  GLN28       0.1566
     47  C          5.4310   -4.3600  -20.4310 C.2    28  GLN28       0.2260
     48  O          6.0910   -3.5560  -19.7920 O.2    28  GLN28      -0.2867
     49  CB         3.5780   -4.7330  -18.7970 C.3    28  GLN28       0.0367
     50  CG         2.4860   -3.9740  -19.5140 C.3    28  GLN28       0.0905
     51  CD         1.6270   -3.1770  -18.5590 C.2    28  GLN28       0.2608
     52  OE1        0.4090   -3.3110  -18.5610 O.2    28  GLN28      -0.2717
     53  NE2        2.2560   -2.3430  -17.7350 N.am   28  GLN28      -0.0878
     54  N          3.4560   -8.4540  -23.6960 N.3    38  ALA38      -0.1245
     55  CA         4.0440   -9.0900  -22.5310 C.3    38  ALA38       0.1562
     56  C          5.2180   -9.9240  -22.9940 C.2    38  ALA38       0.2260
     57  O          5.0330  -10.8830  -23.7390 O.2    38  ALA38      -0.2867
     58  CB         3.0210   -9.9620  -21.8250 C.3    38  ALA38       0.0290
     59  N          7.8970  -12.5780  -21.9490 N.3    40  LYS40      -0.1245
     60  CA         8.4160  -13.5330  -20.9710 C.3    40  LYS40       0.1561
     61  C          9.8790  -13.7320  -21.2830 C.2    40  LYS40       0.2260
     62  O         10.2260  -14.1900  -22.3650 O.2    40  LYS40      -0.2867
     63  CB         7.6960  -14.8780  -21.0400 C.3    40  LYS40       0.0271
     64  CG         8.1640  -15.8890  -19.9910 C.3    40  LYS40       0.0035
     65  CD         7.7010  -17.3110  -20.2880 C.3    40  LYS40       0.0206
     66  CE         6.2030  -17.4530  -20.0840 C.3    40  LYS40       0.1093
     67  NZ         5.6570  -18.8180  -20.3300 N.3    40  LYS40      -0.1314
     68  N         -2.8590  -18.3330  -26.2710 N.3    73  ILE73      -0.1245
     69  CA        -2.2230  -17.0070  -26.2470 C.3    73  ILE73       0.1561
     70  C         -1.3420  -16.7760  -27.4780 C.2    73  ILE73       0.2260
     71  O         -0.6920  -17.7130  -27.9490 O.2    73  ILE73      -0.2867
     72  CB        -1.4150  -16.7910  -24.9450 C.3    73  ILE73       0.0252
     73  CG1       -1.0710  -15.3070  -24.7580 C.3    73  ILE73       0.0019
     74  CG2       -0.1570  -17.6540  -24.9180 C.3    73  ILE73       0.0019
     75  CD1       -0.3490  -14.9970  -23.4610 C.3    73  ILE73       0.0001
     76  N          4.6690  -11.7680  -26.3430 N.3    89  MET89      -0.1230
     77  CA         3.3280  -12.3410  -26.3470 C.3    89  MET89       0.1702
     78  C          2.2310  -11.3000  -26.2210 C.2    89  MET89       0.2592
     79  O          2.4800  -10.1430  -25.8910 O.2    89  MET89      -0.2718
     80  CB         3.2060  -13.3620  -25.2180 C.3    89  MET89       0.0401
     81  CG         4.2140  -14.4920  -25.3420 C.3    89  MET89       0.0596
     82  SD         3.8800  -15.8640  -24.2290 S.3    89  MET89      -0.1393
     83  CE         4.2520  -15.0940  -22.6640 C.3    89  MET89       0.0692
     84  N          1.0200  -11.7530  -26.5220 N.am   90  GLU90      -0.1966
     85  CA        -0.2330  -11.0550  -26.2460 C.3    90  GLU90       0.1733
     86  C         -0.2730  -10.5950  -24.7960 C.2    90  GLU90       0.2616
     87  O          0.0430  -11.3700  -23.8930 O.2    90  GLU90      -0.2715
     88  CB        -1.3990  -12.0200  -26.4890 C.3    90  GLU90       0.0429
     89  CG        -2.7630  -11.3990  -26.7080 C.3    90  GLU90       0.1163
     90  CD        -3.7990  -12.4180  -27.1730 C.2    90  GLU90       0.3649
     91  OE1       -3.5630  -13.6430  -27.0280 O.co2  90  GLU90      -0.2457
     92  OE2       -4.8590  -11.9910  -27.6880 O.co2  90  GLU90      -0.2457
     93  N         -0.6410   -9.3330  -24.5830 N.am   91  TRP91      -0.1960
     94  CA        -0.8280   -8.7940  -23.2400 C.3    91  TRP91       0.1771
     95  C         -2.3020   -8.8270  -22.8520 C.2    91  TRP91       0.2620
     96  O         -3.1740   -8.4290  -23.6310 O.2    91  TRP91      -0.2715
     97  CB        -0.3040   -7.3720  -23.1380 C.3    91  TRP91       0.0590
     98  CG        -0.5290   -6.7910  -21.7940 C.ar   91  TRP91       0.0006
     99  CD1        0.2910   -6.8810  -20.7050 C.ar   91  TRP91       0.0946
    100  CD2       -1.6720   -6.0450  -21.3800 C.ar   91  TRP91       0.0152
    101  NE1       -0.2690   -6.2220  -19.6390 N.ar   91  TRP91      -0.2442
    102  CE2       -1.4740   -5.6950  -20.0280 C.ar   91  TRP91       0.0810
    103  CE3       -2.8480   -5.6300  -22.0260 C.ar   91  TRP91       0.0012
    104  CZ2       -2.4140   -4.9460  -19.3060 C.ar   91  TRP91       0.0191
    105  CZ3       -3.7790   -4.8860  -21.3060 C.ar   91  TRP91       0.0001
    106  CH2       -3.5540   -4.5530  -19.9610 C.ar   91  TRP91       0.0015
    107  N         -2.5520   -9.2470  -21.6180 N.am   92  GLY92      -0.1940
    108  CA        -3.8900   -9.4590  -21.1010 C.3    92  GLY92       0.2014
    109  C         -4.0630   -8.6350  -19.8510 C.2    92  GLY92       0.2639
    110  O         -3.0800   -8.2620  -19.1980 O.2    92  GLY92      -0.2714
    111  N         -5.3220   -8.3800  -19.5110 N.am   93  ASN93      -0.1958
    112  CA        -5.6740   -7.4600  -18.4220 C.3    93  ASN93       0.1819
    113  C         -5.2350   -8.0540  -17.0790 C.2    93  ASN93       0.2621
    114  O         -4.5700   -7.3940  -16.2710 O.2    93  ASN93      -0.2715
    115  CB        -7.1930   -7.1930  -18.4010 C.3    93  ASN93       0.1195
    116  CG        -7.7550   -6.8010  -19.7690 C.2    93  ASN93       0.2630
    117  OD1       -7.4180   -7.4010  -20.7980 O.2    93  ASN93      -0.2716
    118  ND2       -8.6360   -5.8040  -19.7810 N.am   93  ASN93      -0.0877
    119  N         -5.6060   -9.3190  -16.8840 N.am   94  ILE94      -0.1963
    120  CA        -5.4320  -10.0400  -15.6260 C.3    94  ILE94       0.1727
    121  C         -5.6040  -11.5490  -15.8810 C.2    94  ILE94       0.2616
    122  O         -6.3400  -11.9390  -16.7890 O.2    94  ILE94      -0.2715
    123  CB        -6.4660   -9.5390  -14.5760 C.3    94  ILE94       0.0290
    124  CG1       -6.1040  -10.0230  -13.1680 C.3    94  ILE94       0.0022
    125  CG2       -7.9000   -9.9210  -14.9640 C.3    94  ILE94       0.0023
    126  CD1       -7.0740   -9.5790  -12.0960 C.3    94  ILE94       0.0001
    127  N         -4.9250  -12.3840  -15.0970 N.am   95  ASP95      -0.1971
    128  CA        -5.1430  -13.8400  -15.1380 C.3    95  ASP95       0.1709
    129  C         -6.3990  -14.2220  -14.3550 C.2    95  ASP95       0.2293
    130  O         -6.8330  -13.4830  -13.4890 O.2    95  ASP95      -0.2864
    131  CB        -3.9340  -14.5960  -14.5930 C.3    95  ASP95       0.1436
    132  CG        -3.7630  -14.4130  -13.1080 C.2    95  ASP95       0.3671
    133  OD1       -3.5580  -13.2580  -12.6870 O.co2  95  ASP95      -0.2456
    134  OD2       -3.8500  -15.4090  -12.3610 O.co2  95  ASP95      -0.2456
    135  N         -6.3820  -14.4870  -10.3870 N.3    98  SER98      -0.1217
    136  CA        -6.5000  -13.1750   -9.7530 C.3    98  SER98       0.1889
    137  C         -7.8780  -12.5370   -9.9270 C.2    98  SER98       0.2288
    138  O         -8.3360  -11.8140   -9.0530 O.2    98  SER98      -0.2866
    139  CB        -5.4230  -12.2550  -10.3050 C.3    98  SER98       0.2089
    140  OG        -4.1640  -12.8890  -10.1950 O.3    98  SER98      -0.2183
    141  N        -10.6940  -11.7720   -6.8070 N.3   102  LYS102     -0.1245
    142  CA       -11.4340  -10.5310   -6.5450 C.3   102  LYS102      0.1561
    143  C        -12.8900  -10.8230   -6.2510 C.2   102  LYS102      0.2260
    144  O        -13.3990  -10.5230   -5.1680 O.2   102  LYS102     -0.2867
    145  CB       -11.3950   -9.5730   -7.7350 C.3   102  LYS102      0.0271
    146  CG       -10.0430   -8.9560   -8.0110 C.3   102  LYS102      0.0035
    147  CD       -10.2040   -7.5610   -8.5970 C.3   102  LYS102      0.0206
    148  CE        -8.9500   -7.1020   -9.3190 C.3   102  LYS102      0.1093
    149  NZ        -7.7200   -7.2360   -8.4890 N.3   102  LYS102     -0.1314
    150  N         -4.9090  -24.9200  -13.7850 N.3   136  LYS136     -0.1245
    151  CA        -5.4450  -24.0920  -12.7070 C.3   136  LYS136      0.1561
    152  C         -5.9430  -22.8040  -13.3450 C.2   136  LYS136      0.2260
    153  O         -5.6770  -22.5710  -14.5300 O.2   136  LYS136     -0.2867
    154  CB        -4.3520  -23.7840  -11.6880 C.3   136  LYS136      0.0271
    155  CG        -3.6920  -25.0240  -11.0960 C.3   136  LYS136      0.0035
    156  CD        -2.5800  -24.6880  -10.1050 C.3   136  LYS136      0.0206
    157  CE        -1.4460  -23.8770  -10.7300 C.3   136  LYS136      0.1093
    158  NZ        -0.9950  -24.3660  -12.0700 N.3   136  LYS136     -0.1314
    159  N         -4.8130  -19.8980  -12.7330 N.3   138  ALA138     -0.1231
    160  CA        -3.5420  -19.2380  -13.0090 C.3   138  ALA138      0.1694
    161  C         -3.0990  -19.3900  -14.4540 C.2   138  ALA138      0.2592
    162  O         -2.5530  -18.4470  -15.0220 O.2   138  ALA138     -0.2718
    163  CB        -2.4740  -19.7910  -12.0740 C.3   138  ALA138      0.0304
    164  N         -3.3480  -20.5700  -15.0350 N.am  139  ASN139     -0.1974
    165  CA        -2.9780  -20.8820  -16.4290 C.3   139  ASN139      0.1688
    166  C         -3.7870  -20.1410  -17.4900 C.2   139  ASN139      0.2292
    167  O         -3.3970  -20.1430  -18.6590 O.2   139  ASN139     -0.2864
    168  CB        -3.1090  -22.3810  -16.7130 C.3   139  ASN139      0.1181
    169  CG        -2.2030  -23.2210  -15.8470 C.2   139  ASN139      0.2629
    170  OD1       -2.4740  -23.4380  -14.6660 O.2   139  ASN139     -0.2716
    171  ND2       -1.1280  -23.7110  -16.4310 N.am  139  ASN139     -0.0877
    172  N         -5.5460  -16.6220  -18.9880 N.3   141  LEU141     -0.1245
    173  CA        -5.3630  -15.1810  -19.0180 C.3   141  LEU141      0.1561
    174  C         -6.5970  -14.5590  -19.6340 C.2   141  LEU141      0.2260
    175  O         -7.0440  -15.0130  -20.6790 O.2   141  LEU141     -0.2867
    176  CB        -4.1540  -14.8440  -19.8850 C.3   141  LEU141      0.0270
    177  CG        -3.8230  -13.3680  -20.1190 C.3   141  LEU141      0.0019
    178  CD1       -3.2380  -12.7690  -18.8450 C.3   141  LEU141      0.0001
    179  CD2       -2.8810  -13.2090  -21.3120 C.3   141  LEU141      0.0001
    180  N         -2.3380  -19.8880  -21.3990 N.3   150  ILE150     -0.1231
    181  CA        -0.9830  -19.3360  -21.3920 C.3   150  ILE150      0.1692
    182  C          0.0550  -20.3910  -21.7400 C.2   150  ILE150      0.2592
    183  O          1.0220  -20.0980  -22.4320 O.2   150  ILE150     -0.2718
    184  CB        -0.6220  -18.7240  -20.0220 C.3   150  ILE150      0.0266
    185  CG1       -1.5360  -17.5430  -19.7210 C.3   150  ILE150      0.0019
    186  CG2        0.8280  -18.2490  -19.9890 C.3   150  ILE150      0.0020
    187  CD1       -1.4640  -17.0820  -18.2850 C.3   150  ILE150      0.0001
    188  N         -0.1210  -21.6020  -21.2300 N.am  151  ASP151     -0.1974
    189  CA         0.8770  -22.6410  -21.4320 C.3   151  ASP151      0.1709
    190  C          0.2610  -24.0440  -21.4280 C.2   151  ASP151      0.2293
    191  O         -0.8700  -24.2290  -21.0020 O.2   151  ASP151     -0.2864
    192  CB         1.9820  -22.5090  -20.3750 C.3   151  ASP151      0.1436
    193  CG         1.6540  -23.2390  -19.0940 C.2   151  ASP151      0.3671
    194  OD1        0.5500  -23.0210  -18.5520 O.co2 151  ASP151     -0.2456
    195  OD2        2.5010  -24.0410  -18.6450 O.co2 151  ASP151     -0.2456
    196  N          6.7760  -27.6290  -20.5370 N.3   155  ALA155     -0.1245
    197  CA         8.0470  -27.2210  -19.9380 C.3   155  ALA155      0.1562
    198  C          8.1970  -27.6270  -18.4710 C.2   155  ALA155      0.2260
    199  O          7.2090  -27.7000  -17.7360 O.2   155  ALA155     -0.2867
    200  CB         8.2190  -25.7240  -20.0630 C.3   155  ALA155      0.0290
    201  N          9.1360  -27.2760  -14.6360 N.3   157  GLN157     -0.1245
    202  CA         8.9440  -26.1590  -13.7020 C.3   157  GLN157      0.1566
    203  C         10.0660  -26.1260  -12.6410 C.2   157  GLN157      0.2260
    204  O          9.9170  -26.6860  -11.5490 O.2   157  GLN157     -0.2867
    205  CB         7.5530  -26.2380  -13.0270 C.3   157  GLN157      0.0367
    206  CG         6.3620  -26.6100  -13.9200 C.3   157  GLN157      0.0905
    207  CD         6.1320  -25.6670  -15.0940 C.2   157  GLN157      0.2608
    208  OE1        6.4780  -24.4880  -15.0370 O.2   157  GLN157     -0.2717
    209  NE2        5.5200  -26.1860  -16.1620 N.am  157  GLN157     -0.0878
@<TRIPOS>BOND
     1    71    70    2
     2    92    90   ar
     3    70    69    1
     4    90    91   ar
     5    90    89    1
     6    89    88    1
     7    84    85    1
     8    84    78   am
     9    88    85    1
    10    77    76    1
    11    77    78    1
    12    77    80    1
    13    68    69    1
    14    69    72    1
    15    85    86    1
    16    78    79    2
    17    81    80    1
    18    81    82    1
    19    72    74    1
    20    72    73    1
    21    86    93   am
    22    86    87    2
    23    73    75    1
    24    93    94    1
    25    82    83    1
    26    57    56    2
    27    54    55    1
    28    96    95    2
    29    94    97    1
    30    94    95    1
    31    97    98    1
    32    56    55    1
    33    95   107   am
    34    55    58    1
    35   183   182    2
    36    62    61    2
    37   103   100   ar
    38   103   105   ar
    39    59    60    1
    40    98   100   ar
    41    98    99   ar
    42   182   181    1
    43   182   188   am
    44   107   108    1
    45   189   190    1
    46   189   188    1
    47   189   192    1
    48   190   191    2
    49   180   181    1
    50   181   184    1
    51   100   102   ar
    52   179   177    1
    53   105   106   ar
    54    61    60    1
    55   108   109    1
    56    63    60    1
    57    63    64    1
    58   117   116    2
    59    99   101   ar
    60   175   174    2
    61   196   197    1
    62    47    48    2
    63    47    46    1
    64   192   193    1
    65    67    66    1
    66    65    66    1
    67    65    64    1
    68   177   176    1
    69   177   178    1
    70   200   197    1
    71   102   101   ar
    72   102   104   ar
    73   184   186    1
    74   184   185    1
    75   106   104   ar
    76   197   198    1
    77   176   173    1
    78   109   111   am
    79   109   110    2
    80   118   116   am
    81   116   115    1
    82   185   187    1
    83    46    45    1
    84    46    49    1
    85   174   173    1
    86    50    49    1
    87    50    51    1
    88   111   112    1
    89   193   195   ar
    90   193   194   ar
    91   173   172    1
    92   167   166    2
    93    52    51    2
    94    51    53   am
    95    43    42    1
    96   198   199    2
    97   112   115    1
    98   112   113    1
    99    17    15    1
   100    39    42    1
   101    39    40    1
   102    39    38    1
   103   166   165    1
   104    42    44    1
   105    40    41    2
   106   113   119   am
   107   113   114    2
   108   119   120    1
   109    15    14    1
   110   122   121    2
   111     1     2    1
   112   168   165    1
   113   168   169    1
   114     4     3    2
   115    36    33    1
   116    36    37    1
   117   171   169   am
   118   165   164    1
   119   209   207   am
   120   121   120    1
   121   121   127   am
   122   169   170    2
   123    33    34    1
   124    33    32    1
   125    16    14    1
   126   120   123    1
   127    14    11    1
   128     3     2    1
   129     2     5    1
   130    34    35    2
   131   128   127    1
   132   128   131    1
   133   128   129    1
   134   207   208    2
   135   207   206    1
   136     6     5    1
   137     6     7    1
   138   164   161   am
   139   162   161    2
   140   125   123    1
   141   201   202    1
   142   131   132    1
   143    10    11    1
   144   123   124    1
   145   153   152    2
   146   161   160    1
   147     7     8    1
   148    11    12    1
   149   129   130    2
   150     8     9    1
   151    13    12    2
   152    12    18   am
   153   206   205    1
   154   150   151    1
   155   202   205    1
   156   202   203    1
   157    18    19    1
   158    21    20    2
   159    19    20    1
   160   152   151    1
   161    31    30    2
   162   124   126    1
   163    20    22   am
   164   132   133   ar
   165   132   134   ar
   166   160   159    1
   167   160   163    1
   168   151   154    1
   169   203   204    2
   170    22    23    1
   171    23    24    1
   172    23    26    1
   173   158   157    1
   174    30    29    1
   175    28    24   am
   176    28    29    1
   177    24    25    2
   178   154   155    1
   179   155   156    1
   180    26    27    1
   181   157   156    1
   182   135   136    1
   183   139   140    1
   184   139   136    1
   185   137   136    1
   186   137   138    2
   187   148   147    1
   188   148   149    1
   189   147   146    1
   190   146   145    1
   191   145   142    1
   192   141   142    1
   193   142   143    1
   194   143   144    2
