@<TRIPOS>MOLECULE
tmp/5o96D00.pdb
 165 165 0 0 0
SMALL
GASTEIGER

@<TRIPOS>ATOM
      1  N        -14.6240  -55.8530   79.2220 N.3   115  ARG115     -0.1245
      2  CA       -13.9730  -54.5520   79.2070 C.3   115  ARG115      0.1563
      3  C        -14.9610  -53.3940   79.1140 C.2   115  ARG115      0.2260
      4  O        -14.5460  -52.2650   78.8290 O.2   115  ARG115     -0.2867
      5  CB       -12.9610  -54.4840   78.0610 C.3   115  ARG115      0.0307
      6  CG       -11.6910  -55.2990   78.3130 C.3   115  ARG115      0.0489
      7  CD       -10.8630  -55.4130   77.0440 C.3   115  ARG115      0.2205
      8  NE        -9.6350  -56.2010   77.1580 N.pl3 115  ARG115     -0.0865
      9  CZ        -9.6080  -57.5210   77.3180 C.cat 115  ARG115      0.5346
     10  NH1      -10.7390  -58.1980   77.4230 N.pl3 115  ARG115      0.1354
     11  NH2       -8.4550  -58.1630   77.3950 N.pl3 115  ARG115      0.1354
     12  N        -16.3430  -59.5050   65.5570 N.3   172  LEU172     -0.1231
     13  CA       -15.2390  -58.6940   65.0520 C.3   172  LEU172      0.1693
     14  C        -14.0380  -58.8050   65.9730 C.2   172  LEU172      0.2592
     15  O        -14.1160  -58.4280   67.1470 O.2   172  LEU172     -0.2718
     16  CB       -15.6580  -57.2390   64.9290 C.3   172  LEU172      0.0284
     17  CG       -16.0490  -56.8150   63.5290 C.3   172  LEU172      0.0019
     18  CD1      -17.1290  -57.7270   62.9760 C.3   172  LEU172      0.0001
     19  CD2      -16.5260  -55.3940   63.6130 C.3   172  LEU172      0.0001
     20  N        -12.9290  -59.2940   65.4350 N.am  173  HIS173     -0.1962
     21  CA       -11.6810  -59.4480   66.1670 C.3   173  HIS173      0.1772
     22  C        -10.5980  -59.8980   65.1860 C.2   173  HIS173      0.2462
     23  O        -10.8780  -60.6950   64.2780 O.2   173  HIS173     -0.2730
     24  CB       -11.8600  -60.4470   67.3170 C.3   173  HIS173      0.0785
     25  CG       -10.7570  -60.4210   68.3310 C.ar  173  HIS173      0.0821
     26  ND1      -10.3050  -59.2570   68.9150 N.ar  173  HIS173     -0.2267
     27  CD2      -10.0240  -61.4220   68.8730 C.ar  173  HIS173      0.1154
     28  CE1       -9.3340  -59.5400   69.7640 C.ar  173  HIS173      0.1986
     29  NE2       -9.1450  -60.8470   69.7580 N.ar  173  HIS173     -0.2212
     30  N         -9.3620  -59.3960   65.3230 N.am  174  PRO174     -0.2727
     31  CA        -8.3030  -59.7580   64.3570 C.3   174  PRO174      0.1402
     32  C         -7.8850  -61.2250   64.3470 C.2   174  PRO174      0.2269
     33  O         -7.5630  -61.7330   63.2700 O.2   174  PRO174     -0.2865
     34  CB        -7.1320  -58.8560   64.7770 C.3   174  PRO174      0.0296
     35  CG        -7.7970  -57.6560   65.3510 C.3   174  PRO174      0.0237
     36  CD        -9.0110  -58.1860   66.0880 C.3   174  PRO174      0.0939
     37  N        -19.8510  -56.7800   68.2590 N.3   194  ILE194     -0.1231
     38  CA       -18.8220  -55.7480   68.2330 C.3   194  ILE194      0.1692
     39  C        -18.4560  -55.3890   69.6670 C.2   194  ILE194      0.2593
     40  O        -19.3010  -55.4150   70.5660 O.2   194  ILE194     -0.2718
     41  CB       -19.2990  -54.4960   67.4680 C.3   194  ILE194      0.0266
     42  CG1      -20.0320  -54.9160   66.1860 C.3   194  ILE194      0.0019
     43  CG2      -18.1330  -53.5720   67.1850 C.3   194  ILE194      0.0020
     44  CD1      -19.5050  -54.2820   64.9360 C.3   194  ILE194      0.0001
     45  N        -17.1900  -55.0300   69.8770 N.am  195  GLY195     -0.1943
     46  CA       -16.6690  -54.8840   71.2140 C.3   195  GLY195      0.1998
     47  C        -16.5420  -53.4510   71.6830 C.2   195  GLY195      0.2481
     48  O        -16.7240  -52.4920   70.9200 O.2   195  GLY195     -0.2729
     49  N        -16.2160  -53.2790   72.9670 N.am  196  PRO196     -0.2715
     50  CA       -15.9450  -51.9380   73.4830 C.3   196  PRO196      0.1536
     51  C        -14.5900  -51.4810   73.0030 C.2   196  PRO196      0.2598
     52  O        -13.9150  -52.2410   72.2930 O.2   196  PRO196     -0.2715
     53  CB       -15.9730  -52.1470   74.9950 C.3   196  PRO196      0.0310
     54  CG       -15.4130  -53.5340   75.1360 C.3   196  PRO196      0.0237
     55  CD       -15.9080  -54.3190   73.9580 C.3   196  PRO196      0.0939
     56  N        -14.1530  -50.2760   73.3520 N.am  197  GLU197     -0.1964
     57  CA       -12.7900  -49.9000   72.9900 C.3   197  GLU197      0.1733
     58  C        -11.7780  -50.8850   73.5440 C.2   197  GLU197      0.2617
     59  O        -10.6940  -51.0480   72.9740 O.2   197  GLU197     -0.2715
     60  CB       -12.4750  -48.4960   73.4740 C.3   197  GLU197      0.0429
     61  CG       -13.0960  -47.4420   72.6140 C.3   197  GLU197      0.1163
     62  CD       -12.4870  -47.3640   71.2200 C.2   197  GLU197      0.3649
     63  OE1      -11.2920  -47.7040   71.0880 O.co2 197  GLU197     -0.2457
     64  OE2      -13.2000  -46.9590   70.2660 O.co2 197  GLU197     -0.2457
     65  N        -12.1180  -51.5670   74.6360 N.am  198  GLY198     -0.1940
     66  CA       -11.1740  -52.4890   75.2360 C.3   198  GLY198      0.2014
     67  C        -10.8660  -53.6790   74.3470 C.2   198  GLY198      0.2639
     68  O         -9.7030  -54.0570   74.1770 O.2   198  GLY198     -0.2714
     69  N        -11.9050  -54.3010   73.7860 N.am  199  GLY199     -0.1939
     70  CA       -11.7730  -55.5390   73.0420 C.3   199  GLY199      0.2014
     71  C        -12.3830  -56.7040   73.7900 C.2   199  GLY199      0.2638
     72  O        -13.4130  -56.5390   74.5100 O.2   199  GLY199     -0.2714
     73  N        -11.7830  -57.8750   73.6810 N.am  200  PHE200     -0.1973
     74  CA       -12.4060  -59.0770   74.2070 C.3   200  PHE200      0.1639
     75  C        -11.4460  -59.9100   75.0460 C.2   200  PHE200      0.2290
     76  O        -10.2680  -60.0620   74.7060 O.2   200  PHE200     -0.2864
     77  CB       -12.9730  -59.9160   73.0710 C.3   200  PHE200      0.0560
     78  CG       -14.2050  -59.3270   72.4450 C.ar  200  PHE200     -0.0200
     79  CD1      -15.4390  -59.4310   73.0760 C.ar  200  PHE200     -0.0042
     80  CD2      -14.1350  -58.6790   71.2280 C.ar  200  PHE200     -0.0042
     81  CE1      -16.5770  -58.9020   72.5010 C.ar  200  PHE200     -0.0003
     82  CE2      -15.2690  -58.1480   70.6500 C.ar  200  PHE200     -0.0003
     83  CZ       -16.4930  -58.2600   71.2910 C.ar  200  PHE200     -0.0000
     84  N        -14.5050  -62.1640   62.1910 N.3   216  LEU216     -0.1231
     85  CA       -14.5480  -61.3060   61.0180 C.3   216  LEU216      0.1693
     86  C        -13.5840  -60.1430   61.2080 C.2   216  LEU216      0.2593
     87  O        -13.5380  -59.5420   62.2880 O.2   216  LEU216     -0.2718
     88  CB       -15.9670  -60.7870   60.7610 C.3   216  LEU216      0.0284
     89  CG       -16.0690  -59.8380   59.5740 C.3   216  LEU216      0.0019
     90  CD1      -15.7660  -60.6080   58.3250 C.3   216  LEU216      0.0001
     91  CD2      -17.4130  -59.1580   59.4830 C.3   216  LEU216      0.0001
     92  N        -12.8210  -59.8330   60.1610 N.am  217  SER217     -0.1938
     93  CA       -11.9650  -58.6600   60.1270 C.3   217  SER217      0.2055
     94  C        -12.5290  -57.6330   59.1590 C.2   217  SER217      0.2643
     95  O        -13.2520  -57.9720   58.2170 O.2   217  SER217     -0.2714
     96  CB       -10.5520  -59.0000   59.6820 C.3   217  SER217      0.2130
     97  OG       -10.5670  -59.3380   58.3090 O.3   217  SER217     -0.2179
     98  N        -12.1750  -56.3690   59.3970 N.am  218  LEU218     -0.1963
     99  CA       -12.5660  -55.2620   58.5350 C.3   218  LEU218      0.1728
    100  C        -11.3240  -54.4420   58.1870 C.2   218  LEU218      0.2617
    101  O        -11.2840  -53.2280   58.3600 O.2   218  LEU218     -0.2715
    102  CB       -13.6340  -54.3930   59.2020 C.3   218  LEU218      0.0311
    103  CG       -15.0170  -55.0130   59.4830 C.3   218  LEU218      0.0022
    104  CD1      -15.8440  -54.0850   60.3470 C.3   218  LEU218      0.0001
    105  CD2      -15.7840  -55.3780   58.1980 C.3   218  LEU218      0.0001
    106  N        -10.2970  -55.1150   57.6870 N.am  219  GLY219     -0.1941
    107  CA        -9.0890  -54.4440   57.2620 C.3   219  GLY219      0.1998
    108  C         -8.0630  -54.2410   58.3670 C.2   219  GLY219      0.2481
    109  O         -8.2900  -54.5640   59.5350 O.2   219  GLY219     -0.2729
    110  N         -6.9180  -53.6550   58.0130 N.am  220  PRO220     -0.2715
    111  CA        -5.7950  -53.5780   58.9590 C.3   220  PRO220      0.1536
    112  C         -5.8410  -52.4130   59.9280 C.2   220  PRO220      0.2598
    113  O         -5.0560  -52.3960   60.8880 O.2   220  PRO220     -0.2715
    114  CB        -4.5800  -53.4660   58.0340 C.3   220  PRO220      0.0310
    115  CG        -5.1140  -52.9450   56.7280 C.3   220  PRO220      0.0237
    116  CD        -6.6250  -52.9380   56.7650 C.3   220  PRO220      0.0939
    117  N         -6.7150  -51.4400   59.7220 N.am  221  ARG221     -0.1964
    118  CA        -6.7910  -50.3080   60.6380 C.3   221  ARG221      0.1729
    119  C         -7.7780  -50.6030   61.7580 C.2   221  ARG221      0.2616
    120  O         -8.8150  -51.2390   61.5380 O.2   221  ARG221     -0.2715
    121  CB        -7.1720  -49.0180   59.8990 C.3   221  ARG221      0.0348
    122  CG        -6.2230  -48.6450   58.7400 C.3   221  ARG221      0.0492
    123  CD        -6.8670  -47.7080   57.7120 C.3   221  ARG221      0.2205
    124  NE        -7.9560  -48.3620   56.9830 N.pl3 221  ARG221     -0.0865
    125  CZ        -7.7700  -49.1640   55.9370 C.cat 221  ARG221      0.5346
    126  NH1       -6.5490  -49.3970   55.4890 N.pl3 221  ARG221      0.1354
    127  NH2       -8.7990  -49.7320   55.3340 N.pl3 221  ARG221      0.1354
    128  N         -7.4460  -50.1310   62.9560 N.am  222  VAL222     -0.1963
    129  CA        -8.2820  -50.2970   64.1400 C.3   222  VAL222      0.1727
    130  C         -9.4030  -49.2700   64.0760 C.2   222  VAL222      0.2616
    131  O         -9.1610  -48.0750   64.2130 O.2   222  VAL222     -0.2715
    132  CB        -7.4730  -50.1270   65.4250 C.3   222  VAL222      0.0290
    133  CG1       -8.3670  -50.0980   66.6460 C.3   222  VAL222      0.0023
    134  CG2       -6.4840  -51.2240   65.5510 C.3   222  VAL222      0.0023
    135  N        -10.6340  -49.7360   63.8820 N.am  223  LEU223     -0.1963
    136  CA       -11.7800  -48.8440   63.8810 C.3   223  LEU223      0.1728
    137  C        -12.2640  -48.5910   65.3000 C.2   223  LEU223      0.2616
    138  O        -12.2740  -49.4930   66.1440 O.2   223  LEU223     -0.2715
    139  CB       -12.9290  -49.4370   63.0620 C.3   223  LEU223      0.0311
    140  CG       -12.5300  -49.9660   61.6920 C.3   223  LEU223      0.0022
    141  CD1      -13.7070  -50.6340   61.0170 C.3   223  LEU223      0.0001
    142  CD2      -11.9700  -48.8420   60.8460 C.3   223  LEU223      0.0001
    143  N        -12.7150  -47.3660   65.5500 N.am  224  ARG224     -0.1963
    144  CA       -13.4330  -47.1140   66.7870 C.3   224  ARG224      0.1729
    145  C        -14.6850  -47.9900   66.8720 C.2   224  ARG224      0.2616
    146  O        -15.2800  -48.3900   65.8660 O.2   224  ARG224     -0.2715
    147  CB       -13.8280  -45.6490   66.8940 C.3   224  ARG224      0.0348
    148  CG       -12.6840  -44.7110   67.2330 C.3   224  ARG224      0.0492
    149  CD       -13.1700  -43.2810   67.0950 C.3   224  ARG224      0.2205
    150  NE       -12.0830  -42.3260   67.2110 N.pl3 224  ARG224     -0.0865
    151  CZ       -11.6920  -41.7900   68.3600 C.cat 224  ARG224      0.5346
    152  NH1      -12.3110  -42.1280   69.4920 N.pl3 224  ARG224      0.1354
    153  NH2      -10.6770  -40.9270   68.3730 N.pl3 224  ARG224      0.1354
    154  N        -15.0820  -48.2600   68.1150 N.am  225  THR225     -0.1951
    155  CA       -16.2050  -49.1390   68.3970 C.3   225  THR225      0.1897
    156  C        -17.4710  -48.6900   67.6780 C.2   225  THR225      0.2313
    157  O        -18.1810  -49.5280   67.1140 O.2   225  THR225     -0.2863
    158  CB       -16.4250  -49.2370   69.9140 C.3   225  THR225      0.1794
    159  OG1      -17.3960  -50.2480   70.1860 O.3   225  THR225     -0.2208
    160  CG2      -16.8630  -47.9080   70.5140 C.3   225  THR225      0.0378
    161  N        -16.9090  -49.3260   63.8480 N.3   228  ALA228     -0.1245
    162  CA       -16.9300  -50.7290   63.4630 C.3   228  ALA228      0.1562
    163  C        -18.3450  -51.2160   63.2040 C.2   228  ALA228      0.2260
    164  O        -18.5570  -52.0640   62.3330 O.2   228  ALA228     -0.2867
    165  CB       -16.2730  -51.5690   64.5630 C.3   228  ALA228      0.0290
@<TRIPOS>BOND
     1   127   125    1
     2   126   125    1
     3   125   124    2
     4   115   116    1
     5   115   114    1
     6   116   110    1
     7   124   123    1
     8   107   106    1
     9   107   108    1
    10   106   100   am
    11   123   122    1
    12   110   108   am
    13   110   111    1
    14   114   111    1
    15   100   101    2
    16   100    99    1
    17   105   103    1
    18    95    94    2
    19    97    96    1
    20    90    89    1
    21   108   109    2
    22    99   102    1
    23    99    98    1
    24   122   121    1
    25   111   112    1
    26    94    98   am
    27    94    93    1
    28   102   103    1
    29   103   104    1
    30    91    89    1
    31    89    88    1
    32    96    93    1
    33   117   112   am
    34   117   118    1
    35   121   118    1
    36   112   113    2
    37    93    92    1
    38    92    86   am
    39   118   119    1
    40    88    85    1
    41   142   140    1
    42   141   140    1
    43    85    86    1
    44    85    84    1
    45    86    87    2
    46   120   119    2
    47   140   139    1
    48   119   128   am
    49   164   163    2
    50   128   129    1
    51    18    17    1
    52   139   136    1
    53   163   162    1
    54    33    32    2
    55   162   161    1
    56   162   165    1
    57    17    19    1
    58    17    16    1
    59   136   135    1
    60   136   137    1
    61   135   130   am
    62   130   129    1
    63   130   131    2
    64   129   132    1
    65    23    22    2
    66    32    31    1
    67    31    34    1
    68    31    30    1
    69    34    35    1
    70    16    13    1
    71    44    42    1
    72    13    12    1
    73    13    14    1
    74    22    30   am
    75    22    21    1
    76   137   143   am
    77   137   138    2
    78    30    36    1
    79    35    36    1
    80   132   134    1
    81   132   133    1
    82    20    14   am
    83    20    21    1
    84   143   144    1
    85   146   145    2
    86    14    15    2
    87    21    24    1
    88    42    41    1
    89   144   145    1
    90   144   147    1
    91   145   154   am
    92   147   148    1
    93   149   150    1
    94   149   148    1
    95   157   156    2
    96    43    41    1
    97   150   151    2
    98    24    25    1
    99    41    38    1
   100   156   155    1
   101   154   155    1
   102    38    37    1
   103    38    39    1
   104    25    27   ar
   105    25    26   ar
   106   151   153    1
   107   151   152    1
   108   155   158    1
   109    27    29   ar
   110    26    28   ar
   111    39    45   am
   112    39    40    2
   113    29    28   ar
   114    45    46    1
   115   158   159    1
   116   158   160    1
   117    64    62   ar
   118    82    80   ar
   119    82    83   ar
   120    48    47    2
   121    63    62   ar
   122    46    47    1
   123    62    61    1
   124    80    78   ar
   125    83    81   ar
   126    47    49   am
   127    52    51    2
   128    78    77    1
   129    78    79   ar
   130    81    79   ar
   131    61    60    1
   132    49    50    1
   133    49    55    1
   134    59    58    2
   135    57    56    1
   136    57    60    1
   137    57    58    1
   138    51    56   am
   139    51    50    1
   140    70    69    1
   141    70    71    1
   142    77    74    1
   143    50    53    1
   144    58    65   am
   145    73    71   am
   146    73    74    1
   147    69    67   am
   148    71    72    2
   149    55    54    1
   150    68    67    2
   151    74    75    1
   152    67    66    1
   153    65    66    1
   154    76    75    2
   155    53    54    1
   156     7     8    1
   157     7     6    1
   158     8     9    2
   159     9    11    1
   160     9    10    1
   161     5     6    1
   162     5     2    1
   163     4     3    2
   164     3     2    1
   165     2     1    1
