@<TRIPOS>MOLECULE
tmp/5o97A00.pdb
 125 124 0 0 0
SMALL
GASTEIGER

@<TRIPOS>ATOM
      1  N         33.4070   44.7700    1.0910 N.3    40  TRP40      -0.1228
      2  CA        33.6060   46.1250    1.6180 C.3    40  TRP40       0.1722
      3  C         32.3370   46.9450    1.8510 C.2    40  TRP40       0.2437
      4  O         32.2890   47.6670    2.8630 O.2    40  TRP40      -0.2733
      5  CB        34.6650   46.9020    0.8120 C.3    40  TRP40       0.0563
      6  CG        34.3230   47.0820   -0.6360 C.ar   40  TRP40       0.0003
      7  CD1       34.6490   46.2360   -1.6590 C.ar   40  TRP40       0.0946
      8  CD2       33.5910   48.1670   -1.2370 C.ar   40  TRP40       0.0152
      9  NE1       34.1580   46.7160   -2.8500 N.ar   40  TRP40      -0.2442
     10  CE2       33.5040   47.8960   -2.6180 C.ar   40  TRP40       0.0810
     11  CE3       32.9960   49.3350   -0.7380 C.ar   40  TRP40       0.0012
     12  CZ2       32.8510   48.7480   -3.5080 C.ar   40  TRP40       0.0191
     13  CZ3       32.3450   50.1760   -1.6290 C.ar   40  TRP40       0.0001
     14  CH2       32.2780   49.8780   -2.9910 C.ar   40  TRP40       0.0015
     15  N         31.3100   46.9270    0.9910 N.am   41  PRO41      -0.2718
     16  CA        30.1230   47.7470    1.2900 C.3    41  PRO41       0.1535
     17  C         29.3860   47.2980    2.5320 C.2    41  PRO41       0.2598
     18  O         28.6080   48.0860    3.0940 O.2    41  PRO41      -0.2715
     19  CB        29.2390   47.5670    0.0540 C.3    41  PRO41       0.0310
     20  CG        30.1440   47.0490   -1.0020 C.3    41  PRO41       0.0237
     21  CD        31.1350   46.2000   -0.2800 C.3    41  PRO41       0.0939
     22  N         29.6230   46.0660    2.9920 N.am   42  PHE42      -0.1974
     23  CA        28.8620   45.4420    4.0570 C.3    42  PHE42       0.1639
     24  C         29.6520   45.3840    5.3470 C.2    42  PHE42       0.2290
     25  O         29.1550   44.8300    6.3210 O.2    42  PHE42      -0.2864
     26  CB        28.4270   44.0410    3.6090 C.3    42  PHE42       0.0560
     27  CG        27.6610   44.0490    2.3230 C.ar   42  PHE42      -0.0200
     28  CD1       26.3160   44.4180    2.3030 C.ar   42  PHE42      -0.0042
     29  CD2       28.2880   43.7450    1.1380 C.ar   42  PHE42      -0.0042
     30  CE1       25.6100   44.4590    1.1090 C.ar   42  PHE42      -0.0003
     31  CE2       27.5850   43.7830   -0.0560 C.ar   42  PHE42      -0.0003
     32  CZ        26.2540   44.1400   -0.0670 C.ar   42  PHE42      -0.0000
     33  N         30.4180   47.7550    7.4700 N.3    44  GLN44      -0.1231
     34  CA        30.0640   48.8070    8.4160 C.3    44  GLN44       0.1683
     35  C         28.6630   49.2980    8.0650 C.2    44  GLN44       0.2434
     36  O         28.1770   49.0420    6.9610 O.2    44  GLN44      -0.2733
     37  CB        31.0840   49.9610    8.3640 C.3    44  GLN44       0.0380
     38  CG        31.1740   50.6760    7.0150 C.3    44  GLN44       0.0905
     39  CD        31.9130   49.8510    5.9660 C.2    44  GLN44       0.2608
     40  OE1       33.0350   49.3950    6.1980 O.2    44  GLN44      -0.2717
     41  NE2       31.2860   49.6580    4.8140 N.am   44  GLN44      -0.0878
     42  N         27.9730   49.9660    8.9950 N.am   45  PRO45      -0.2718
     43  CA        26.6400   50.5060    8.6750 C.3    45  PRO45       0.1535
     44  C         26.6670   51.4050    7.4470 C.2    45  PRO45       0.2598
     45  O         27.6570   52.0780    7.1700 O.2    45  PRO45      -0.2715
     46  CB        26.2740   51.3080    9.9290 C.3    45  PRO45       0.0310
     47  CG        27.0110   50.6100   11.0290 C.3    45  PRO45       0.0237
     48  CD        28.3280   50.2040   10.4070 C.3    45  PRO45       0.0939
     49  N         25.5740   51.3720    6.6800 N.am   46  VAL46      -0.1964
     50  CA        25.4340   52.2680    5.5320 C.3    46  VAL46       0.1727
     51  C         25.4750   53.7160    6.0150 C.2    46  VAL46       0.2616
     52  O         24.6760   54.1240    6.8690 O.2    46  VAL46      -0.2715
     53  CB        24.1320   51.9700    4.7870 C.3    46  VAL46       0.0290
     54  CG1       23.8920   53.0190    3.6980 C.3    46  VAL46       0.0023
     55  CG2       24.1540   50.5600    4.1960 C.3    46  VAL46       0.0023
     56  N         26.4120   54.4960    5.4750 N.am   47  ASP47      -0.1971
     57  CA        26.5180   55.9310    5.7590 C.3    47  ASP47       0.1709
     58  C         25.6990   56.6540    4.6950 C.2    47  ASP47       0.2293
     59  O         26.1850   56.9710    3.6060 O.2    47  ASP47      -0.2864
     60  CB        27.9780   56.3710    5.7590 C.3    47  ASP47       0.1436
     61  CG        28.1620   57.8300    6.1410 C.2    47  ASP47       0.3671
     62  OD1       27.1920   58.6130    6.0820 O.co2  47  ASP47      -0.2456
     63  OD2       29.3000   58.2000    6.5020 O.co2  47  ASP47      -0.2456
     64  N         26.9930   58.6550    1.2440 N.3    51  LEU51      -0.1245
     65  CA        26.5210   58.0370    0.0110 C.3    51  LEU51       0.1561
     66  C         25.3700   58.7930   -0.6390 C.2    51  LEU51       0.2260
     67  O         24.9190   58.3960   -1.7180 O.2    51  LEU51      -0.2867
     68  CB        26.1310   56.5850    0.2720 C.3    51  LEU51       0.0270
     69  CG        27.3250   55.6990    0.6500 C.3    51  LEU51       0.0019
     70  CD1       26.8910   54.3490    1.2110 C.3    51  LEU51       0.0001
     71  CD2       28.2510   55.5220   -0.5590 C.3    51  LEU51       0.0001
     72  N         22.1280   59.0500    0.1970 N.3    53  LEU53      -0.1245
     73  CA        20.9450   58.1920    0.1360 C.3    53  LEU53       0.1561
     74  C         19.9820   58.6350    1.2310 C.2    53  LEU53       0.2260
     75  O         19.7630   57.9120    2.2080 O.2    53  LEU53      -0.2867
     76  CB        21.3180   56.7190    0.2970 C.3    53  LEU53       0.0270
     77  CG        22.4090   56.1650   -0.6220 C.3    53  LEU53       0.0019
     78  CD1       22.8120   54.7570   -0.1950 C.3    53  LEU53       0.0001
     79  CD2       21.9600   56.1790   -2.0750 C.3    53  LEU53       0.0001
     80  N         17.3930   56.1390    2.5770 N.3    56  TYR56      -0.1241
     81  CA        17.7840   54.7770    2.9270 C.3    56  TYR56       0.1605
     82  C         17.1190   54.3280    4.2240 C.2    56  TYR56       0.2264
     83  O         16.5030   53.2570    4.2860 O.2    56  TYR56      -0.2867
     84  CB        19.3090   54.6510    3.0210 C.3    56  TYR56       0.0534
     85  CG        19.7210   53.2230    3.3030 C.ar   56  TYR56      -0.0201
     86  CD1       19.8130   52.2830    2.2780 C.ar   56  TYR56      -0.0009
     87  CD2       19.9520   52.7930    4.6020 C.ar   56  TYR56      -0.0009
     88  CE1       20.1480   50.9620    2.5440 C.ar   56  TYR56       0.0417
     89  CE2       20.2850   51.4780    4.8730 C.ar   56  TYR56       0.0417
     90  CZ        20.3880   50.5730    3.8410 C.ar   56  TYR56       0.1957
     91  OH        20.7070   49.2520    4.1040 O.3    56  TYR56      -0.2866
     92  N         19.4340   44.8190    1.4240 N.3    95  CYS95      -0.1235
     93  CA        20.0590   45.2160    0.1800 C.3    95  CYS95       0.1677
     94  C         19.1170   44.9720   -0.9870 C.2    95  CYS95       0.2270
     95  O         18.9860   45.8190   -1.8800 O.2    95  CYS95      -0.2867
     96  CB        21.3550   44.4300    0.0000 C.3    95  CYS95       0.0956
     97  SG        22.3220   44.8960   -1.4300 S.3    95  CYS95      -0.0801
     98  N         16.1290   47.5900   -0.8150 N.3    98  TYR98      -0.1227
     99  CA        16.4250   48.9850   -1.1300 C.3    98  TYR98       0.1736
    100  C         16.7760   49.1800   -2.6010 C.2    98  TYR98       0.2595
    101  O         16.3360   50.1580   -3.2160 O.2    98  TYR98      -0.2718
    102  CB        17.5360   49.5340   -0.2220 C.3    98  TYR98       0.0548
    103  CG        17.8120   50.9870   -0.5250 C.ar   98  TYR98      -0.0200
    104  CD1       16.9190   51.9750   -0.1220 C.ar   98  TYR98      -0.0009
    105  CD2       18.9190   51.3680   -1.2660 C.ar   98  TYR98      -0.0009
    106  CE1       17.1380   53.3110   -0.4230 C.ar   98  TYR98       0.0417
    107  CE2       19.1390   52.7090   -1.5890 C.ar   98  TYR98       0.0417
    108  CZ        18.2530   53.6690   -1.1450 C.ar   98  TYR98       0.1957
    109  OH        18.4760   54.9920   -1.4620 O.3    98  TYR98      -0.2866
    110  N         17.5330   48.2550   -3.1930 N.am   99  ASN99      -0.1974
    111  CA        18.1450   48.4480   -4.5010 C.3    99  ASN99       0.1688
    112  C         17.3290   47.7830   -5.6100 C.2    99  ASN99       0.2292
    113  O         16.2700   47.2050   -5.3810 O.2    99  ASN99      -0.2864
    114  CB        19.5840   47.9370   -4.4670 C.3    99  ASN99       0.1181
    115  CG        20.4370   48.7300   -3.5310 C.2    99  ASN99       0.2629
    116  OD1       20.8510   49.8440   -3.8690 O.2    99  ASN99      -0.2716
    117  ND2       20.7020   48.1910   -2.3500 N.am   99  ASN99      -0.0877
    118  N         25.5250   46.5340   -6.2380 N.3   105  ILE105     -0.1245
    119  CA        25.4670   46.1540   -4.8340 C.3   105  ILE105      0.1561
    120  C         24.6730   44.8650   -4.6370 C.2   105  ILE105      0.2260
    121  O         24.9970   44.0680   -3.7530 O.2   105  ILE105     -0.2867
    122  CB        24.9520   47.3300   -3.9780 C.3   105  ILE105      0.0252
    123  CG1       25.1400   47.0350   -2.4960 C.3   105  ILE105      0.0019
    124  CG2       23.4940   47.6450   -4.2860 C.3   105  ILE105      0.0019
    125  CD1       26.5540   47.1860   -2.0220 C.3   105  ILE105      0.0001
@<TRIPOS>BOND
     1   118   119    1
     2   112   113    2
     3   112   111    1
     4   119   120    1
     5   119   122    1
     6   120   121    2
     7   111   114    1
     8   111   110    1
     9   114   115    1
    10   124   122    1
    11   122   123    1
    12   116   115    2
    13   115   117   am
    14    12    14   ar
    15    12    10   ar
    16   101   100    2
    17   110   100   am
    18    14    13   ar
    19     9    10   ar
    20     9     7   ar
    21    10     8   ar
    22   100    99    1
    23   123   125    1
    24    79    77    1
    25    95    94    2
    26    67    66    2
    27     7     6   ar
    28    13    11   ar
    29   107   105   ar
    30   107   108   ar
    31   109   108    1
    32    97    96    1
    33   105   103   ar
    34     8    11   ar
    35     8     6   ar
    36   108   106   ar
    37    99    98    1
    38    99   102    1
    39    20    21    1
    40    20    19    1
    41    94    93    1
    42    66    65    1
    43     6     5    1
    44    77    78    1
    45    77    76    1
    46    71    69    1
    47   103   102    1
    48   103   104   ar
    49   106   104   ar
    50    21    15    1
    51    32    31   ar
    52    32    30   ar
    53    31    29   ar
    54    96    93    1
    55    65    68    1
    56    65    64    1
    57    19    16    1
    58    73    72    1
    59    73    76    1
    60    73    74    1
    61    93    92    1
    62    68    69    1
    63    69    70    1
    64     5     2    1
    65    15    16    1
    66    15     3   am
    67     1     2    1
    68    30    28   ar
    69    29    27   ar
    70    74    75    2
    71    16    17    1
    72     2     3    1
    73     3     4    2
    74    86    88   ar
    75    86    85   ar
    76    28    27   ar
    77    27    26    1
    78    17    22   am
    79    17    18    2
    80    88    90   ar
    81    80    81    1
    82    81    84    1
    83    81    82    1
    84    22    23    1
    85    84    85    1
    86    85    87   ar
    87    59    58    2
    88    26    23    1
    89    54    53    1
    90    90    91    1
    91    90    89   ar
    92    23    24    1
    93    55    53    1
    94    82    83    2
    95    87    89   ar
    96    58    57    1
    97    53    50    1
    98    41    39   am
    99    24    25    2
   100    56    57    1
   101    56    51   am
   102    50    51    1
   103    50    49    1
   104    57    60    1
   105    60    61    1
   106    39    40    2
   107    39    38    1
   108    51    52    2
   109    62    61   ar
   110    61    63   ar
   111    49    44   am
   112    36    35    2
   113    38    37    1
   114    45    44    2
   115    44    43    1
   116    33    34    1
   117    35    34    1
   118    35    42   am
   119    37    34    1
   120    43    42    1
   121    43    46    1
   122    42    48    1
   123    46    47    1
   124    48    47    1
