@<TRIPOS>MOLECULE
tmp/5o9cD01.pdb
 154 147 0 0 0
SMALL
GASTEIGER

@<TRIPOS>ATOM
      1  N        120.7140  121.6340   75.3170 N.3    16  TYR16      -0.1241
      2  CA       119.6050  121.0610   74.5590 C.3    16  TYR16       0.1605
      3  C        120.1120  119.9560   73.6420 C.2    16  TYR16       0.2264
      4  O        121.0980  120.1500   72.9250 O.2    16  TYR16      -0.2867
      5  CB       118.9220  122.1120   73.6840 C.3    16  TYR16       0.0534
      6  CG       117.9360  123.0130   74.3740 C.ar   16  TYR16      -0.0201
      7  CD1      117.7490  122.9620   75.7480 C.ar   16  TYR16      -0.0009
      8  CD2      117.1780  123.9210   73.6410 C.ar   16  TYR16      -0.0009
      9  CE1      116.8330  123.8030   76.3720 C.ar   16  TYR16       0.0417
     10  CE2      116.2630  124.7560   74.2580 C.ar   16  TYR16       0.0417
     11  CZ       116.0920  124.6870   75.6190 C.ar   16  TYR16       0.1957
     12  OH       115.1860  125.5180   76.2280 O.3    16  TYR16      -0.2866
     13  N        116.8040  118.9930   65.4040 N.3    20  ASP20      -0.1239
     14  CA       116.8000  120.3510   64.8820 C.3    20  ASP20       0.1674
     15  C        118.1150  121.0230   65.2360 C.2    20  ASP20       0.2266
     16  O        118.3720  121.3160   66.4080 O.2    20  ASP20      -0.2867
     17  CB       115.6400  121.1460   65.4640 C.3    20  ASP20       0.1410
     18  CG       115.2180  122.2810   64.5720 C.2    20  ASP20       0.3668
     19  OD1      116.1050  122.9260   63.9690 O.co2  20  ASP20      -0.2456
     20  OD2      114.0090  122.5850   64.5260 O.co2  20  ASP20      -0.2456
     21  N        118.1870  124.4080   67.3780 N.3    23  VAL23      -0.1245
     22  CA       117.8390  124.3210   68.7860 C.3    23  VAL23       0.1561
     23  C        118.9070  123.5740   69.5790 C.2    23  VAL23       0.2260
     24  O        119.1740  123.9290   70.7380 O.2    23  VAL23      -0.2867
     25  CB       116.4720  123.6030   68.8850 C.3    23  VAL23       0.0252
     26  CG1      116.2140  123.0350   70.2560 C.3    23  VAL23       0.0019
     27  CG2      115.3360  124.5280   68.4230 C.3    23  VAL23       0.0019
     28  N        102.5740  128.3150   82.8590 N.3   100  ASP100     -0.1225
     29  CA       103.9710  128.5660   82.5300 C.3   100  ASP100      0.1805
     30  C        104.8460  128.1690   83.7180 C.2   100  ASP100      0.2598
     31  O        105.5000  129.0030   84.3400 O.2   100  ASP100     -0.2718
     32  CB       104.1670  130.0350   82.1700 C.3   100  ASP100      0.1424
     33  CG       105.4940  130.3030   81.5070 C.2   100  ASP100      0.3668
     34  OD1      106.1280  129.3440   81.0300 O.co2 100  ASP100     -0.2456
     35  OD2      105.9060  131.4800   81.4690 O.co2 100  ASP100     -0.2456
     36  N        104.8600  126.8640   84.0230 N.am  101  VAL101     -0.1966
     37  CA       105.6220  126.3750   85.1740 C.3   101  VAL101      0.1727
     38  C        106.4350  125.1220   84.8560 C.2   101  VAL101      0.2616
     39  O        106.8040  124.3740   85.7680 O.2   101  VAL101     -0.2715
     40  CB       104.6900  126.0940   86.3760 C.3   101  VAL101      0.0290
     41  CG1      104.1120  127.3960   86.9700 C.3   101  VAL101      0.0023
     42  CG2      103.5690  125.1020   85.9910 C.3   101  VAL101      0.0023
     43  N        106.7260  124.8660   83.5870 N.am  102  LEU102     -0.1964
     44  CA       107.4290  123.6220   83.2680 C.3   102  LEU102      0.1713
     45  C        108.9120  123.7160   83.6340 C.2   102  LEU102      0.2458
     46  O        109.4600  124.8150   83.7560 O.2   102  LEU102     -0.2730
     47  CB       107.2660  123.2790   81.7850 C.3   102  LEU102      0.0310
     48  CG       105.8360  123.2360   81.2490 C.3   102  LEU102      0.0022
     49  CD1      105.8060  122.5340   79.9150 C.3   102  LEU102      0.0001
     50  CD2      104.8940  122.5640   82.2370 C.3   102  LEU102      0.0001
     51  N        109.5900  122.5690   83.8240 N.am  103  PRO103     -0.2716
     52  CA       111.0430  122.6250   84.0990 C.3   103  PRO103      0.1536
     53  C        111.8270  123.5050   83.1260 C.2   103  PRO103      0.2598
     54  O        112.6070  124.3550   83.5690 O.2   103  PRO103     -0.2715
     55  CB       111.4710  121.1530   84.0120 C.3   103  PRO103      0.0310
     56  CG       110.2300  120.3720   84.2480 C.3   103  PRO103      0.0237
     57  CD       109.1240  121.1800   83.6370 C.3   103  PRO103      0.0939
     58  N        111.6280  123.3580   81.8140 N.am  104  GLU104     -0.1964
     59  CA       112.3360  124.2400   80.8840 C.3   104  GLU104      0.1733
     60  C        111.4470  124.7620   79.7530 C.2   104  GLU104      0.2616
     61  O        111.5840  125.9150   79.3430 O.2   104  GLU104     -0.2715
     62  CB       113.5690  123.5270   80.3060 C.3   104  GLU104      0.0429
     63  CG       114.2160  124.2120   79.1000 C.3   104  GLU104      0.1163
     64  CD       114.8160  125.5730   79.4190 C.2   104  GLU104      0.3649
     65  OE1      115.0300  125.8820   80.6030 O.co2 104  GLU104     -0.2457
     66  OE2      115.0850  126.3360   78.4760 O.co2 104  GLU104     -0.2457
     67  N        110.5300  123.9490   79.2520 N.am  105  PHE105     -0.1960
     68  CA       109.7290  124.3220   78.0960 C.3   105  PHE105      0.1771
     69  C        108.3920  124.9100   78.5490 C.2   105  PHE105      0.2620
     70  O        108.2810  125.4270   79.6620 O.2   105  PHE105     -0.2715
     71  CB       109.5810  123.1060   77.1760 C.3   105  PHE105      0.0574
     72  CG       110.9000  122.5100   76.7720 C.ar  105  PHE105     -0.0200
     73  CD1      111.8390  123.2810   76.0840 C.ar  105  PHE105     -0.0042
     74  CD2      111.2200  121.2000   77.1110 C.ar  105  PHE105     -0.0042
     75  CE1      113.0600  122.7510   75.7130 C.ar  105  PHE105     -0.0003
     76  CE2      112.4410  120.6560   76.7540 C.ar  105  PHE105     -0.0003
     77  CZ       113.3670  121.4310   76.0490 C.ar  105  PHE105     -0.0000
     78  N        107.3770  124.8560   77.6750 N.am  106  GLY106     -0.1940
     79  CA       106.0920  125.4600   77.9600 C.3   106  GLY106      0.2014
     80  C        106.1160  126.9760   77.8400 C.2   106  GLY106      0.2639
     81  O        107.1470  127.6070   77.5820 O.2   106  GLY106     -0.2714
     82  N        104.9360  127.5690   78.0390 N.am  107  GLY107     -0.1939
     83  CA       104.7840  129.0090   77.9460 C.3   107  GLY107      0.2014
     84  C        104.9570  129.5740   76.5570 C.2   107  GLY107      0.2638
     85  O        105.3110  130.7490   76.4110 O.2   107  GLY107     -0.2714
     86  N        104.7100  128.7760   75.5210 N.am  108  ASP108     -0.1971
     87  CA       105.0710  129.2160   74.1820 C.3   108  ASP108      0.1709
     88  C        103.9490  128.9800   73.1790 C.2   108  ASP108      0.2293
     89  O        104.2150  128.6840   72.0180 O.2   108  ASP108     -0.2864
     90  CB       106.3790  128.5520   73.7180 C.3   108  ASP108      0.1436
     91  CG       106.3280  127.0080   73.7350 C.2   108  ASP108      0.3671
     92  OD1      105.4250  126.3890   74.3510 O.co2 108  ASP108     -0.2456
     93  OD2      107.2200  126.4050   73.1180 O.co2 108  ASP108     -0.2456
     94  N        105.8660  139.9020   77.8590 N.3   119  ARG119     -0.1245
     95  CA       106.6270  141.1310   78.0150 C.3   119  ARG119      0.1563
     96  C        106.4000  142.0470   76.8290 C.2   119  ARG119      0.2260
     97  O        106.3100  141.5970   75.6810 O.2   119  ARG119     -0.2867
     98  CB       108.1240  140.8420   78.1860 C.3   119  ARG119      0.0307
     99  CG       108.4090  139.9470   79.3660 C.3   119  ARG119      0.0489
    100  CD       109.7870  139.2660   79.3590 C.3   119  ARG119      0.2205
    101  NE       109.5670  137.9230   79.8830 N.pl3 119  ARG119     -0.0865
    102  CZ       109.6950  136.8100   79.1780 C.cat 119  ARG119      0.5346
    103  NH1      110.1270  136.8670   77.9240 N.pl3 119  ARG119      0.1354
    104  NH2      109.4260  135.6400   79.7420 N.pl3 119  ARG119      0.1354
    105  N        115.1180  119.9200   93.5660 N.3   307  TYR307     -0.1241
    106  CA       115.5590  121.0400   94.3900 C.3   307  TYR307      0.1605
    107  C        116.4530  120.5330   95.5210 C.2   307  TYR307      0.2264
    108  O        115.9800  119.8400   96.4260 O.2   307  TYR307     -0.2867
    109  CB       114.3600  121.8030   94.9600 C.3   307  TYR307      0.0534
    110  CG       113.4330  122.4160   93.9200 C.ar  307  TYR307     -0.0201
    111  CD1      112.3650  121.6930   93.3950 C.ar  307  TYR307     -0.0009
    112  CD2      113.6260  123.7140   93.4610 C.ar  307  TYR307     -0.0009
    113  CE1      111.5110  122.2490   92.4460 C.ar  307  TYR307      0.0417
    114  CE2      112.7760  124.2770   92.5110 C.ar  307  TYR307      0.0417
    115  CZ       111.7210  123.5390   92.0100 C.ar  307  TYR307      0.1957
    116  OH       110.8780  124.0770   91.0690 O.3   307  TYR307     -0.2866
    117  N        110.5900  117.4050   75.6420 N.3   319  LYS319     -0.1245
    118  CA       109.5460  117.8990   74.7580 C.3   319  LYS319      0.1561
    119  C        109.3130  116.8710   73.6600 C.2   319  LYS319      0.2260
    120  O        110.1600  116.6820   72.7800 O.2   319  LYS319     -0.2867
    121  CB       109.9240  119.2510   74.1650 C.3   319  LYS319      0.0271
    122  CG       109.0140  119.6770   73.0300 C.3   319  LYS319      0.0035
    123  CD       109.4080  121.0290   72.4580 C.3   319  LYS319      0.0206
    124  CE       108.4930  121.3860   71.3060 C.3   319  LYS319      0.1093
    125  NZ       108.5470  122.8270   70.9550 N.3   319  LYS319     -0.1314
    126  N        107.5530  116.3160   70.5530 N.3   321  ASN321     -0.1240
    127  CA       106.9590  117.2210   69.5780 C.3   321  ASN321      0.1653
    128  C        106.0740  116.4290   68.6240 C.2   321  ASN321      0.2266
    129  O        106.5670  115.6130   67.8410 O.2   321  ASN321     -0.2867
    130  CB       108.0580  117.9800   68.8400 C.3   321  ASN321      0.1155
    131  CG       107.5290  119.1620   68.0690 C.2   321  ASN321      0.2627
    132  OD1      106.3460  119.2030   67.7010 O.2   321  ASN321     -0.2716
    133  ND2      108.3840  120.1640   67.8660 N.am  321  ASN321     -0.0877
    134  N        109.5750  124.4640   64.3170 N.3   335  SER335     -0.1217
    135  CA       110.3240  123.2540   64.6120 C.3   335  SER335      0.1889
    136  C        109.3750  122.1200   64.9680 C.2   335  SER335      0.2288
    137  O        108.4870  122.2840   65.8070 O.2   335  SER335     -0.2866
    138  CB       111.2930  123.5060   65.7610 C.3   335  SER335      0.2089
    139  OG       112.1110  122.3720   65.9920 O.3   335  SER335     -0.2183
    140  N        110.7440  118.9010   65.7060 N.3   337  ASP337     -0.1239
    141  CA       111.5690  117.8850   66.3620 C.3   337  ASP337      0.1674
    142  C        111.3730  117.8630   67.8770 C.2   337  ASP337      0.2266
    143  O        111.0290  118.8750   68.4900 O.2   337  ASP337     -0.2867
    144  CB       113.0460  118.1390   66.0670 C.3   337  ASP337      0.1410
    145  CG       113.3890  117.9280   64.6230 C.2   337  ASP337      0.3668
    146  OD1      113.4430  116.7650   64.1860 O.co2 337  ASP337     -0.2456
    147  OD2      113.5640  118.9340   63.9120 O.co2 337  ASP337     -0.2456
    148  N        112.9460  117.5980   71.7210 N.3   339  VAL339     -0.1245
    149  CA       114.0990  118.1970   72.3900 C.3   339  VAL339      0.1561
    150  C        114.2220  117.6000   73.7890 C.2   339  VAL339      0.2260
    151  O        113.2160  117.3650   74.4690 O.2   339  VAL339     -0.2867
    152  CB       113.9700  119.7420   72.4750 C.3   339  VAL339      0.0252
    153  CG1      115.2910  120.3920   72.9190 C.3   339  VAL339      0.0019
    154  CG2      113.4410  120.3570   71.1490 C.3   339  VAL339      0.0019
@<TRIPOS>BOND
     1   147   145   ar
     2    19    18   ar
     3   146   145   ar
     4   134   135    1
     5    20    18   ar
     6    18    17    1
     7   135   136    1
     8   135   138    1
     9   145   144    1
    10    14    15    1
    11    14    13    1
    12    14    17    1
    13   136   137    2
    14    15    16    2
    15   140   141    1
    16   138   139    1
    17   144   141    1
    18   141   142    1
    19    21    22    1
    20   132   131    2
    21   129   128    2
    22   133   131   am
    23   142   143    2
    24   131   130    1
    25    27    25    1
    26   128   127    1
    27    22    25    1
    28    22    23    1
    29   130   127    1
    30    25    26    1
    31   127   126    1
    32    23    24    2
    33   125   124    1
    34   154   152    1
    35   124   123    1
    36   148   149    1
    37    89    88    2
    38   149   152    1
    39   149   150    1
    40   123   122    1
    41   152   153    1
    42   120   119    2
    43     4     3    2
    44   122   121    1
    45    93    91   ar
    46    88    87    1
    47     8    10   ar
    48     8     6   ar
    49     3     2    1
    50   119   118    1
    51     5     6    1
    52     5     2    1
    53    90    91    1
    54    90    87    1
    55    91    92   ar
    56   150   151    2
    57   121   118    1
    58    87    86    1
    59    10    11   ar
    60     6     7   ar
    61     2     1    1
    62   118   117    1
    63    86    84   am
    64    11    12    1
    65    11     9   ar
    66    97    96    2
    67    75    77   ar
    68    75    73   ar
    69     7     9   ar
    70    77    76   ar
    71    73    72   ar
    72    85    84    2
    73    84    83    1
    74    76    74   ar
    75    72    74   ar
    76    72    71    1
    77    96    95    1
    78    71    68    1
    79    81    80    2
    80    78    79    1
    81    78    69   am
    82    80    79    1
    83    80    82   am
    84    94    95    1
    85   103   102    1
    86    83    82    1
    87    95    98    1
    88    68    69    1
    89    68    67    1
    90    98    99    1
    91    66    64   ar
    92    69    70    2
    93    63    64    1
    94    63    62    1
    95   102   104    1
    96   102   101    2
    97    67    60   am
    98    61    60    2
    99   100    99    1
   100   100   101    1
   101    64    65   ar
   102    60    59    1
   103    49    48    1
   104    62    59    1
   105    59    58    1
   106    34    33   ar
   107    48    47    1
   108    48    50    1
   109    35    33   ar
   110    33    32    1
   111    47    44    1
   112    58    53   am
   113    32    29    1
   114    29    28    1
   115    29    30    1
   116    53    54    2
   117    53    52    1
   118    44    43    1
   119    44    45    1
   120    43    38   am
   121    45    46    2
   122    45    51   am
   123    57    51    1
   124    57    56    1
   125    30    36   am
   126    30    31    2
   127    51    52    1
   128    55    52    1
   129    55    56    1
   130    36    37    1
   131    38    37    1
   132    38    39    2
   133    37    40    1
   134    42    40    1
   135    40    41    1
   136   116   115    1
   137   115   113   ar
   138   115   114   ar
   139   113   111   ar
   140   114   112   ar
   141   111   110   ar
   142   112   110   ar
   143   105   106    1
   144   110   109    1
   145   106   109    1
   146   106   107    1
   147   107   108    2
