@<TRIPOS>MOLECULE
tmp/5o9cB00.pdb
 125 119 0 0 0
SMALL
GASTEIGER

@<TRIPOS>ATOM
      1  N         75.1950  122.0500   34.7600 N.3   113  ASP113     -0.1225
      2  CA        74.3850  122.8470   35.6800 C.3   113  ASP113      0.1805
      3  C         75.2740  123.5600   36.6950 C.2   113  ASP113      0.2598
      4  O         75.0270  123.5610   37.9040 O.2   113  ASP113     -0.2718
      5  CB        73.3100  121.9830   36.3430 C.3   113  ASP113      0.1424
      6  CG        72.3320  121.4090   35.3110 C.2   113  ASP113      0.3668
      7  OD1       71.5320  122.1950   34.7570 O.co2 113  ASP113     -0.2456
      8  OD2       72.3860  120.1930   35.0250 O.co2 113  ASP113     -0.2456
      9  N         76.3070  124.2030   36.1600 N.am  114  ASN114     -0.1960
     10  CA        77.4050  124.7950   36.9090 C.3   114  ASN114      0.1819
     11  C         77.5670  126.2510   36.4580 C.2   114  ASN114      0.2621
     12  O         78.5730  126.6370   35.8600 O.2   114  ASN114     -0.2715
     13  CB        78.6570  123.9460   36.6640 C.3   114  ASN114      0.1195
     14  CG        79.8610  124.3820   37.4790 C.2   114  ASN114      0.2630
     15  OD1       80.9980  124.0760   37.1230 O.2   114  ASN114     -0.2716
     16  ND2       79.6240  125.0720   38.5680 N.am  114  ASN114     -0.0877
     17  N         76.5340  127.0490   36.7150 N.am  115  PHE115     -0.1974
     18  CA        76.4050  128.4320   36.2120 C.3   115  PHE115      0.1639
     19  C         76.4530  128.3610   34.6820 C.2   115  PHE115      0.2290
     20  O         75.8130  127.4840   34.0780 O.2   115  PHE115     -0.2864
     21  CB        77.4480  129.3300   36.8700 C.3   115  PHE115      0.0560
     22  CG        77.2350  129.4660   38.3380 C.ar  115  PHE115     -0.0200
     23  CD1       76.2380  130.2920   38.8240 C.ar  115  PHE115     -0.0042
     24  CD2       77.9650  128.7050   39.2290 C.ar  115  PHE115     -0.0042
     25  CE1       75.9960  130.3740   40.1680 C.ar  115  PHE115     -0.0003
     26  CE2       77.7310  128.7890   40.5700 C.ar  115  PHE115     -0.0003
     27  CZ        76.7380  129.6210   41.0420 C.ar  115  PHE115     -0.0000
     28  N         72.8540  123.9890   30.8940 N.3   120  ALA120     -0.1231
     29  CA        72.2410  124.8860   31.8630 C.3   120  ALA120      0.1694
     30  C         70.7610  125.0080   31.5770 C.2   120  ALA120      0.2592
     31  O         70.3730  125.1330   30.4170 O.2   120  ALA120     -0.2718
     32  CB        72.8950  126.2820   31.8190 C.3   120  ALA120      0.0304
     33  N         69.9520  125.0320   32.6370 N.am  121  ASN121     -0.1974
     34  CA        68.5390  125.3420   32.4800 C.3   121  ASN121      0.1688
     35  C         68.3370  126.8310   32.2220 C.2   121  ASN121      0.2292
     36  O         68.9390  127.6750   32.8870 O.2   121  ASN121     -0.2864
     37  CB        67.7500  124.9470   33.7270 C.3   121  ASN121      0.1181
     38  CG        67.7320  123.4640   33.9660 C.2   121  ASN121      0.2629
     39  OD1       68.0450  123.0040   35.0720 O.2   121  ASN121     -0.2716
     40  ND2       67.3420  122.7000   32.9450 N.am  121  ASN121     -0.0877
     41  N         70.7580  133.9900   31.8760 N.3   145  GLN145     -0.1245
     42  CA        70.1500  132.8500   32.5450 C.3   145  GLN145      0.1566
     43  C         69.3890  133.3230   33.7700 C.2   145  GLN145      0.2260
     44  O         69.9580  133.9930   34.6390 O.2   145  GLN145     -0.2867
     45  CB        71.1960  131.8200   32.9560 C.3   145  GLN145      0.0367
     46  CG        70.7760  131.0170   34.1640 C.3   145  GLN145      0.0905
     47  CD        71.6670  129.8370   34.4300 C.2   145  GLN145      0.2608
     48  OE1       71.2720  128.6860   34.2640 O.2   145  GLN145     -0.2717
     49  NE2       72.8990  130.1220   34.8060 N.am  145  GLN145     -0.0878
     50  N         67.5800  129.6950   38.9540 N.3   148  ASN148     -0.1240
     51  CA        67.2150  128.2920   39.1450 C.3   148  ASN148      0.1653
     52  C         67.5310  127.9880   40.6060 C.2   148  ASN148      0.2266
     53  O         68.7050  127.8510   40.9680 O.2   148  ASN148     -0.2867
     54  CB        68.0290  127.4160   38.2010 C.3   148  ASN148      0.1155
     55  CG        67.6870  127.6570   36.7420 C.2   148  ASN148      0.2627
     56  OD1       68.5390  127.5110   35.8750 O.2   148  ASN148     -0.2716
     57  ND2       66.4170  127.9410   36.4570 N.am  148  ASN148     -0.0877
     58  N         66.2090  122.4340   43.0270 N.3   161  ARG161     -0.1245
     59  CA        67.3860  121.5770   42.9100 C.3   161  ARG161      0.1563
     60  C         68.2850  121.9120   44.0860 C.2   161  ARG161      0.2260
     61  O         68.1470  122.9630   44.7190 O.2   161  ARG161     -0.2867
     62  CB        68.1710  121.8270   41.6250 C.3   161  ARG161      0.0307
     63  CG        68.6710  123.2630   41.6590 C.3   161  ARG161      0.0489
     64  CD        68.8200  123.8760   40.3200 C.3   161  ARG161      0.2205
     65  NE        67.6090  123.8340   39.5420 N.pl3 161  ARG161     -0.0865
     66  CZ        67.6140  123.8700   38.2160 C.cat 161  ARG161      0.5346
     67  NH1       68.7590  123.9520   37.5570 N.pl3 161  ARG161      0.1354
     68  NH2       66.4820  123.7980   37.5560 N.pl3 161  ARG161      0.1354
     69  N         74.3020  122.9490   44.9660 N.3   164  GLN164     -0.1231
     70  CA        75.4240  122.8400   44.0310 C.3   164  GLN164      0.1698
     71  C         75.0080  123.0250   42.5690 C.2   164  GLN164      0.2592
     72  O         75.8750  123.1310   41.6950 O.2   164  GLN164     -0.2718
     73  CB        76.1430  121.4980   44.1900 C.3   164  GLN164      0.0381
     74  CG        76.5410  121.1370   45.6110 C.3   164  GLN164      0.0905
     75  CD        77.9540  121.5550   45.9070 C.2   164  GLN164      0.2608
     76  OE1       78.8570  121.4260   45.0790 O.2   164  GLN164     -0.2717
     77  NE2       78.1540  122.0770   47.1140 N.am  164  GLN164     -0.0878
     78  N         73.7100  123.0260   42.2710 N.am  165  LYS165     -0.1966
     79  CA        73.2540  123.2170   40.9030 C.3   165  LYS165      0.1728
     80  C         72.2280  124.3380   40.7890 C.2   165  LYS165      0.2616
     81  O         71.6700  124.5410   39.7020 O.2   165  LYS165     -0.2715
     82  CB        72.7040  121.9080   40.3380 C.3   165  LYS165      0.0311
     83  CG        73.7540  120.8160   40.3140 C.3   165  LYS165      0.0038
     84  CD        73.2200  119.5450   39.7090 C.3   165  LYS165      0.0206
     85  CE        74.2820  118.4700   39.7040 C.3   165  LYS165      0.1093
     86  NZ        73.8160  117.2410   39.0360 N.3   165  LYS165     -0.1314
     87  N         72.0040  125.0840   41.8730 N.am  166  GLN166     -0.1963
     88  CA        71.2850  126.3480   41.8430 C.3   166  GLN166      0.1733
     89  C         72.1730  127.4590   41.3020 C.2   166  GLN166      0.2616
     90  O         73.3910  127.4540   41.4820 O.2   166  GLN166     -0.2715
     91  CB        70.8200  126.7470   43.2470 C.3   166  GLN166      0.0408
     92  CG        70.1110  125.6510   44.0150 C.3   166  GLN166      0.0908
     93  CD        69.6310  126.1010   45.3800 C.2   166  GLN166      0.2608
     94  OE1       69.5620  127.3000   45.6720 O.2   166  GLN166     -0.2717
     95  NE2       69.3190  125.1350   46.2380 N.am  166  GLN166     -0.0878
     96  N         71.5450  128.4320   40.6590 N.am  167  ASN167     -0.1972
     97  CA        72.2120  129.6570   40.2530 C.3   167  ASN167      0.1688
     98  C         71.2250  130.8010   40.4250 C.2   167  ASN167      0.2292
     99  O         70.0100  130.6090   40.3750 O.2   167  ASN167     -0.2864
    100  CB        72.6680  129.6070   38.7990 C.3   167  ASN167      0.1181
    101  CG        71.5140  129.3090   37.8610 C.2   167  ASN167      0.2629
    102  OD1       71.1220  128.1590   37.6990 O.2   167  ASN167     -0.2716
    103  ND2       70.8960  130.3640   37.3140 N.am  167  ASN167     -0.0877
    104  N         83.2120  123.8670   41.6640 N.3   249  ARG249     -0.1245
    105  CA        82.7890  123.0020   42.7510 C.3   249  ARG249      0.1563
    106  C         83.9720  122.3630   43.4570 C.2   249  ARG249      0.2260
    107  O         84.9870  122.0270   42.8390 O.2   249  ARG249     -0.2867
    108  CB        81.8730  121.8980   42.2400 C.3   249  ARG249      0.0307
    109  CG        80.4450  122.3310   42.0270 C.3   249  ARG249      0.0489
    110  CD        79.6250  121.1770   41.4980 C.3   249  ARG249      0.2205
    111  NE        78.3780  121.6740   40.9640 N.pl3 249  ARG249     -0.0865
    112  CZ        77.8800  121.2940   39.7990 C.cat 249  ARG249      0.5346
    113  NH1       78.5420  120.4150   39.0540 N.pl3 249  ARG249      0.1354
    114  NH2       76.7410  121.8160   39.3770 N.pl3 249  ARG249      0.1354
    115  N         81.8740  125.5330   47.0160 N.3   255  PHE255     -0.1241
    116  CA        82.6070  126.1500   45.9270 C.3   255  PHE255      0.1605
    117  C         83.9600  126.6510   46.4110 C.2   255  PHE255      0.2264
    118  O         84.1530  126.9280   47.6000 O.2   255  PHE255     -0.2867
    119  CB        81.7990  127.2840   45.3180 C.3   255  PHE255      0.0534
    120  CG        80.5190  126.8260   44.7220 C.ar  255  PHE255     -0.0203
    121  CD1       80.4670  126.4410   43.3960 C.ar  255  PHE255     -0.0042
    122  CD2       79.3750  126.7200   45.4980 C.ar  255  PHE255     -0.0042
    123  CE1       79.2960  125.9860   42.8410 C.ar  255  PHE255     -0.0003
    124  CE2       78.1900  126.2730   44.9430 C.ar  255  PHE255     -0.0003
    125  CZ        78.1510  125.9040   43.6090 C.ar  255  PHE255     -0.0000
@<TRIPOS>BOND
     1    31    30    2
     2    28    29    1
     3    30    29    1
     4    30    33   am
     5    32    29    1
     6    41    42    1
     7    35    34    1
     8    35    36    2
     9    34    33    1
    10    34    37    1
    11    42    45    1
    12    42    43    1
    13    40    38   am
    14    45    46    1
    15    37    38    1
    16    43    44    2
    17    38    39    2
    18    20    19    2
    19    46    47    1
    20    48    47    2
    21    47    49   am
    22    19    18    1
    23     7     6   ar
    24     1     2    1
    25     8     6   ar
    26     6     5    1
    27     2     5    1
    28     2     3    1
    29    12    11    2
    30    56    55    2
    31     9     3   am
    32     9    10    1
    33    18    17    1
    34    18    21    1
    35    57    55   am
    36    11    17   am
    37    11    10    1
    38    13    10    1
    39    13    14    1
    40     3     4    2
    41    55    54    1
    42    21    22    1
    43    15    14    2
    44   103   101   am
    45    14    16   am
    46    68    66    1
    47    67    66    1
    48   102   101    2
    49   101   100    1
    50    54    51    1
    51    66    65    2
    52    22    23   ar
    53    22    24   ar
    54   100    97    1
    55    23    25   ar
    56    50    51    1
    57    86    85    1
    58   113   112    1
    59    51    52    1
    60    24    26   ar
    61   114   112    1
    62    65    64    1
    63    81    80    2
    64    85    84    1
    65    84    83    1
    66   112   111    2
    67    25    27   ar
    68    97    98    1
    69    97    96    1
    70    83    82    1
    71    64    63    1
    72    82    79    1
    73    99    98    2
    74    26    27   ar
    75    52    53    2
    76    96    89   am
    77    80    79    1
    78    80    87   am
    79    79    78    1
    80   111   110    1
    81    89    90    2
    82    89    88    1
    83   110   109    1
    84    62    63    1
    85    62    59    1
    86   104   105    1
    87    72    71    2
    88    88    87    1
    89    88    91    1
    90   109   108    1
    91   108   105    1
    92    78    71   am
    93    71    70    1
    94   105   106    1
    95   107   106    2
    96   123   121   ar
    97   123   125   ar
    98    59    58    1
    99    59    60    1
   100    91    92    1
   101   121   120   ar
   102   125   124   ar
   103    92    93    1
   104    70    73    1
   105    70    69    1
   106    60    61    2
   107    73    74    1
   108   120   119    1
   109   120   122   ar
   110   124   122   ar
   111    76    75    2
   112   119   116    1
   113    93    94    2
   114    93    95   am
   115    74    75    1
   116    75    77   am
   117   116   117    1
   118   116   115    1
   119   117   118    2
