@<TRIPOS>MOLECULE
tmp/5o9dD01.pdb
 98 92 0 0 0
SMALL
GASTEIGER

@<TRIPOS>ATOM
      1  N        -30.2740   -7.6400  110.7820 N.3    38  CYS38      -0.1235
      2  CA       -30.9790   -8.5190  111.6880 C.3    38  CYS38       0.1677
      3  C        -31.1040   -9.8850  111.0300 C.2    38  CYS38       0.2270
      4  O        -31.3190   -9.9730  109.8090 O.2    38  CYS38      -0.2867
      5  CB       -32.3550   -7.9430  111.9380 C.3    38  CYS38       0.0956
      6  SG       -33.4090   -8.9590  113.0110 S.3    38  CYS38      -0.0801
      7  N        -33.5280  -11.7170  110.9850 N.3    40  SER40      -0.1217
      8  CA       -34.8100  -11.7780  110.2790 C.3    40  SER40       0.1889
      9  C        -34.6730  -11.4940  108.7720 C.2    40  SER40       0.2288
     10  O        -35.4340  -12.0320  107.9780 O.2    40  SER40      -0.2866
     11  CB       -35.8350  -10.8420  110.9050 C.3    40  SER40       0.2089
     12  OG       -36.2170  -11.3160  112.1860 O.3    40  SER40      -0.2183
     13  N        -34.1360  -14.7750  107.2250 N.3    43  HIS43      -0.1226
     14  CA       -35.4230  -15.4730  107.0700 C.3    43  HIS43       0.1752
     15  C        -36.1730  -14.9580  105.8520 C.2    43  HIS43       0.2595
     16  O        -36.6920  -15.7560  105.0810 O.2    43  HIS43      -0.2718
     17  CB       -36.3440  -15.3260  108.2840 C.3    43  HIS43       0.0759
     18  CG       -35.8040  -15.9330  109.5300 C.ar   43  HIS43       0.0818
     19  ND1      -35.2550  -17.1970  109.5780 N.ar   43  HIS43      -0.2268
     20  CD2      -35.7240  -15.4380  110.7880 C.ar   43  HIS43       0.1154
     21  CE1      -34.8680  -17.4560  110.8170 C.ar   43  HIS43       0.1986
     22  NE2      -35.1350  -16.4030  111.5720 N.ar   43  HIS43      -0.2212
     23  N        -36.2090  -13.6410  105.6820 N.am   44  VAL44      -0.1980
     24  CA       -36.9260  -13.0230  104.5630 C.3    44  VAL44       0.1595
     25  C        -36.3510  -13.4720  103.2230 C.2    44  VAL44       0.2287
     26  O        -37.0980  -13.9040  102.3320 O.2    44  VAL44      -0.2864
     27  CB       -36.9140  -11.4830  104.6550 C.3    44  VAL44       0.0276
     28  CG1      -37.4210  -10.8300  103.3540 C.3    44  VAL44       0.0022
     29  CG2      -37.7720  -11.0300  105.8330 C.3    44  VAL44       0.0022
     30  N        -37.1910  -17.0960  102.1280 N.3    47  MET47      -0.1245
     31  CA       -38.5680  -17.4420  101.7770 C.3    47  MET47       0.1570
     32  C        -38.6380  -17.8450  100.3120 C.2    47  MET47       0.2261
     33  O        -38.0510  -17.1560   99.4660 O.2    47  MET47      -0.2867
     34  CB       -39.5190  -16.2610  101.9810 C.3    47  MET47       0.0387
     35  CG       -39.7650  -15.9160  103.4390 C.3    47  MET47       0.0595
     36  SD       -40.7940  -14.4400  103.5890 S.3    47  MET47      -0.1393
     37  CE       -40.9200  -14.3100  105.3800 C.3    47  MET47       0.0692
     38  N        -43.0460   -9.1390  100.1600 N.3    54  PHE54      -0.1241
     39  CA       -42.6100   -7.7560  100.3880 C.3    54  PHE54       0.1605
     40  C        -42.2600   -6.9680   99.1320 C.2    54  PHE54       0.2264
     41  O        -41.8560   -5.8050   99.2470 O.2    54  PHE54      -0.2867
     42  CB       -41.4340   -7.7250  101.3600 C.3    54  PHE54       0.0534
     43  CG       -41.7540   -8.2660  102.7260 C.ar   54  PHE54      -0.0203
     44  CD1      -43.0390   -8.1960  103.2670 C.ar   54  PHE54      -0.0042
     45  CD2      -40.7400   -8.8150  103.4950 C.ar   54  PHE54      -0.0042
     46  CE1      -43.3010   -8.7020  104.5270 C.ar   54  PHE54      -0.0003
     47  CE2      -41.0040   -9.3170  104.7610 C.ar   54  PHE54      -0.0003
     48  CZ       -42.2820   -9.2590  105.2740 C.ar   54  PHE54      -0.0000
     49  N        -34.3600   -2.8460  108.5580 N.3    62  HIS62      -0.1241
     50  CA       -35.4340   -2.3690  109.4230 C.3    62  HIS62       0.1621
     51  C        -34.9260   -1.8850  110.7840 C.2    62  HIS62       0.2264
     52  O        -35.7330   -1.6780  111.7100 O.2    62  HIS62      -0.2867
     53  CB       -36.5020   -3.4380  109.5850 C.3    62  HIS62       0.0745
     54  CG       -35.9870   -4.7440  110.1080 C.ar   62  HIS62       0.0817
     55  ND1      -35.4850   -5.7300  109.2820 N.ar   62  HIS62      -0.2268
     56  CD2      -35.9120   -5.2320  111.3710 C.ar   62  HIS62       0.1154
     57  CE1      -35.1040   -6.7590  110.0250 C.ar   62  HIS62       0.1986
     58  NE2      -35.3580   -6.4820  111.2870 N.ar   62  HIS62      -0.2212
     59  N        -39.1910   -4.1750  105.2140 N.3   119  LEU119     -0.1245
     60  CA       -40.0670   -5.3460  105.2850 C.3   119  LEU119      0.1561
     61  C        -41.3800   -5.0670  104.5360 C.2   119  LEU119      0.2260
     62  O        -42.4620   -5.4060  105.0080 O.2   119  LEU119     -0.2867
     63  CB       -40.3190   -5.7120  106.7490 C.3   119  LEU119      0.0270
     64  CG       -39.0930   -6.0420  107.6240 C.3   119  LEU119      0.0019
     65  CD1      -39.4100   -6.0880  109.1180 C.3   119  LEU119      0.0001
     66  CD2      -38.4810   -7.3560  107.1850 C.3   119  LEU119      0.0001
     67  N        -34.3090   -2.7810  117.0350 N.3   153  ASP153     -0.1239
     68  CA       -34.8560   -4.1190  116.9710 C.3   153  ASP153      0.1674
     69  C        -34.1250   -5.0780  117.9050 C.2   153  ASP153      0.2266
     70  O        -34.7700   -5.7100  118.7550 O.2   153  ASP153     -0.2867
     71  CB       -34.8470   -4.5960  115.5380 C.3   153  ASP153      0.1410
     72  CG       -35.7390   -5.7780  115.3050 C.2   153  ASP153      0.3668
     73  OD1      -36.6520   -6.0890  116.1120 O.co2 153  ASP153     -0.2456
     74  OD2      -35.5390   -6.3580  114.2560 O.co2 153  ASP153     -0.2456
     75  N        -37.1700  -17.0620  115.7110 N.3   271  ILE271     -0.1245
     76  CA       -38.0610  -17.5940  114.7130 C.3   271  ILE271      0.1561
     77  C        -37.4080  -18.7780  114.0000 C.2   271  ILE271      0.2260
     78  O        -36.3690  -18.6250  113.3530 O.2   271  ILE271     -0.2867
     79  CB       -38.4770  -16.4950  113.6970 C.3   271  ILE271      0.0252
     80  CG1      -39.1880  -15.3590  114.4260 C.3   271  ILE271      0.0019
     81  CG2      -39.4130  -17.0810  112.6360 C.3   271  ILE271      0.0019
     82  CD1      -39.3770  -14.0960  113.6250 C.3   271  ILE271      0.0001
     83  N        -43.7030   -9.8190  119.5980 N.3   294  PHE294     -0.1227
     84  CA       -43.3100   -9.2470  118.3180 C.3   294  PHE294      0.1736
     85  C        -42.9080   -7.7930  118.4990 C.2   294  PHE294      0.2595
     86  O        -43.7130   -6.9840  118.9570 O.2   294  PHE294     -0.2718
     87  CB       -44.4330   -9.3470  117.3040 C.3   294  PHE294      0.0547
     88  CG       -44.0850   -8.7670  115.9700 C.ar  294  PHE294     -0.0202
     89  CD1      -43.2060   -9.4340  115.1290 C.ar  294  PHE294     -0.0042
     90  CD2      -44.5980   -7.5490  115.5620 C.ar  294  PHE294     -0.0042
     91  CE1      -42.8740   -8.9010  113.8900 C.ar  294  PHE294     -0.0003
     92  CE2      -44.2420   -6.9880  114.3380 C.ar  294  PHE294     -0.0003
     93  CZ       -43.3650   -7.6630  113.5080 C.ar  294  PHE294     -0.0000
     94  N        -41.6730   -7.4970  118.1210 N.am  295  ALA295     -0.1980
     95  CA       -41.1460   -6.1460  118.0980 C.3   295  ALA295      0.1597
     96  C        -41.3580   -5.4690  119.4560 C.2   295  ALA295      0.2287
     97  O        -41.1120   -6.0880  120.4750 O.2   295  ALA295     -0.2864
     98  CB       -41.7460   -5.3580  116.9260 C.3   295  ALA295      0.0319
@<TRIPOS>BOND
     1    40    41    2
     2    40    39    1
     3    33    32    2
     4    38    39    1
     5    32    31    1
     6    39    42    1
     7    42    43    1
     8    31    34    1
     9    31    30    1
    10    34    35    1
    11    26    25    2
    12    43    44   ar
    13    43    45   ar
    14    25    24    1
    15    44    46   ar
    16    28    27    1
    17    35    36    1
    18    45    47   ar
    19    36    37    1
    20    46    48   ar
    21    61    62    2
    22    61    60    1
    23    24    27    1
    24    24    23    1
    25    27    29    1
    26    47    48   ar
    27    16    15    2
    28    59    60    1
    29    60    63    1
    30    23    15   am
    31    15    14    1
    32    63    64    1
    33    14    13    1
    34    14    17    1
    35    66    64    1
    36    64    65    1
    37    10     9    2
    38    17    18    1
    39    49    50    1
    40     9     8    1
    41    55    57   ar
    42    55    54   ar
    43    50    53    1
    44    50    51    1
    45    18    19   ar
    46    18    20   ar
    47    19    21   ar
    48    53    54    1
    49     4     3    2
    50    57    58   ar
    51    54    56   ar
    52     8    11    1
    53     8     7    1
    54     1     2    1
    55    51    52    2
    56    20    22   ar
    57    21    22   ar
    58    11    12    1
    59     3     2    1
    60    58    56   ar
    61     2     5    1
    62     5     6    1
    63    81    79    1
    64    78    77    2
    65    93    91   ar
    66    93    92   ar
    67    82    80    1
    68    79    80    1
    69    79    76    1
    70    91    89   ar
    71    77    76    1
    72    74    72   ar
    73    92    90   ar
    74    76    75    1
    75    89    88   ar
    76    72    71    1
    77    72    73   ar
    78    71    68    1
    79    90    88   ar
    80    88    87    1
    81    98    95    1
    82    68    67    1
    83    68    69    1
    84    87    84    1
    85    69    70    2
    86    95    94    1
    87    95    96    1
    88    94    85   am
    89    84    85    1
    90    84    83    1
    91    85    86    2
    92    96    97    2
