@<TRIPOS>MOLECULE
tmp/5o9hB10.pdb
 107 104 0 0 0
SMALL
GASTEIGER

@<TRIPOS>ATOM
      1  N        121.7480  -16.7010   48.6000 N.3    38  ARG38      -0.1231
      2  CA       121.4020  -15.9620   49.8130 C.3    38  ARG38       0.1694
      3  C        121.5110  -14.4450   49.6460 C.2    38  ARG38       0.2593
      4  O        120.5660  -13.7180   49.9490 O.2    38  ARG38      -0.2718
      5  CB       122.2820  -16.4150   50.9840 C.3    38  ARG38       0.0321
      6  CG       122.0130  -17.8380   51.4600 C.3    38  ARG38       0.0489
      7  CD       122.8800  -18.2030   52.6610 C.3    38  ARG38       0.2205
      8  NE       122.7050  -19.5980   53.0610 N.pl3  38  ARG38      -0.0865
      9  CZ       123.3770  -20.1860   54.0460 C.cat  38  ARG38       0.5346
     10  NH1      124.2760  -19.5020   54.7410 N.pl3  38  ARG38       0.1354
     11  NH2      123.1510  -21.4610   54.3380 N.pl3  38  ARG38       0.1354
     12  N        122.6670  -13.9680   49.1910 N.am   39  THR39      -0.1939
     13  CA       122.8840  -12.5310   49.0200 C.3    39  THR39       0.2028
     14  C        122.1070  -11.9590   47.8300 C.2    39  THR39       0.2642
     15  O        122.1740  -12.4900   46.7210 O.2    39  THR39      -0.2714
     16  CB       124.3790  -12.2210   48.8410 C.3    39  THR39       0.1808
     17  OG1      125.1280  -12.8730   49.8730 O.3    39  THR39      -0.2208
     18  CG2      124.6260  -10.7240   48.9110 C.3    39  THR39       0.0379
     19  N        121.4010  -10.8540   48.0620 N.am   40  ILE40      -0.1963
     20  CA       120.5270  -10.2560   47.0520 C.3    40  ILE40       0.1727
     21  C        121.3060   -9.5370   45.9480 C.2    40  ILE40       0.2616
     22  O        121.0070   -9.6830   44.7470 O.2    40  ILE40      -0.2715
     23  CB       119.5430   -9.2500   47.6960 C.3    40  ILE40       0.0290
     24  CG1      118.9720   -9.8080   49.0040 C.3    40  ILE40       0.0022
     25  CG2      118.4320   -8.8820   46.7220 C.3    40  ILE40       0.0023
     26  CD1      118.1280  -11.0430   48.8340 C.3    40  ILE40       0.0001
     27  N        122.3120   -8.7690   46.3590 N.am   41  ASN41      -0.1972
     28  CA       123.1170   -8.0000   45.4210 C.3    41  ASN41       0.1688
     29  C        123.8100   -8.9300   44.4360 C.2    41  ASN41       0.2292
     30  O        123.9570   -8.6070   43.2500 O.2    41  ASN41      -0.2864
     31  CB       124.1490   -7.1460   46.1670 C.3    41  ASN41       0.1181
     32  CG       123.5170   -5.9930   46.9380 C.2    41  ASN41       0.2629
     33  OD1      122.6410   -5.2940   46.4280 O.2    41  ASN41      -0.2716
     34  ND2      123.9680   -5.7870   48.1730 N.am   41  ASN41      -0.0877
     35  N        113.0850   -8.5900   52.6170 N.3   118  ARG118     -0.1231
     36  CA       114.0980   -8.6060   51.5610 C.3   118  ARG118      0.1694
     37  C        114.8110   -9.9580   51.5000 C.2   118  ARG118      0.2592
     38  O        115.9240  -10.1100   52.0090 O.2   118  ARG118     -0.2718
     39  CB       115.1040   -7.4720   51.7720 C.3   118  ARG118      0.0321
     40  CG       116.0370   -7.2130   50.6020 C.3   118  ARG118      0.0489
     41  CD       116.8530   -5.9500   50.8350 C.3   118  ARG118      0.2205
     42  NE       117.8790   -5.7530   49.8150 N.pl3 118  ARG118     -0.0865
     43  CZ       119.1300   -6.1860   49.9210 C.cat 118  ARG118      0.5346
     44  NH1      119.5160   -6.8460   51.0050 N.pl3 118  ARG118      0.1354
     45  NH2      119.9980   -5.9600   48.9440 N.pl3 118  ARG118      0.1354
     46  N        114.1550  -10.9370   50.8810 N.am  119  GLY119     -0.1957
     47  CA       114.6970  -12.2800   50.7710 C.3   119  GLY119      0.1869
     48  C        115.1260  -12.6480   49.3640 C.2   119  GLY119      0.2309
     49  O        114.7590  -11.9790   48.3970 O.2   119  GLY119     -0.2863
     50  N        128.1580   -7.5000   48.6690 N.3   289  GLU289     -0.1231
     51  CA       127.9360   -6.8010   49.9270 C.3   289  GLU289      0.1699
     52  C        126.5790   -7.1970   50.5150 C.2   289  GLU289      0.2592
     53  O        125.5850   -7.2730   49.7930 O.2   289  GLU289     -0.2718
     54  CB       128.0180   -5.2870   49.7150 C.3   289  GLU289      0.0402
     55  CG       127.9560   -4.4660   50.9900 C.3   289  GLU289      0.1161
     56  CD       127.9420   -2.9730   50.7180 C.2   289  GLU289      0.3649
     57  OE1      129.0140   -2.3380   50.8080 O.co2 289  GLU289     -0.2457
     58  OE2      126.8560   -2.4350   50.4130 O.co2 289  GLU289     -0.2457
     59  N        126.5430   -7.4660   51.8190 N.am  290  GLU290     -0.1966
     60  CA       125.2750   -7.6710   52.5130 C.3   290  GLU290      0.1733
     61  C        124.7000   -6.3120   52.8700 C.2   290  GLU290      0.2617
     62  O        125.3900   -5.4830   53.4550 O.2   290  GLU290     -0.2715
     63  CB       125.4490   -8.5170   53.7810 C.3   290  GLU290      0.0429
     64  CG       125.7060  -10.0040   53.5540 C.3   290  GLU290      0.1163
     65  CD       125.9090  -10.7710   54.8570 C.2   290  GLU290      0.3649
     66  OE1      125.0990  -10.5990   55.7940 O.co2 290  GLU290     -0.2457
     67  OE2      126.8860  -11.5450   54.9460 O.co2 290  GLU290     -0.2457
     68  N        123.4430   -6.0780   52.5180 N.am  291  SER291     -0.1936
     69  CA       122.8050   -4.8160   52.8550 C.3   291  SER291      0.2055
     70  C        122.0720   -4.9170   54.1910 C.2   291  SER291      0.2643
     71  O        121.9000   -3.9210   54.8930 O.2   291  SER291     -0.2714
     72  CB       121.8520   -4.3910   51.7370 C.3   291  SER291      0.2130
     73  OG       122.5790   -4.0110   50.5800 O.3   291  SER291     -0.2179
     74  N        121.6610   -6.1300   54.5430 N.am  292  VAL292     -0.1963
     75  CA       120.9950   -6.3800   55.8140 C.3   292  VAL292      0.1727
     76  C        121.6970   -7.5130   56.5510 C.2   292  VAL292      0.2616
     77  O        121.5960   -8.6730   56.1570 O.2   292  VAL292     -0.2715
     78  CB       119.5090   -6.7490   55.6220 C.3   292  VAL292      0.0290
     79  CG1      118.8380   -6.9760   56.9670 C.3   292  VAL292      0.0023
     80  CG2      118.7830   -5.6700   54.8360 C.3   292  VAL292      0.0023
     81  N        122.4380   -7.1750   57.6000 N.am  293  VAL293     -0.1963
     82  CA       123.0690   -8.2000   58.4240 C.3   293  VAL293      0.1727
     83  C        122.0340   -8.9880   59.2380 C.2   293  VAL293      0.2616
     84  O        121.0830   -8.4160   59.7730 O.2   293  VAL293     -0.2715
     85  CB       124.1070   -7.5800   59.3620 C.3   293  VAL293      0.0290
     86  CG1      124.9360   -8.6690   60.0220 C.3   293  VAL293      0.0023
     87  CG2      125.0080   -6.6410   58.5750 C.3   293  VAL293      0.0023
     88  N        122.2200  -10.3030   59.3270 N.am  294  ARG294     -0.1963
     89  CA       121.2570  -11.1670   60.0050 C.3   294  ARG294      0.1729
     90  C        121.9460  -12.1880   60.9080 C.2   294  ARG294      0.2616
     91  O        121.3490  -12.6900   61.8620 O.2   294  ARG294     -0.2715
     92  CB       120.3680  -11.8750   58.9770 C.3   294  ARG294      0.0348
     93  CG       119.6350  -10.9070   58.0640 C.3   294  ARG294      0.0492
     94  CD       118.5130  -11.5460   57.2700 C.3   294  ARG294      0.2205
     95  NE       117.5720  -10.5220   56.8230 N.pl3 294  ARG294     -0.0865
     96  CZ       116.6720  -10.6920   55.8610 C.cat 294  ARG294      0.5346
     97  NH1      116.5850  -11.8520   55.2260 N.pl3 294  ARG294      0.1354
     98  NH2      115.8610   -9.6960   55.5300 N.pl3 294  ARG294      0.1354
     99  N        123.2040  -12.4870   60.6030 N.am  295  GLU295     -0.1977
    100  CA       123.9900  -13.4190   61.4040 C.3   295  GLU295      0.1602
    101  C        125.3830  -12.8670   61.6830 C.2   295  GLU295      0.2287
    102  O        126.1440  -12.5830   60.7590 O.2   295  GLU295     -0.2864
    103  CB       124.0940  -14.7750   60.7050 C.3   295  GLU295      0.0415
    104  CG       122.7880  -15.5470   60.6550 C.3   295  GLU295      0.1163
    105  CD       122.9350  -16.8980   59.9870 C.2   295  GLU295      0.3649
    106  OE1      123.9160  -17.0890   59.2380 O.co2 295  GLU295     -0.2457
    107  OE2      122.0700  -17.7700   60.2140 O.co2 295  GLU295     -0.2457
@<TRIPOS>BOND
     1    30    29    2
     2    29    28    1
     3    22    21    2
     4    28    31    1
     5    28    27    1
     6    21    27   am
     7    21    20    1
     8    31    32    1
     9    33    32    2
    10    15    14    2
    11    25    23    1
    12    32    34   am
    13    20    23    1
    14    20    19    1
    15    23    24    1
    16    14    19   am
    17    14    13    1
    18    49    48    2
    19     1     2    1
    20    50    51    1
    21    26    24    1
    22    16    18    1
    23    16    13    1
    24    16    17    1
    25    45    43    1
    26    13    12    1
    27    12     3   am
    28    48    47    1
    29     3     2    1
    30     3     4    2
    31    54    51    1
    32    54    55    1
    33    53    52    2
    34     2     5    1
    35    42    43    2
    36    42    41    1
    37    43    44    1
    38    51    52    1
    39    58    56   ar
    40    52    59   am
    41    73    72    1
    42    40    41    1
    43    40    39    1
    44    56    57   ar
    45    56    55    1
    46    47    46    1
    47    46    37   am
    48     5     6    1
    49     6     7    1
    50    37    36    1
    51    37    38    2
    52    36    39    1
    53    36    35    1
    54    72    69    1
    55    59    60    1
    56    60    61    1
    57    60    63    1
    58    68    69    1
    59    68    61   am
    60     7     8    1
    61    69    70    1
    62    61    62    2
    63     8     9    2
    64    64    63    1
    65    64    65    1
    66     9    11    1
    67     9    10    1
    68    70    74   am
    69    70    71    2
    70    74    75    1
    71    80    78    1
    72    65    67   ar
    73    65    66   ar
    74    97    96    1
    75    98    96    1
    76    78    75    1
    77    78    79    1
    78    75    76    1
    79    96    95    2
    80    77    76    2
    81    76    81   am
    82    95    94    1
    83    94    93    1
    84    81    82    1
    85    93    92    1
    86    82    83    1
    87    82    85    1
    88    87    85    1
    89    92    89    1
    90    83    88   am
    91    83    84    2
    92   106   105   ar
    93    88    89    1
    94    85    86    1
    95   105   107   ar
    96   105   104    1
    97    89    90    1
    98    99    90   am
    99    99   100    1
   100   104   103    1
   101   103   100    1
   102   102   101    2
   103    90    91    2
   104   100   101    1
