@<TRIPOS>MOLECULE
tmp/5o9hB17.pdb
 93 88 0 0 0
SMALL
GASTEIGER

@<TRIPOS>ATOM
      1  N        122.5520  -17.7710   46.2330 N.3    37  LYS37      -0.1245
      2  CA       121.4680  -18.4570   46.9290 C.3    37  LYS37       0.1561
      3  C        120.9950  -17.7140   48.1770 C.2    37  LYS37       0.2260
      4  O        119.9510  -18.0450   48.7390 O.2    37  LYS37      -0.2867
      5  CB       121.8890  -19.8840   47.2940 C.3    37  LYS37       0.0271
      6  CG       123.3780  -20.0720   47.5400 C.3    37  LYS37       0.0035
      7  CD       123.7190  -21.5530   47.6440 C.3    37  LYS37       0.0206
      8  CE       125.2190  -21.7850   47.6960 C.3    37  LYS37       0.1093
      9  NZ       125.5580  -23.2340   47.6470 N.3    37  LYS37      -0.1314
     10  N        124.4850  -11.0000   39.1170 N.3    46  LEU46      -0.1231
     11  CA       124.4830  -12.2480   38.3690 C.3    46  LEU46       0.1693
     12  C        123.5690  -12.1480   37.1540 C.2    46  LEU46       0.2592
     13  O        123.9740  -12.4910   36.0340 O.2    46  LEU46      -0.2718
     14  CB       124.0470  -13.4070   39.2660 C.3    46  LEU46       0.0284
     15  CG       123.8050  -14.7640   38.6080 C.3    46  LEU46       0.0019
     16  CD1      125.0990  -15.3380   38.0660 C.3    46  LEU46       0.0001
     17  CD2      123.1610  -15.7250   39.5920 C.3    46  LEU46       0.0001
     18  N        122.3480  -11.6590   37.3630 N.am   47  ASN47      -0.1974
     19  CA       121.4230  -11.5260   36.2420 C.3    47  ASN47       0.1688
     20  C        121.9100  -10.5130   35.2050 C.2    47  ASN47       0.2292
     21  O        121.8060  -10.7560   33.9880 O.2    47  ASN47      -0.2864
     22  CB       120.0290  -11.1450   36.7430 C.3    47  ASN47       0.1181
     23  CG       119.2380  -12.3460   37.2330 C.2    47  ASN47       0.2629
     24  OD1      118.2570  -12.7520   36.6110 O.2    47  ASN47      -0.2716
     25  ND2      119.6710  -12.9260   38.3470 N.am   47  ASN47      -0.0877
     26  N        124.5590  -12.3300   33.1520 N.3    50  VAL50      -0.1245
     27  CA       124.0440  -13.2780   32.1710 C.3    50  VAL50       0.1561
     28  C        123.4810  -12.5290   30.9700 C.2    50  VAL50       0.2260
     29  O        123.7140  -12.9150   29.8120 O.2    50  VAL50      -0.2867
     30  CB       122.9580  -14.1870   32.7800 C.3    50  VAL50       0.0252
     31  CG1      122.3260  -15.0700   31.7130 C.3    50  VAL50       0.0019
     32  CG2      123.5430  -15.0310   33.9010 C.3    50  VAL50       0.0019
     33  N        124.9490  -13.0200   27.1040 N.3    54  LEU54      -0.1245
     34  CA       124.2040  -13.5560   25.9690 C.3    54  LEU54       0.1561
     35  C        124.3320  -12.6820   24.7240 C.2    54  LEU54       0.2260
     36  O        124.4030  -13.1900   23.6050 O.2    54  LEU54      -0.2867
     37  CB       122.7300  -13.7250   26.3280 C.3    54  LEU54       0.0270
     38  CG       122.4230  -14.7510   27.4180 C.3    54  LEU54       0.0019
     39  CD1      120.9220  -14.8820   27.6180 C.3    54  LEU54       0.0001
     40  CD2      123.0470  -16.0980   27.0820 C.3    54  LEU54       0.0001
     41  N        117.1150   -7.5920   23.4320 N.3    88  LEU88      -0.1245
     42  CA       116.7820   -8.3670   24.6140 C.3    88  LEU88       0.1561
     43  C        117.6490   -7.9150   25.7780 C.2    88  LEU88       0.2260
     44  O        117.1770   -7.8090   26.9100 O.2    88  LEU88      -0.2867
     45  CB       116.9870   -9.8610   24.3540 C.3    88  LEU88       0.0270
     46  CG       116.9350  -10.7850   25.5740 C.3    88  LEU88       0.0019
     47  CD1      115.5590  -10.7340   26.2160 C.3    88  LEU88       0.0001
     48  CD2      117.3170  -12.2160   25.2080 C.3    88  LEU88       0.0001
     49  N        115.9050  -13.7210   49.2530 N.3   120  ALA120     -0.1231
     50  CA       116.4400  -14.1630   47.9670 C.3   120  ALA120      0.1694
     51  C        115.3640  -14.6440   46.9980 C.2   120  ALA120      0.2592
     52  O        115.4930  -14.4720   45.7810 O.2   120  ALA120     -0.2718
     53  CB       117.4650  -15.2680   48.1860 C.3   120  ALA120      0.0304
     54  N        114.3020  -15.2400   47.5340 N.am  121  GLY121     -0.1957
     55  CA       113.2620  -15.8040   46.6940 C.3   121  GLY121      0.1869
     56  C        112.4720  -14.7380   45.9670 C.2   121  GLY121      0.2309
     57  O        112.1460  -14.8930   44.7870 O.2   121  GLY121     -0.2863
     58  N        114.6850  -13.5180   43.1350 N.3   124  TRP124     -0.1241
     59  CA       114.6470  -14.4210   41.9890 C.3   124  TRP124      0.1605
     60  C        113.3260  -14.3250   41.2280 C.2   124  TRP124      0.2264
     61  O        113.3010  -14.4300   39.9970 O.2   124  TRP124     -0.2867
     62  CB       114.8990  -15.8660   42.4270 C.3   124  TRP124      0.0550
     63  CG       116.3570  -16.1900   42.5770 C.ar  124  TRP124      0.0003
     64  CD1      117.0170  -16.4850   43.7320 C.ar  124  TRP124      0.0946
     65  CD2      117.3380  -16.2350   41.5320 C.ar  124  TRP124      0.0152
     66  NE1      118.3460  -16.7180   43.4720 N.ar  124  TRP124     -0.2442
     67  CE2      118.5690  -16.5690   42.1290 C.ar  124  TRP124      0.0810
     68  CE3      117.2930  -16.0270   40.1490 C.ar  124  TRP124      0.0012
     69  CZ2      119.7460  -16.7010   41.3910 C.ar  124  TRP124      0.0191
     70  CZ3      118.4610  -16.1580   39.4190 C.ar  124  TRP124      0.0001
     71  CH2      119.6710  -16.4910   40.0410 C.ar  124  TRP124      0.0015
     72  N        112.9580  -11.0170   33.1190 N.3   131  TRP131     -0.1241
     73  CA       113.3460  -11.7660   31.9250 C.3   131  TRP131      0.1605
     74  C        112.1430  -12.0760   31.0420 C.2   131  TRP131      0.2264
     75  O        112.2370  -12.0350   29.8070 O.2   131  TRP131     -0.2867
     76  CB       114.0500  -13.0710   32.3040 C.3   131  TRP131      0.0550
     77  CG       115.4880  -12.9060   32.6740 C.ar  131  TRP131      0.0003
     78  CD1      116.0120  -12.8900   33.9320 C.ar  131  TRP131      0.0946
     79  CD2      116.5910  -12.7380   31.7760 C.ar  131  TRP131      0.0152
     80  NE1      117.3730  -12.7190   33.8750 N.ar  131  TRP131     -0.2442
     81  CE2      117.7540  -12.6230   32.5630 C.ar  131  TRP131      0.0810
     82  CE3      116.7080  -12.6710   30.3850 C.ar  131  TRP131      0.0012
     83  CZ2      119.0180  -12.4450   32.0050 C.ar  131  TRP131      0.0191
     84  CZ3      117.9640  -12.4940   29.8330 C.ar  131  TRP131      0.0001
     85  CH2      119.1020  -12.3840   30.6420 C.ar  131  TRP131      0.0015
     86  N        111.7950  -10.7480   27.2000 N.3   135  LEU135     -0.1245
     87  CA       111.6240  -11.6370   26.0570 C.3   135  LEU135      0.1561
     88  C        110.3300  -11.3070   25.3250 C.2   135  LEU135      0.2260
     89  O        110.2710  -11.3390   24.0860 O.2   135  LEU135     -0.2867
     90  CB       111.6150  -13.0990   26.5060 C.3   135  LEU135      0.0270
     91  CG       112.9360  -13.6460   27.0460 C.3   135  LEU135      0.0019
     92  CD1      112.7160  -14.8970   27.8880 C.3   135  LEU135      0.0001
     93  CD2      113.8820  -13.9340   25.8940 C.3   135  LEU135      0.0001
@<TRIPOS>BOND
     1    41    42    1
     2    36    35    2
     3    89    88    2
     4    45    42    1
     5    45    46    1
     6    42    43    1
     7    35    34    1
     8    48    46    1
     9    88    87    1
    10    46    47    1
    11    43    44    2
    12    93    91    1
    13    34    37    1
    14    34    33    1
    15    87    90    1
    16    87    86    1
    17    37    38    1
    18    90    91    1
    19    91    92    1
    20    40    38    1
    21    38    39    1
    22    75    74    2
    23    29    28    2
    24    84    82   ar
    25    84    85   ar
    26    82    79   ar
    27    85    83   ar
    28    28    27    1
    29    74    73    1
    30    31    30    1
    31    79    81   ar
    32    79    77   ar
    33    73    76    1
    34    73    72    1
    35    83    81   ar
    36    27    30    1
    37    27    26    1
    38    76    77    1
    39    81    80   ar
    40    77    78   ar
    41    30    32    1
    42    80    78   ar
    43    21    20    2
    44    20    19    1
    45    13    12    2
    46    19    22    1
    47    19    18    1
    48    24    23    2
    49    22    23    1
    50    12    18   am
    51    12    11    1
    52    23    25   am
    53    16    15    1
    54    11    10    1
    55    11    14    1
    56    15    14    1
    57    15    17    1
    58    70    71   ar
    59    70    68   ar
    60    61    60    2
    61    71    69   ar
    62    68    65   ar
    63    60    59    1
    64    69    67   ar
    65    65    67   ar
    66    65    63   ar
    67    59    62    1
    68    59    58    1
    69    67    66   ar
    70    62    63    1
    71    63    64   ar
    72    66    64   ar
    73    57    56    2
    74    52    51    2
    75    56    55    1
    76     1     2    1
    77    55    54    1
    78     2     5    1
    79     2     3    1
    80    51    54   am
    81    51    50    1
    82     5     6    1
    83     6     7    1
    84     7     8    1
    85     9     8    1
    86    50    53    1
    87    50    49    1
    88     3     4    2
