@<TRIPOS>MOLECULE
tmp/5o9hB03.pdb
 100 93 0 0 0
SMALL
GASTEIGER

@<TRIPOS>ATOM
      1  N        120.2900   10.1730   46.4790 N.3   196  LEU196     -0.1245
      2  CA       121.5230   10.9320   46.6640 C.3   196  LEU196      0.1561
      3  C        121.3300   12.1600   47.5500 C.2   196  LEU196      0.2260
      4  O        122.2380   12.5270   48.3050 O.2   196  LEU196     -0.2867
      5  CB       122.1050   11.3540   45.3110 C.3   196  LEU196      0.0270
      6  CG       122.5890   10.2040   44.4210 C.3   196  LEU196      0.0019
      7  CD1      123.3040   10.7230   43.1810 C.3   196  LEU196      0.0001
      8  CD2      123.4800    9.2550   45.2030 C.3   196  LEU196      0.0001
      9  N        126.6940    6.1800   52.0810 N.3   207  SER207     -0.1217
     10  CA       126.7820    5.7350   50.6980 C.3   207  SER207      0.1889
     11  C        127.6000    4.4480   50.6140 C.2   207  SER207      0.2288
     12  O        128.8280    4.4750   50.7070 O.2   207  SER207     -0.2866
     13  CB       127.4050    6.8210   49.8180 C.3   207  SER207      0.2089
     14  OG       127.3670    6.4560   48.4500 O.3   207  SER207     -0.2183
     15  N        125.9380    1.1270   46.1370 N.3   211  LEU211     -0.1231
     16  CA       125.1940    2.2510   45.5920 C.3   211  LEU211      0.1693
     17  C        125.9900    2.9650   44.5070 C.2   211  LEU211      0.2591
     18  O        125.4510    3.3020   43.4540 O.2   211  LEU211     -0.2718
     19  CB       124.8240    3.2360   46.6990 C.3   211  LEU211      0.0284
     20  CG       124.2480    4.5680   46.2170 C.3   211  LEU211      0.0019
     21  CD1      122.9270    4.3540   45.4920 C.3   211  LEU211      0.0001
     22  CD2      124.0860    5.5440   47.3710 C.3   211  LEU211      0.0001
     23  N        127.2780    3.1770   44.7610 N.am  212  LYS212     -0.1980
     24  CA       128.1270    3.8720   43.8050 C.3   212  LYS212      0.1596
     25  C        128.2610    3.0430   42.5360 C.2   212  LYS212      0.2287
     26  O        128.1980    3.5720   41.4110 O.2   212  LYS212     -0.2864
     27  CB       129.5060    4.1470   44.4130 C.3   212  LYS212      0.0298
     28  CG       129.4670    4.8040   45.7940 C.3   212  LYS212      0.0038
     29  CD       130.8570    4.8850   46.4230 C.3   212  LYS212      0.0206
     30  CE       130.8120    5.4300   47.8500 C.3   212  LYS212      0.1093
     31  NZ       130.3590    6.8460   47.9170 N.3   212  LYS212     -0.1314
     32  N        125.0210    3.1700   40.5910 N.3   215  VAL215     -0.1231
     33  CA       124.8650    4.4780   39.9660 C.3   215  VAL215      0.1692
     34  C        125.7080    4.5650   38.6950 C.2   215  VAL215      0.2591
     35  O        125.2420    5.0620   37.6600 O.2   215  VAL215     -0.2718
     36  CB       125.2480    5.6220   40.9300 C.3   215  VAL215      0.0266
     37  CG1      125.4690    6.9190   40.1700 C.3   215  VAL215      0.0020
     38  CG2      124.1710    5.8030   41.9830 C.3   215  VAL215      0.0020
     39  N        126.9300    4.0390   38.7540 N.am  216  ALA216     -0.1980
     40  CA       127.7900    4.0700   37.5770 C.3   216  ALA216      0.1597
     41  C        127.2140    3.2230   36.4390 C.2   216  ALA216      0.2287
     42  O        127.2340    3.6330   35.2680 O.2   216  ALA216     -0.2864
     43  CB       129.1900    3.5980   37.9310 C.3   216  ALA216      0.0319
     44  N        124.1910    5.0190   34.8950 N.3   219  ALA219     -0.1231
     45  CA       124.6090    6.1150   34.0300 C.3   219  ALA219      0.1694
     46  C        125.1450    5.5850   32.7000 C.2   219  ALA219      0.2592
     47  O        124.8350    6.1270   31.6240 O.2   219  ALA219     -0.2718
     48  CB       125.6570    6.9680   34.7260 C.3   219  ALA219      0.0304
     49  N        125.9140    4.4990   32.7730 N.am  220  SER220     -0.1952
     50  CA       126.5320    3.9460   31.5720 C.3   220  SER220      0.1924
     51  C        125.4730    3.4750   30.5870 C.2   220  SER220      0.2314
     52  O        125.6520    3.5920   29.3690 O.2   220  SER220     -0.2863
     53  CB       127.4690    2.7880   31.9200 C.3   220  SER220      0.2116
     54  OG       126.7390    1.6480   32.3390 O.3   220  SER220     -0.2180
     55  N        124.2720    6.5260   28.7130 N.3   223  ILE223     -0.1231
     56  CA       125.3670    7.1320   27.9670 C.3   223  ILE223      0.1692
     57  C        125.6420    6.3460   26.6930 C.2   223  ILE223      0.2592
     58  O        125.8110    6.9300   25.6230 O.2   223  ILE223     -0.2718
     59  CB       126.6690    7.2160   28.7970 C.3   223  ILE223      0.0266
     60  CG1      126.5220    8.2360   29.9270 C.3   223  ILE223      0.0019
     61  CG2      127.8430    7.6060   27.9090 C.3   223  ILE223      0.0020
     62  CD1      127.7440    8.3350   30.8240 C.3   223  ILE223      0.0001
     63  N        125.6540    5.0210   26.7920 N.am  224  PHE224     -0.1976
     64  CA       125.9650    4.2300   25.6100 C.3   224  PHE224      0.1639
     65  C        124.7450    3.8850   24.7570 C.2   224  PHE224      0.2290
     66  O        124.9010    3.4480   23.6160 O.2   224  PHE224     -0.2864
     67  CB       126.7100    2.9600   26.0120 C.3   224  PHE224      0.0560
     68  CG       128.0790    3.2230   26.5640 C.ar  224  PHE224     -0.0200
     69  CD1      129.0910    3.6940   25.7430 C.ar  224  PHE224     -0.0042
     70  CD2      128.3540    3.0130   27.9040 C.ar  224  PHE224     -0.0042
     71  CE1      130.3520    3.9470   26.2480 C.ar  224  PHE224     -0.0003
     72  CE2      129.6130    3.2620   28.4150 C.ar  224  PHE224     -0.0003
     73  CZ       130.6140    3.7300   27.5850 C.ar  224  PHE224     -0.0000
     74  N        128.6830    1.1860   19.6680 N.3   258  PHE258     -0.1241
     75  CA       128.7400    2.0020   20.8710 C.3   258  PHE258      0.1605
     76  C        127.7580    1.4760   21.9140 C.2   258  PHE258      0.2264
     77  O        128.0340    1.5010   23.1160 O.2   258  PHE258     -0.2867
     78  CB       128.4400    3.4640   20.5330 C.3   258  PHE258      0.0534
     79  CG       128.9670    4.4440   21.5430 C.ar  258  PHE258     -0.0203
     80  CD1      130.3280    4.6750   21.6580 C.ar  258  PHE258     -0.0042
     81  CD2      128.1010    5.1460   22.3650 C.ar  258  PHE258     -0.0042
     82  CE1      130.8170    5.5790   22.5830 C.ar  258  PHE258     -0.0003
     83  CE2      128.5840    6.0530   23.2900 C.ar  258  PHE258     -0.0003
     84  CZ       129.9430    6.2690   23.3990 C.ar  258  PHE258     -0.0000
     85  N        131.0740   -2.9720   29.8360 N.3   265  ILE265     -0.1245
     86  CA       131.4050   -1.8480   30.7090 C.3   265  ILE265      0.1561
     87  C        131.2830   -2.1940   32.1950 C.2   265  ILE265      0.2260
     88  O        132.0240   -1.6610   33.0240 O.2   265  ILE265     -0.2867
     89  CB       130.5210   -0.6090   30.3870 C.3   265  ILE265      0.0252
     90  CG1      131.0300    0.6300   31.1270 C.3   265  ILE265      0.0019
     91  CG2      129.0530   -0.8750   30.6930 C.3   265  ILE265      0.0019
     92  CD1      132.4040    1.0780   30.6860 C.3   265  ILE265      0.0001
     93  N        133.6640   -1.2620   35.4500 N.3   269  ILE269     -0.1245
     94  CA       133.1680   -0.4640   36.5610 C.3   269  ILE269      0.1561
     95  C        133.3940   -1.1730   37.8910 C.2   269  ILE269      0.2260
     96  O        133.7760   -0.5460   38.8810 O.2   269  ILE269     -0.2867
     97  CB       131.6650   -0.1540   36.3970 C.3   269  ILE269      0.0252
     98  CG1      131.4300    0.7020   35.1500 C.3   269  ILE269      0.0019
     99  CG2      131.1190    0.5460   37.6310 C.3   269  ILE269      0.0019
    100  CD1      129.9710    0.9890   34.8700 C.3   269  ILE269      0.0001
@<TRIPOS>BOND
     1    74    75    1
     2    78    75    1
     3    78    79    1
     4    75    76    1
     5    79    80   ar
     6    79    81   ar
     7    80    82   ar
     8    76    77    2
     9    81    83   ar
    10    82    84   ar
    11    83    84   ar
    12    66    65    2
    13    65    64    1
    14    64    67    1
    15    64    63    1
    16    58    57    2
    17    69    71   ar
    18    69    68   ar
    19    67    68    1
    20    71    73   ar
    21    68    70   ar
    22    57    63   am
    23    57    56    1
    24    73    72   ar
    25    70    72   ar
    26    61    59    1
    27    56    55    1
    28    56    59    1
    29    59    60    1
    30    52    51    2
    31    85    86    1
    32    60    62    1
    33    89    91    1
    34    89    86    1
    35    89    90    1
    36    51    50    1
    37    92    90    1
    38    86    87    1
    39    50    53    1
    40    50    49    1
    41    47    46    2
    42    53    54    1
    43    87    88    2
    44    46    49   am
    45    46    45    1
    46    45    48    1
    47    45    44    1
    48   100    98    1
    49    98    97    1
    50    42    41    2
    51    93    94    1
    52    97    94    1
    53    97    99    1
    54    41    40    1
    55    94    95    1
    56    40    43    1
    57    40    39    1
    58    35    34    2
    59    95    96    2
    60    34    39   am
    61    34    33    1
    62    33    32    1
    63    33    36    1
    64    37    36    1
    65    36    38    1
    66    26    25    2
    67    25    24    1
    68     7     6    1
    69    18    17    2
    70    24    27    1
    71    24    23    1
    72    27    28    1
    73     6     8    1
    74     6     5    1
    75    17    23   am
    76    17    16    1
    77     5     2    1
    78    21    20    1
    79    16    15    1
    80    16    19    1
    81    28    29    1
    82    20    19    1
    83    20    22    1
    84    29    30    1
    85     1     2    1
    86     2     3    1
    87     3     4    2
    88    30    31    1
    89    14    13    1
    90    13    10    1
    91    11    10    1
    92    11    12    2
    93    10     9    1
