@<TRIPOS>MOLECULE
tmp/5o9hB04.pdb
 104 96 0 0 0
SMALL
GASTEIGER

@<TRIPOS>ATOM
      1  N        135.7570   -1.8080   18.1410 N.3    13  ILE13      -0.1245
      2  CA       134.9670   -1.7910   19.3610 C.3    13  ILE13       0.1561
      3  C        134.2840   -3.1390   19.5610 C.2    13  ILE13       0.2260
      4  O        134.1790   -3.6270   20.6870 O.2    13  ILE13      -0.2867
      5  CB       133.9080   -0.6720   19.3320 C.3    13  ILE13       0.0252
      6  CG1      134.5680    0.6960   19.1670 C.3    13  ILE13       0.0019
      7  CG2      133.0500   -0.7010   20.5870 C.3    13  ILE13       0.0019
      8  CD1      133.5780    1.8220   18.9560 C.3    13  ILE13       0.0001
      9  N        129.2290    0.9960   48.8840 N.3   209  LYS209     -0.1245
     10  CA       129.9480    0.7630   47.6380 C.3   209  LYS209      0.1561
     11  C        128.9930    0.2610   46.5540 C.2   209  LYS209      0.2260
     12  O        129.1400    0.5890   45.3670 O.2   209  LYS209     -0.2867
     13  CB       131.0750   -0.2480   47.8630 C.3   209  LYS209      0.0271
     14  CG       132.2550   -0.0860   46.9300 C.3   209  LYS209      0.0035
     15  CD       132.8570    1.2970   47.0770 C.3   209  LYS209      0.0206
     16  CE       134.0190    1.4980   46.1260 C.3   209  LYS209      0.1093
     17  NZ       134.5500    2.8860   46.2010 N.3   209  LYS209     -0.1314
     18  N        127.2780    3.1770   44.7610 N.3   212  LYS212     -0.1231
     19  CA       128.1270    3.8720   43.8050 C.3   212  LYS212      0.1693
     20  C        128.2610    3.0430   42.5360 C.2   212  LYS212      0.2591
     21  O        128.1980    3.5720   41.4110 O.2   212  LYS212     -0.2718
     22  CB       129.5060    4.1470   44.4130 C.3   212  LYS212      0.0285
     23  CG       129.4670    4.8040   45.7940 C.3   212  LYS212      0.0035
     24  CD       130.8570    4.8850   46.4230 C.3   212  LYS212      0.0206
     25  CE       130.8120    5.4300   47.8500 C.3   212  LYS212      0.1093
     26  NZ       130.3590    6.8460   47.9170 N.3   212  LYS212     -0.1314
     27  N        128.3950    1.7310   42.7240 N.am  213  VAL213     -0.1980
     28  CA       128.5240    0.8230   41.5920 C.3   213  VAL213      0.1595
     29  C        127.2680    0.8510   40.7260 C.2   213  VAL213      0.2287
     30  O        127.3380    0.9990   39.4940 O.2   213  VAL213     -0.2864
     31  CB       128.7920   -0.6200   42.0590 C.3   213  VAL213      0.0276
     32  CG1      128.5480   -1.6030   40.9260 C.3   213  VAL213      0.0022
     33  CG2      130.2090   -0.7470   42.5880 C.3   213  VAL213      0.0022
     34  N        126.9300    4.0390   38.7540 N.3   216  ALA216     -0.1245
     35  CA       127.7900    4.0700   37.5770 C.3   216  ALA216      0.1562
     36  C        127.2140    3.2230   36.4390 C.2   216  ALA216      0.2260
     37  O        127.2340    3.6330   35.2680 O.2   216  ALA216     -0.2867
     38  CB       129.1900    3.5980   37.9310 C.3   216  ALA216      0.0290
     39  N        125.6540    5.0210   26.7920 N.3   224  PHE224     -0.1241
     40  CA       125.9650    4.2300   25.6100 C.3   224  PHE224      0.1605
     41  C        124.7450    3.8850   24.7570 C.2   224  PHE224      0.2264
     42  O        124.9010    3.4480   23.6160 O.2   224  PHE224     -0.2867
     43  CB       126.7100    2.9600   26.0120 C.3   224  PHE224      0.0534
     44  CG       128.0790    3.2230   26.5640 C.ar  224  PHE224     -0.0203
     45  CD1      129.0910    3.6940   25.7430 C.ar  224  PHE224     -0.0042
     46  CD2      128.3540    3.0130   27.9040 C.ar  224  PHE224     -0.0042
     47  CE1      130.3520    3.9470   26.2480 C.ar  224  PHE224     -0.0003
     48  CE2      129.6130    3.2620   28.4150 C.ar  224  PHE224     -0.0003
     49  CZ       130.6140    3.7300   27.5850 C.ar  224  PHE224     -0.0000
     50  N        128.6830    1.1860   19.6680 N.3   258  PHE258     -0.1241
     51  CA       128.7400    2.0020   20.8710 C.3   258  PHE258      0.1605
     52  C        127.7580    1.4760   21.9140 C.2   258  PHE258      0.2264
     53  O        128.0340    1.5010   23.1160 O.2   258  PHE258     -0.2867
     54  CB       128.4400    3.4640   20.5330 C.3   258  PHE258      0.0534
     55  CG       128.9670    4.4440   21.5430 C.ar  258  PHE258     -0.0203
     56  CD1      130.3280    4.6750   21.6580 C.ar  258  PHE258     -0.0042
     57  CD2      128.1010    5.1460   22.3650 C.ar  258  PHE258     -0.0042
     58  CE1      130.8170    5.5790   22.5830 C.ar  258  PHE258     -0.0003
     59  CE2      128.5840    6.0530   23.2900 C.ar  258  PHE258     -0.0003
     60  CZ       129.9430    6.2690   23.3990 C.ar  258  PHE258     -0.0000
     61  N        128.9070   -1.5520   24.1170 N.3   261  ILE261     -0.1245
     62  CA       129.8350   -1.2700   25.2050 C.3   261  ILE261      0.1561
     63  C        129.1540   -1.5420   26.5480 C.2   261  ILE261      0.2260
     64  O        129.8170   -1.8160   27.5410 O.2   261  ILE261     -0.2867
     65  CB       130.3570    0.1870   25.1380 C.3   261  ILE261      0.0252
     66  CG1      131.0350    0.4470   23.7900 C.3   261  ILE261      0.0019
     67  CG2      131.3330    0.4790   26.2720 C.3   261  ILE261      0.0019
     68  CD1      131.5590    1.8610   23.6220 C.3   261  ILE261      0.0001
     69  N        131.0740   -2.9720   29.8360 N.3   265  ILE265     -0.1245
     70  CA       131.4050   -1.8480   30.7090 C.3   265  ILE265      0.1561
     71  C        131.2830   -2.1940   32.1950 C.2   265  ILE265      0.2260
     72  O        132.0240   -1.6610   33.0240 O.2   265  ILE265     -0.2867
     73  CB       130.5210   -0.6090   30.3870 C.3   265  ILE265      0.0252
     74  CG1      131.0300    0.6300   31.1270 C.3   265  ILE265      0.0019
     75  CG2      129.0530   -0.8750   30.6930 C.3   265  ILE265      0.0019
     76  CD1      132.4040    1.0780   30.6860 C.3   265  ILE265      0.0001
     77  N        134.3960   -3.4970   33.9630 N.3   268  ILE268     -0.1231
     78  CA       135.3280   -2.3890   34.1050 C.3   268  ILE268      0.1692
     79  C        134.9570   -1.5360   35.3100 C.2   268  ILE268      0.2591
     80  O        135.8170   -1.1570   36.1050 O.2   268  ILE268     -0.2718
     81  CB       135.3460   -1.5050   32.8440 C.3   268  ILE268      0.0266
     82  CG1      135.7580   -2.3230   31.6190 C.3   268  ILE268      0.0019
     83  CG2      136.2800   -0.3210   33.0300 C.3   268  ILE268      0.0020
     84  CD1      135.7780   -1.5220   30.3400 C.3   268  ILE268      0.0001
     85  N        133.6640   -1.2620   35.4500 N.am  269  ILE269     -0.1980
     86  CA       133.1680   -0.4640   36.5610 C.3   269  ILE269      0.1595
     87  C        133.3940   -1.1730   37.8910 C.2   269  ILE269      0.2287
     88  O        133.7760   -0.5460   38.8810 O.2   269  ILE269     -0.2864
     89  CB       131.6650   -0.1540   36.3970 C.3   269  ILE269      0.0276
     90  CG1      131.4300    0.7020   35.1500 C.3   269  ILE269      0.0022
     91  CG2      131.1190    0.5460   37.6310 C.3   269  ILE269      0.0022
     92  CD1      129.9710    0.9890   34.8700 C.3   269  ILE269      0.0001
     93  N        137.2370   -1.1160   38.6540 N.3   272  VAL272     -0.1231
     94  CA       137.6560    0.2270   39.0350 C.3   272  VAL272      0.1692
     95  C        137.1380    0.5810   40.4280 C.2   272  VAL272      0.2591
     96  O        137.8440    1.2060   41.2250 O.2   272  VAL272     -0.2718
     97  CB       137.1660    1.2790   38.0140 C.3   272  VAL272      0.0266
     98  CG1      137.3320    2.6900   38.5640 C.3   272  VAL272      0.0020
     99  CG2      137.9150    1.1240   36.6970 C.3   272  VAL272      0.0020
    100  N        135.9170    0.1480   40.7320 N.am  273  ALA273     -0.1980
    101  CA       135.3340    0.3900   42.0450 C.3   273  ALA273      0.1597
    102  C        136.0760   -0.3700   43.1360 C.2   273  ALA273      0.2287
    103  O        136.1840    0.1000   44.2670 O.2   273  ALA273     -0.2864
    104  CB       133.8610    0.0120   42.0500 C.3   273  ALA273      0.0319
@<TRIPOS>BOND
     1     1     2    1
     2     8     6    1
     3     6     5    1
     4     5     2    1
     5     5     7    1
     6     2     3    1
     7     3     4    2
     8    50    51    1
     9    54    51    1
    10    54    55    1
    11    51    52    1
    12    55    56   ar
    13    55    57   ar
    14    56    58   ar
    15    52    53    2
    16    57    59   ar
    17    58    60   ar
    18    59    60   ar
    19    42    41    2
    20    68    66    1
    21    66    65    1
    22    61    62    1
    23    41    40    1
    24    65    62    1
    25    65    67    1
    26    62    63    1
    27    40    43    1
    28    40    39    1
    29    45    47   ar
    30    45    44   ar
    31    43    44    1
    32    47    49   ar
    33    63    64    2
    34    44    46   ar
    35    49    48   ar
    36    46    48   ar
    37    69    70    1
    38    84    82    1
    39    73    75    1
    40    73    70    1
    41    73    74    1
    42    76    74    1
    43    70    71    1
    44    82    81    1
    45    71    72    2
    46    81    83    1
    47    81    78    1
    48    77    78    1
    49    78    79    1
    50    92    90    1
    51    90    89    1
    52    37    36    2
    53    79    85   am
    54    79    80    2
    55    85    86    1
    56    89    86    1
    57    89    91    1
    58    36    35    1
    59    86    87    1
    60    99    97    1
    61    35    38    1
    62    35    34    1
    63    87    88    2
    64    97    98    1
    65    97    94    1
    66    93    94    1
    67    94    95    1
    68    30    29    2
    69    95   100   am
    70    95    96    2
    71    29    28    1
    72   100   101    1
    73    32    31    1
    74    21    20    2
    75    28    31    1
    76    28    27    1
    77   101   104    1
    78   101   102    1
    79    31    33    1
    80    20    27   am
    81    20    19    1
    82   102   103    2
    83    19    22    1
    84    19    18    1
    85    22    23    1
    86    12    11    2
    87    23    24    1
    88    16    17    1
    89    16    15    1
    90    24    25    1
    91    11    10    1
    92    14    15    1
    93    14    13    1
    94    10    13    1
    95    10     9    1
    96    25    26    1
