@<TRIPOS>MOLECULE
tmp/5o9hA11.pdb
 109 103 0 0 0
SMALL
GASTEIGER

@<TRIPOS>ATOM
      1  N         90.3430   -4.0410   47.2120 N.3    40  ILE40      -0.1245
      2  CA        91.0700   -4.5060   46.0300 C.3    40  ILE40       0.1561
      3  C         90.2600   -5.4170   45.0920 C.2    40  ILE40       0.2260
      4  O         90.3720   -5.3140   43.8580 O.2    40  ILE40      -0.2867
      5  CB        92.3670   -5.2390   46.4700 C.3    40  ILE40       0.0252
      6  CG1       93.4240   -4.2320   46.9370 C.3    40  ILE40       0.0019
      7  CG2       92.9420   -6.0810   45.3560 C.3    40  ILE40       0.0019
      8  CD1       93.4630   -4.0220   48.4310 C.3    40  ILE40       0.0001
      9  N         89.6780   -5.3610   40.9620 N.3    44  TRP44      -0.1241
     10  CA        89.8430   -6.4610   40.0170 C.3    44  TRP44       0.1605
     11  C         88.6020   -6.6130   39.1380 C.2    44  TRP44       0.2264
     12  O         88.6750   -6.5480   37.8980 O.2    44  TRP44      -0.2867
     13  CB        90.0940   -7.7910   40.7410 C.3    44  TRP44       0.0550
     14  CG        91.3370   -7.9230   41.6090 C.ar   44  TRP44       0.0003
     15  CD1       91.4450   -8.6640   42.7530 C.ar   44  TRP44       0.0946
     16  CD2       92.6360   -7.3440   41.3890 C.ar   44  TRP44       0.0152
     17  NE1       92.7160   -8.5780   43.2600 N.ar   44  TRP44      -0.2442
     18  CE2       93.4670   -7.7730   42.4450 C.ar   44  TRP44       0.0810
     19  CE3       93.1750   -6.5050   40.4090 C.ar   44  TRP44       0.0012
     20  CZ2       94.8020   -7.3880   42.5510 C.ar   44  TRP44       0.0191
     21  CZ3       94.5000   -6.1240   40.5170 C.ar   44  TRP44       0.0001
     22  CH2       95.2980   -6.5650   41.5800 C.ar   44  TRP44       0.0015
     23  N         97.0680  -11.4240   37.4140 N.3    99  THR99      -0.1218
     24  CA        97.3590  -10.6960   38.6500 C.3    99  THR99       0.1862
     25  C         96.4110  -11.1080   39.7760 C.2    99  THR99       0.2287
     26  O         96.8110  -11.2110   40.9410 O.2    99  THR99      -0.2866
     27  CB        97.2540   -9.1750   38.4630 C.3    99  THR99       0.1770
     28  OG1       95.8770   -8.7830   38.4940 O.3    99  THR99      -0.2211
     29  CG2       97.8710   -8.7510   37.1420 C.3    99  THR99       0.0375
     30  N         97.4510  -14.3640   41.1240 N.3   102  ALA102     -0.1231
     31  CA        98.6110  -14.1510   41.9800 C.3   102  ALA102      0.1694
     32  C         98.1670  -13.6380   43.3440 C.2   102  ALA102      0.2592
     33  O         98.7710  -13.9580   44.3700 O.2   102  ALA102     -0.2718
     34  CB        99.5830  -13.1800   41.3320 C.3   102  ALA102      0.0304
     35  N         97.0910  -12.8570   43.3480 N.am  103  ASP103     -0.1974
     36  CA        96.5460  -12.3270   44.5890 C.3   103  ASP103      0.1709
     37  C         95.9160  -13.4370   45.4290 C.2   103  ASP103      0.2293
     38  O         96.1630  -13.5340   46.6370 O.2   103  ASP103     -0.2864
     39  CB        95.5180  -11.2360   44.2940 C.3   103  ASP103      0.1436
     40  CG        95.0790  -10.4990   45.5400 C.2   103  ASP103      0.3671
     41  OD1       95.8990  -10.3620   46.4710 O.co2 103  ASP103     -0.2456
     42  OD2       93.9120  -10.0580   45.5900 O.co2 103  ASP103     -0.2456
     43  N         98.7570  -15.4490   46.8750 N.3   106  LEU106     -0.1245
     44  CA        99.4740  -14.8000   47.9640 C.3   106  LEU106      0.1561
     45  C         98.6440  -14.7500   49.2440 C.2   106  LEU106      0.2260
     46  O         99.1900  -14.8380   50.3410 O.2   106  LEU106     -0.2867
     47  CB        99.9020  -13.3880   47.5510 C.3   106  LEU106      0.0270
     48  CG       101.0090  -13.3060   46.4910 C.3   106  LEU106      0.0019
     49  CD1      101.1400  -11.8930   45.9390 C.3   106  LEU106      0.0001
     50  CD2      102.3410  -13.7880   47.0500 C.3   106  LEU106      0.0001
     51  N        100.9690  -16.4500   51.5120 N.3   110  LYS110     -0.1245
     52  CA       101.7430  -15.3940   52.1660 C.3   110  LYS110      0.1561
     53  C        100.8520  -14.3650   52.8600 C.2   110  LYS110      0.2260
     54  O        100.7730  -13.2180   52.4200 O.2   110  LYS110     -0.2867
     55  CB       102.6350  -14.6840   51.1480 C.3   110  LYS110      0.0271
     56  CG       103.5230  -15.6020   50.3230 C.3   110  LYS110      0.0035
     57  CD       104.6790  -16.1390   51.1440 C.3   110  LYS110      0.0206
     58  CE       105.6410  -16.9340   50.2800 C.3   110  LYS110      0.1093
     59  NZ       106.8050  -17.4290   51.0660 N.3   110  LYS110     -0.1314
     60  N        102.7390  -11.0610   54.0530 N.3   113  TRP113     -0.1241
     61  CA       103.0640  -10.1430   52.9740 C.3   113  TRP113      0.1605
     62  C        101.8270   -9.3620   52.5370 C.2   113  TRP113      0.2264
     63  O        101.8990   -8.1640   52.2360 O.2   113  TRP113     -0.2867
     64  CB       103.6600  -10.9190   51.7990 C.3   113  TRP113      0.0550
     65  CG       104.2470  -10.0630   50.7330 C.ar  113  TRP113      0.0003
     66  CD1      105.5470   -9.6690   50.6230 C.ar  113  TRP113      0.0946
     67  CD2      103.5590   -9.4980   49.6140 C.ar  113  TRP113      0.0152
     68  NE1      105.7120   -8.8890   49.5050 N.ar  113  TRP113     -0.2442
     69  CE2      104.5050   -8.7690   48.8680 C.ar  113  TRP113      0.0810
     70  CE3      102.2330   -9.5360   49.1720 C.ar  113  TRP113      0.0012
     71  CZ2      104.1670   -8.0830   47.7030 C.ar  113  TRP113      0.0191
     72  CZ3      101.9000   -8.8560   48.0170 C.ar  113  TRP113      0.0001
     73  CH2      102.8620   -8.1390   47.2950 C.ar  113  TRP113      0.0015
     74  N         99.2760   -5.4000   50.4310 N.3   118  ARG118     -0.1231
     75  CA        98.0850   -5.4870   49.5930 C.3   118  ARG118      0.1694
     76  C         97.2580   -4.2070   49.6860 C.2   118  ARG118      0.2592
     77  O         96.2010   -4.1830   50.3200 O.2   118  ARG118     -0.2718
     78  CB        97.2300   -6.6970   49.9680 C.3   118  ARG118      0.0321
     79  CG        96.4120   -7.2090   48.7960 C.3   118  ARG118      0.0489
     80  CD        95.2670   -8.0950   49.2300 C.3   118  ARG118      0.2205
     81  NE        94.0290   -7.7230   48.5530 N.pl3 118  ARG118     -0.0865
     82  CZ        92.9700   -8.5160   48.4620 C.cat 118  ARG118      0.5346
     83  NH1       93.0130   -9.7190   48.9980 N.pl3 118  ARG118      0.1354
     84  NH2       91.8770   -8.1140   47.8330 N.pl3 118  ARG118      0.1354
     85  N         97.7520   -3.1460   49.0500 N.am  119  GLY119     -0.1957
     86  CA        97.0620   -1.8670   49.0300 C.3   119  GLY119      0.1869
     87  C         96.3770   -1.5520   47.7100 C.2   119  GLY119      0.2309
     88  O         96.6880   -2.1460   46.6760 O.2   119  GLY119     -0.2863
     89  N         98.6980   -0.0980   44.7700 N.3   122  LEU122     -0.1231
     90  CA        99.4700   -1.1120   44.0740 C.3   122  LEU122      0.1693
     91  C         98.5900   -1.8740   43.0960 C.2   122  LEU122      0.2591
     92  O         99.0090   -2.1800   41.9800 O.2   122  LEU122     -0.2718
     93  CB       100.1080   -2.0810   45.0670 C.3   122  LEU122      0.0284
     94  CG       100.9440   -3.1830   44.4200 C.3   122  LEU122      0.0019
     95  CD1      102.1180   -2.5700   43.6780 C.3   122  LEU122      0.0001
     96  CD2      101.4190   -4.1960   45.4500 C.3   122  LEU122      0.0001
     97  N         97.3600   -2.1620   43.5140 N.am  123  ALA123     -0.1980
     98  CA        96.4340   -2.8980   42.6650 C.3   123  ALA123      0.1597
     99  C         96.0820   -2.0760   41.4320 C.2   123  ALA123      0.2287
    100  O         95.9980   -2.6050   40.3180 O.2   123  ALA123     -0.2864
    101  CB        95.1780   -3.2690   43.4410 C.3   123  ALA123      0.0319
    102  N         99.0640   -2.1570   39.0740 N.3   126  LEU126     -0.1245
    103  CA        99.0940   -3.4190   38.3450 C.3   126  LEU126      0.1561
    104  C         98.0290   -3.4530   37.2520 C.2   126  LEU126      0.2260
    105  O         98.2550   -4.0080   36.1710 O.2   126  LEU126     -0.2867
    106  CB        98.9100   -4.5950   39.3120 C.3   126  LEU126      0.0270
    107  CG       100.0100   -4.7580   40.3680 C.3   126  LEU126      0.0019
    108  CD1       99.6020   -5.7380   41.4640 C.3   126  LEU126      0.0001
    109  CD2      101.3130   -5.1960   39.7200 C.3   126  LEU126      0.0001
@<TRIPOS>BOND
     1   105   104    2
     2    29    27    1
     3   104   103    1
     4    23    24    1
     5    12    11    2
     6   103   102    1
     7   103   106    1
     8    27    28    1
     9    27    24    1
    10    24    25    1
    11    11    10    1
    12   106   107    1
    13   109   107    1
    14    25    26    2
    15    10    13    1
    16    10     9    1
    17   100    99    2
    18   107   108    1
    19    19    21   ar
    20    19    16   ar
    21    21    22   ar
    22    13    14    1
    23    30    31    1
    24    34    31    1
    25    16    14   ar
    26    16    18   ar
    27    99    98    1
    28    22    20   ar
    29    14    15   ar
    30    31    32    1
    31    92    91    2
    32    18    20   ar
    33    18    17   ar
    34    98   101    1
    35    98    97    1
    36    15    17   ar
    37    91    97   am
    38    91    90    1
    39    32    35   am
    40    32    33    2
    41    35    36    1
    42    95    94    1
    43     4     3    2
    44    90    89    1
    45    90    93    1
    46    39    36    1
    47    39    40    1
    48    94    93    1
    49    94    96    1
    50    36    37    1
    51     3     2    1
    52     7     5    1
    53    37    38    2
    54    40    42   ar
    55    40    41   ar
    56    49    48    1
    57     2     5    1
    58     2     1    1
    59     5     6    1
    60    48    50    1
    61    48    47    1
    62    88    87    2
    63    43    44    1
    64     6     8    1
    65    73    71   ar
    66    73    72   ar
    67    47    44    1
    68    71    69   ar
    69    87    86    1
    70    84    82    1
    71    44    45    1
    72    72    70   ar
    73    82    81    2
    74    82    83    1
    75    81    80    1
    76    79    80    1
    77    79    78    1
    78    69    68   ar
    79    69    67   ar
    80    86    85    1
    81    85    76   am
    82    70    67   ar
    83    45    46    2
    84    68    66   ar
    85    75    76    1
    86    75    78    1
    87    75    74    1
    88    67    65   ar
    89    76    77    2
    90    58    59    1
    91    58    57    1
    92    56    57    1
    93    56    55    1
    94    66    65   ar
    95    65    64    1
    96    55    52    1
    97    51    52    1
    98    64    61    1
    99    52    53    1
   100    63    62    2
   101    54    53    2
   102    62    61    1
   103    61    60    1
