@<TRIPOS>MOLECULE
tmp/5o9hB14.pdb
 82 76 0 0 0
SMALL
GASTEIGER

@<TRIPOS>ATOM
      1  N        121.4010  -10.8540   48.0620 N.3    40  ILE40      -0.1245
      2  CA       120.5270  -10.2560   47.0520 C.3    40  ILE40       0.1561
      3  C        121.3060   -9.5370   45.9480 C.2    40  ILE40       0.2260
      4  O        121.0070   -9.6830   44.7470 O.2    40  ILE40      -0.2867
      5  CB       119.5430   -9.2500   47.6960 C.3    40  ILE40       0.0252
      6  CG1      118.9720   -9.8080   49.0040 C.3    40  ILE40       0.0019
      7  CG2      118.4320   -8.8820   46.7220 C.3    40  ILE40       0.0019
      8  CD1      118.1280  -11.0430   48.8340 C.3    40  ILE40       0.0001
      9  N        121.3990   -9.7540   41.7780 N.3    44  TRP44      -0.1241
     10  CA       121.2940   -8.6500   40.8240 C.3    44  TRP44       0.1605
     11  C        122.4300   -8.6850   39.8000 C.2    44  TRP44       0.2264
     12  O        122.1980   -8.7520   38.5770 O.2    44  TRP44      -0.2867
     13  CB       121.3230   -7.2920   41.5380 C.3    44  TRP44       0.0550
     14  CG       120.2490   -7.0180   42.5720 C.ar   44  TRP44       0.0003
     15  CD1      120.3960   -6.2780   43.7120 C.ar   44  TRP44       0.0946
     16  CD2      118.8770   -7.4430   42.5480 C.ar   44  TRP44       0.0152
     17  NE1      119.2100   -6.2240   44.4010 N.ar   44  TRP44      -0.2442
     18  CE2      118.2620   -6.9320   43.7100 C.ar   44  TRP44       0.0810
     19  CE3      118.1110   -8.2090   41.6640 C.ar   44  TRP44       0.0012
     20  CZ2      116.9220   -7.1640   44.0080 C.ar   44  TRP44       0.0191
     21  CZ3      116.7850   -8.4390   41.9630 C.ar   44  TRP44       0.0001
     22  CH2      116.2020   -7.9190   43.1250 C.ar   44  TRP44       0.0015
     23  N        114.6410   -2.8050   39.0020 N.3    99  THR99      -0.1218
     24  CA       114.4020   -3.5750   40.2190 C.3    99  THR99       0.1862
     25  C        115.4750   -3.2930   41.2730 C.2    99  THR99       0.2287
     26  O        115.1790   -3.1240   42.4630 O.2    99  THR99      -0.2866
     27  CB       114.3700   -5.0820   39.9220 C.3    99  THR99       0.1770
     28  OG1      113.5230   -5.3280   38.7930 O.3    99  THR99      -0.2211
     29  CG2      113.8540   -5.8560   41.1230 C.3    99  THR99       0.0375
     30  N        114.8790    0.0040   42.8040 N.3   102  ALA102     -0.1231
     31  CA       113.8470   -0.0760   43.8300 C.3   102  ALA102      0.1694
     32  C        114.4400   -0.6410   45.1160 C.2   102  ALA102      0.2592
     33  O        114.0670   -0.2310   46.2180 O.2   102  ALA102     -0.2718
     34  CB       112.6840   -0.9300   43.3560 C.3   102  ALA102      0.0304
     35  N        115.3890   -1.5590   44.9620 N.am  103  ASP103     -0.1974
     36  CA       116.0710   -2.1480   46.1060 C.3   103  ASP103      0.1709
     37  C        116.8940   -1.0970   46.8530 C.2   103  ASP103      0.2293
     38  O        116.7890   -0.9660   48.0780 O.2   103  ASP103     -0.2864
     39  CB       116.9640   -3.3030   45.6480 C.3   103  ASP103      0.1436
     40  CG       117.6200   -4.0340   46.8020 C.2   103  ASP103      0.3671
     41  OD1      116.9340   -4.3010   47.8080 O.co2 103  ASP103     -0.2456
     42  OD2      118.8240   -4.3500   46.7010 O.co2 103  ASP103     -0.2456
     43  N        114.5080    1.3820   48.6170 N.3   106  LEU106     -0.1245
     44  CA       113.8550    0.8450   49.7980 C.3   106  LEU106      0.1561
     45  C        114.8400    0.6360   50.9430 C.2   106  LEU106      0.2260
     46  O        114.4720    0.7740   52.1070 O.2   106  LEU106     -0.2867
     47  CB       113.1390   -0.4630   49.4610 C.3   106  LEU106      0.0270
     48  CG       111.8650   -0.2960   48.6280 C.3   106  LEU106      0.0019
     49  CD1      111.2600   -1.6520   48.3070 C.3   106  LEU106      0.0001
     50  CD2      110.8530    0.5950   49.3420 C.3   106  LEU106      0.0001
     51  N        113.0850   -8.5900   52.6170 N.3   118  ARG118     -0.1245
     52  CA       114.0980   -8.6060   51.5610 C.3   118  ARG118      0.1563
     53  C        114.8110   -9.9580   51.5000 C.2   118  ARG118      0.2260
     54  O        115.9240  -10.1100   52.0090 O.2   118  ARG118     -0.2867
     55  CB       115.1040   -7.4720   51.7720 C.3   118  ARG118      0.0307
     56  CG       116.0370   -7.2130   50.6020 C.3   118  ARG118      0.0489
     57  CD       116.8530   -5.9500   50.8350 C.3   118  ARG118      0.2205
     58  NE       117.8790   -5.7530   49.8150 N.pl3 118  ARG118     -0.0865
     59  CZ       119.1300   -6.1860   49.9210 C.cat 118  ARG118      0.5346
     60  NH1      119.5160   -6.8460   51.0050 N.pl3 118  ARG118      0.1354
     61  NH2      119.9980   -5.9600   48.9440 N.pl3 118  ARG118      0.1354
     62  N        112.2070  -13.6320   46.6560 N.3   122  LEU122     -0.1231
     63  CA       111.5430  -12.4980   46.0320 C.3   122  LEU122      0.1693
     64  C        112.4230  -11.9040   44.9440 C.2   122  LEU122      0.2591
     65  O        111.9370  -11.4910   43.8900 O.2   122  LEU122     -0.2718
     66  CB       111.2120  -11.4280   47.0740 C.3   122  LEU122      0.0284
     67  CG       110.6180  -10.1380   46.5100 C.3   122  LEU122      0.0019
     68  CD1      109.2990  -10.4250   45.8130 C.3   122  LEU122      0.0001
     69  CD2      110.4410   -9.0960   47.6000 C.3   122  LEU122      0.0001
     70  N        113.7290  -11.8930   45.1930 N.am  123  ALA123     -0.1980
     71  CA       114.6630  -11.3490   44.2240 C.3   123  ALA123      0.1597
     72  C        114.6650  -12.1990   42.9580 C.2   123  ALA123      0.2287
     73  O        114.6290  -11.6710   41.8410 O.2   123  ALA123     -0.2864
     74  CB       116.0580  -11.2670   44.8190 C.3   123  ALA123      0.0319
     75  N        111.3670  -11.5920   41.0240 N.3   126  LEU126     -0.1245
     76  CA       111.4120  -10.3350   40.2830 C.3   126  LEU126      0.1561
     77  C        112.3340  -10.4230   39.0640 C.2   126  LEU126      0.2260
     78  O        112.0360   -9.8560   38.0050 O.2   126  LEU126     -0.2867
     79  CB       111.8660   -9.1950   41.1980 C.3   126  LEU126      0.0270
     80  CG       110.9290   -8.8350   42.3530 C.3   126  LEU126      0.0019
     81  CD1      111.6070   -7.8800   43.3240 C.3   126  LEU126      0.0001
     82  CD2      109.6410   -8.2340   41.8210 C.3   126  LEU126      0.0001
@<TRIPOS>BOND
     1    78    77    2
     2    12    11    2
     3    28    27    1
     4    23    24    1
     5    77    76    1
     6    11    10    1
     7    27    24    1
     8    27    29    1
     9    24    25    1
    10    76    75    1
    11    76    79    1
    12    10    13    1
    13    10     9    1
    14    79    80    1
    15    25    26    2
    16    13    14    1
    17    19    21   ar
    18    19    16   ar
    19    82    80    1
    20    73    72    2
    21    21    22   ar
    22    80    81    1
    23    16    14   ar
    24    16    18   ar
    25    14    15   ar
    26    30    31    1
    27    72    71    1
    28    22    20   ar
    29    34    31    1
    30    18    20   ar
    31    18    17   ar
    32    15    17   ar
    33    31    32    1
    34    65    64    2
    35    71    74    1
    36    71    70    1
    37     4     3    2
    38    64    70   am
    39    64    63    1
    40    35    32   am
    41    35    36    1
    42    32    33    2
    43    39    36    1
    44    39    40    1
    45    68    67    1
    46     3     2    1
    47    63    62    1
    48    63    66    1
    49    36    37    1
    50    67    66    1
    51    67    69    1
    52    42    40   ar
    53     7     5    1
    54    40    41   ar
    55    37    38    2
    56     2     5    1
    57     2     1    1
    58     5     6    1
    59    49    48    1
    60    43    44    1
    61    48    50    1
    62    48    47    1
    63     8     6    1
    64    61    59    1
    65    47    44    1
    66    44    45    1
    67    58    59    2
    68    58    57    1
    69    59    60    1
    70    56    57    1
    71    56    55    1
    72    45    46    2
    73    53    52    1
    74    53    54    2
    75    52    55    1
    76    52    51    1
