@<TRIPOS>MOLECULE
tmp/5o9hA13.pdb
 81 78 0 0 0
SMALL
GASTEIGER

@<TRIPOS>ATOM
      1  N         95.6180  -13.0270   35.5720 N.3    98  ALA98      -0.1245
      2  CA        96.9160  -13.4560   36.0720 C.3    98  ALA98       0.1562
      3  C         97.2450  -12.7450   37.3810 C.2    98  ALA98       0.2260
      4  O         97.6450  -13.3880   38.3600 O.2    98  ALA98      -0.2867
      5  CB        98.0030  -13.1990   35.0350 C.3    98  ALA98       0.0290
      6  N         94.9500  -14.0400   40.0680 N.3   101  SER101     -0.1202
      7  CA        95.3360  -15.3710   40.5070 C.3   101  SER101      0.2020
      8  C         96.5500  -15.2980   41.4200 C.2   101  SER101      0.2618
      9  O         96.6600  -16.0600   42.3820 O.2   101  SER101     -0.2717
     10  CB        95.6230  -16.2720   39.3080 C.3   101  SER101      0.2103
     11  OG        94.4820  -16.3740   38.4770 O.3   101  SER101     -0.2182
     12  N         97.4510  -14.3640   41.1240 N.am  102  ALA102     -0.1979
     13  CA        98.6110  -14.1510   41.9800 C.3   102  ALA102      0.1597
     14  C         98.1670  -13.6380   43.3440 C.2   102  ALA102      0.2287
     15  O         98.7710  -13.9580   44.3700 O.2   102  ALA102     -0.2864
     16  CB        99.5830  -13.1800   41.3320 C.3   102  ALA102      0.0319
     17  N         96.6530  -16.4520   45.2690 N.3   105  PHE105     -0.1241
     18  CA        97.7490  -17.3050   45.6960 C.3   105  PHE105      0.1605
     19  C         98.4260  -16.7350   46.9360 C.2   105  PHE105      0.2264
     20  O         98.6430  -17.4450   47.9250 O.2   105  PHE105     -0.2867
     21  CB        98.7700  -17.4670   44.5670 C.3   105  PHE105      0.0534
     22  CG        99.8850  -18.4180   44.8910 C.ar  105  PHE105     -0.0203
     23  CD1      101.0270  -17.9750   45.5410 C.ar  105  PHE105     -0.0042
     24  CD2       99.7930  -19.7540   44.5440 C.ar  105  PHE105     -0.0042
     25  CE1      102.0500  -18.8480   45.8430 C.ar  105  PHE105     -0.0003
     26  CE2      100.8160  -20.6320   44.8410 C.ar  105  PHE105     -0.0003
     27  CZ       101.9460  -20.1780   45.4900 C.ar  105  PHE105     -0.0000
     28  N        100.3300  -20.9040   27.4890 N.3   181  TRP181     -0.1241
     29  CA       101.0980  -20.4500   28.6480 C.3   181  TRP181      0.1605
     30  C        100.1880  -20.0590   29.8280 C.2   181  TRP181      0.2264
     31  O        100.4110  -20.5310   30.9560 O.2   181  TRP181     -0.2867
     32  CB       102.0220  -19.2860   28.2620 C.3   181  TRP181      0.0550
     33  CG       102.7890  -18.6980   29.4100 C.ar  181  TRP181      0.0003
     34  CD1      102.6060  -17.4700   29.9720 C.ar  181  TRP181      0.0946
     35  CD2      103.8570  -19.3180   30.1390 C.ar  181  TRP181      0.0152
     36  NE1      103.4950  -17.2820   31.0020 N.ar  181  TRP181     -0.2442
     37  CE2      104.2740  -18.4020   31.1260 C.ar  181  TRP181      0.0810
     38  CE3      104.5000  -20.5560   30.0520 C.ar  181  TRP181      0.0012
     39  CZ2      105.3050  -18.6860   32.0210 C.ar  181  TRP181      0.0191
     40  CZ3      105.5220  -20.8360   30.9390 C.ar  181  TRP181      0.0001
     41  CH2      105.9140  -19.9060   31.9120 C.ar  181  TRP181      0.0015
     42  N        100.3020  -22.1360   33.4600 N.3   185  THR185     -0.1203
     43  CA       100.6410  -21.4130   34.6790 C.3   185  THR185      0.1994
     44  C         99.4670  -21.3470   35.6570 C.2   185  THR185      0.2617
     45  O         99.6170  -21.6640   36.8460 O.2   185  THR185     -0.2717
     46  CB       101.1090  -19.9860   34.3630 C.3   185  THR185      0.1784
     47  OG1      100.0790  -19.2980   33.6430 O.3   185  THR185     -0.2211
     48  CG2      102.3710  -20.0220   33.5200 C.3   185  THR185      0.0376
     49  N         98.2970  -20.9560   35.1590 N.am  186  LEU186     -0.1979
     50  CA        97.1210  -20.8620   36.0180 C.3   186  LEU186      0.1596
     51  C         96.7080  -22.2340   36.5410 C.2   186  LEU186      0.2287
     52  O         96.2290  -22.3560   37.6790 O.2   186  LEU186     -0.2864
     53  CB        95.9570  -20.2000   35.2790 C.3   186  LEU186      0.0297
     54  CG        96.1740  -18.7230   34.9390 C.3   186  LEU186      0.0022
     55  CD1       94.9730  -18.1280   34.2190 C.3   186  LEU186      0.0001
     56  CD2       96.4900  -17.9330   36.1940 C.3   186  LEU186      0.0001
     57  N         98.7520  -24.7380   37.2720 N.3   188  ILE188     -0.1231
     58  CA        99.6340  -25.0460   38.3920 C.3   188  ILE188      0.1692
     59  C         99.2570  -24.2280   39.6320 C.2   188  ILE188      0.2592
     60  O         99.2010  -24.7540   40.7640 O.2   188  ILE188     -0.2718
     61  CB       101.1010  -24.7840   38.0150 C.3   188  ILE188      0.0266
     62  CG1      101.4960  -25.6760   36.8370 C.3   188  ILE188      0.0019
     63  CG2      102.0120  -25.0240   39.1990 C.3   188  ILE188      0.0020
     64  CD1      102.9100  -25.4690   36.3570 C.3   188  ILE188      0.0001
     65  N         98.9170  -22.9630   39.3920 N.am  189  CYS189     -0.1970
     66  CA        98.5900  -22.0270   40.4640 C.3   189  CYS189      0.1712
     67  C         97.3990  -22.5060   41.2930 C.2   189  CYS189      0.2296
     68  O         97.4830  -22.6520   42.5260 O.2   189  CYS189     -0.2864
     69  CB        98.3010  -20.6430   39.8660 C.3   189  CYS189      0.0983
     70  SG        97.7610  -19.3620   41.0260 S.3   189  CYS189     -0.0798
     71  N         97.9390  -25.8050   43.2970 N.3   192  PHE192     -0.1241
     72  CA        98.4760  -25.5690   44.6340 C.3   192  PHE192      0.1605
     73  C         97.4100  -24.9990   45.5690 C.2   192  PHE192      0.2264
     74  O         97.2220  -25.4900   46.6990 O.2   192  PHE192     -0.2867
     75  CB        99.6730  -24.6180   44.5770 C.3   192  PHE192      0.0534
     76  CG       100.9620  -25.2830   44.1910 C.ar  192  PHE192     -0.0203
     77  CD1      101.7650  -25.8740   45.1530 C.ar  192  PHE192     -0.0042
     78  CD2      101.3790  -25.3090   42.8710 C.ar  192  PHE192     -0.0042
     79  CE1      102.9560  -26.4820   44.8040 C.ar  192  PHE192     -0.0003
     80  CE2      102.5680  -25.9170   42.5170 C.ar  192  PHE192     -0.0003
     81  CZ       103.3560  -26.5050   43.4840 C.ar  192  PHE192     -0.0000
@<TRIPOS>BOND
     1    28    29    1
     2    32    29    1
     3    32    33    1
     4    29    30    1
     5    33    34   ar
     6    33    35   ar
     7    30    31    2
     8    34    36   ar
     9    38    35   ar
    10    38    40   ar
    11    35    37   ar
    12    40    41   ar
    13    36    37   ar
    14    37    39   ar
    15    41    39   ar
    16    42    43    1
    17    48    46    1
    18    47    46    1
    19    55    54    1
    20    46    43    1
    21    43    44    1
    22    54    53    1
    23    54    56    1
    24     5     2    1
    25    49    44   am
    26    49    50    1
    27    53    50    1
    28     1     2    1
    29    44    45    2
    30    50    51    1
    31     2     3    1
    32    64    62    1
    33    51    52    2
    34    62    61    1
    35    57    58    1
    36     3     4    2
    37    61    58    1
    38    61    63    1
    39    58    59    1
    40    11    10    1
    41    10     7    1
    42    65    59   am
    43    65    66    1
    44    59    60    2
    45    69    66    1
    46    69    70    1
    47     6     7    1
    48    66    67    1
    49     7     8    1
    50    12     8   am
    51    12    13    1
    52    67    68    2
    53    16    13    1
    54     8     9    2
    55    13    14    1
    56    80    78   ar
    57    80    81   ar
    58    78    76   ar
    59    71    72    1
    60    14    15    2
    61    81    79   ar
    62    76    75    1
    63    76    77   ar
    64    24    26   ar
    65    24    22   ar
    66    21    22    1
    67    21    18    1
    68    75    72    1
    69    72    73    1
    70    79    77   ar
    71    26    27   ar
    72    22    23   ar
    73    17    18    1
    74    27    25   ar
    75    23    25   ar
    76    73    74    2
    77    18    19    1
    78    19    20    2
