@<TRIPOS>MOLECULE
tmp/5o9hA03.pdb
 103 95 0 0 0
SMALL
GASTEIGER

@<TRIPOS>ATOM
      1  N         72.5460  -11.9910   22.1040 N.3    16  VAL16      -0.1231
      2  CA        72.4530  -12.3080   23.5280 C.3    16  VAL16       0.1692
      3  C         73.6230  -11.7060   24.3060 C.2    16  VAL16       0.2591
      4  O         73.4410  -11.0870   25.3650 O.2    16  VAL16      -0.2718
      5  CB        72.4320  -13.8340   23.7550 C.3    16  VAL16       0.0266
      6  CG1       72.3940  -14.1620   25.2390 C.3    16  VAL16       0.0020
      7  CG2       71.2590  -14.4660   23.0240 C.3    16  VAL16       0.0020
      8  N         74.8190  -11.8670   23.7470 N.am   17  VAL17      -0.1980
      9  CA        76.0370  -11.3380   24.3460 C.3    17  VAL17       0.1595
     10  C         76.0220   -9.8100   24.3970 C.2    17  VAL17       0.2287
     11  O         76.5210   -9.2160   25.3560 O.2    17  VAL17      -0.2864
     12  CB        77.2910  -11.8220   23.5750 C.3    17  VAL17       0.0276
     13  CG1       78.5330  -11.0450   23.9940 C.3    17  VAL17       0.0022
     14  CG2       77.5000  -13.3130   23.7850 C.3    17  VAL17       0.0022
     15  N         73.1070   -8.9350   27.3740 N.3    20  VAL20      -0.1245
     16  CA        73.5320   -9.3500   28.7070 C.3    20  VAL20       0.1561
     17  C         74.8770   -8.7310   29.0650 C.2    20  VAL20       0.2260
     18  O         75.1270   -8.3620   30.2150 O.2    20  VAL20      -0.2867
     19  CB        73.6360  -10.8860   28.8140 C.3    20  VAL20       0.0252
     20  CG1       74.1430  -11.2990   30.1900 C.3    20  VAL20       0.0019
     21  CG2       72.2920  -11.5270   28.5210 C.3    20  VAL20       0.0019
     22  N         86.0300  -18.9200   44.6810 N.3   210  LYS210     -0.1231
     23  CA        85.1550  -19.7610   43.8790 C.3   210  LYS210      0.1693
     24  C         84.7270  -19.0220   42.6180 C.2   210  LYS210      0.2591
     25  O         84.7470  -19.5820   41.5070 O.2   210  LYS210     -0.2718
     26  CB        83.9390  -20.1900   44.7020 C.3   210  LYS210      0.0285
     27  CG        84.2990  -21.0320   45.9190 C.3   210  LYS210      0.0035
     28  CD        83.1790  -21.0520   46.9500 C.3   210  LYS210      0.0206
     29  CE        83.5930  -21.8250   48.1930 C.3   210  LYS210      0.1093
     30  NZ        82.6780  -21.5810   49.3420 N.3   210  LYS210     -0.1314
     31  N         84.3920  -17.7440   42.7910 N.am  211  VAL211     -0.1980
     32  CA        84.0120  -16.9060   41.6600 C.3   211  VAL211      0.1595
     33  C         85.1540  -16.7720   40.6500 C.2   211  VAL211      0.2287
     34  O         84.9630  -16.9710   39.4390 O.2   211  VAL211     -0.2864
     35  CB        83.5860  -15.4990   42.1310 C.3   211  VAL211      0.0276
     36  CG1       83.4290  -14.5570   40.9480 C.3   211  VAL211      0.0022
     37  CG2       82.3030  -15.5760   42.9420 C.3   211  VAL211      0.0022
     38  N         85.7970  -19.8310   38.7060 N.3   214  ALA214     -0.1245
     39  CA        84.7880  -20.0100   37.6660 C.3   214  ALA214      0.1562
     40  C         85.1060  -19.1530   36.4370 C.2   214  ALA214      0.2260
     41  O         85.0300  -19.6290   35.2910 O.2   214  ALA214     -0.2867
     42  CB        83.4070  -19.6770   38.2020 C.3   214  ALA214      0.0290
     43  N         85.7190  -20.7630   26.4970 N.3   222  PHE222     -0.1241
     44  CA        85.1780  -20.0620   25.3370 C.3   222  PHE222      0.1605
     45  C         86.2270  -19.6620   24.3060 C.2   222  PHE222      0.2264
     46  O         85.9030  -19.5020   23.1280 O.2   222  PHE222     -0.2867
     47  CB        84.3860  -18.8370   25.7860 C.3   222  PHE222      0.0534
     48  CG        83.1350  -19.1890   26.5240 C.ar  222  PHE222     -0.0203
     49  CD1       82.1310  -19.9100   25.8970 C.ar  222  PHE222     -0.0042
     50  CD2       82.9690  -18.8270   27.8450 C.ar  222  PHE222     -0.0042
     51  CE1       80.9800  -20.2520   26.5740 C.ar  222  PHE222     -0.0003
     52  CE2       81.8230  -19.1650   28.5250 C.ar  222  PHE222     -0.0003
     53  CZ        80.8260  -19.8790   27.8910 C.ar  222  PHE222     -0.0000
     54  N         81.2570  -14.8640   24.1480 N.3   259  ILE259     -0.1245
     55  CA        80.4920  -15.1870   25.3530 C.3   259  ILE259      0.1561
     56  C         81.2810  -14.8160   26.6270 C.2   259  ILE259      0.2260
     57  O         80.6900  -14.5660   27.6840 O.2   259  ILE259     -0.2867
     58  CB        80.0930  -16.6800   25.3770 C.3   259  ILE259      0.0252
     59  CG1       79.2230  -17.0100   24.1650 C.3   259  ILE259      0.0019
     60  CG2       79.3250  -17.0250   26.6400 C.3   259  ILE259      0.0019
     61  CD1       78.5730  -18.3750   24.2370 C.3   259  ILE259      0.0001
     62  N         80.1440  -11.6900   28.4580 N.3   262  CYS262     -0.1221
     63  CA        78.8460  -11.6150   29.1220 C.3   262  CYS262      0.1808
     64  C         78.6320  -12.6920   30.1830 C.2   262  CYS262      0.2601
     65  O         77.6900  -12.6020   30.9690 O.2   262  CYS262     -0.2717
     66  CB        77.7170  -11.6990   28.0930 C.3   262  CYS262      0.0970
     67  SG        77.3970  -13.3670   27.4790 S.3   262  CYS262     -0.0800
     68  N         79.4700  -13.7240   30.1920 N.am  263  ILE263     -0.1979
     69  CA        79.2880  -14.7990   31.1630 C.3   263  ILE263      0.1595
     70  C         79.6790  -14.3940   32.5940 C.2   263  ILE263      0.2287
     71  O         79.2210  -15.0110   33.5590 O.2   263  ILE263     -0.2864
     72  CB        80.0810  -16.0720   30.7700 C.3   263  ILE263      0.0276
     73  CG1       79.5270  -17.2870   31.5240 C.3   263  ILE263      0.0022
     74  CG2       81.5760  -15.8820   30.9990 C.3   263  ILE263      0.0022
     75  CD1       80.4130  -18.5040   31.5050 C.3   263  ILE263      0.0001
     76  N         76.7850  -13.4440   34.7540 N.3   266  ILE266     -0.1231
     77  CA        76.0070  -14.6550   34.9490 C.3   266  ILE266      0.1692
     78  C         76.6130  -15.4850   36.0690 C.2   266  ILE266      0.2591
     79  O         75.9030  -16.0080   36.9320 O.2   266  ILE266     -0.2718
     80  CB        75.9450  -15.4940   33.6600 C.3   266  ILE266      0.0266
     81  CG1       75.2480  -14.7090   32.5460 C.3   266  ILE266      0.0019
     82  CG2       75.2430  -16.8180   33.9120 C.3   266  ILE266      0.0020
     83  CD1       75.1530  -15.4650   31.2410 C.3   266  ILE266      0.0001
     84  N         77.9380  -15.5590   36.0670 N.am  267  ILE267     -0.1980
     85  CA        78.6640  -16.2950   37.0850 C.3   267  ILE267      0.1595
     86  C         78.4650  -15.6460   38.4470 C.2   267  ILE267      0.2287
     87  O         78.2360  -16.3350   39.4440 O.2   267  ILE267     -0.2864
     88  CB        80.1700  -16.3660   36.7570 C.3   267  ILE267      0.0276
     89  CG1       80.4080  -17.2700   35.5450 C.3   267  ILE267      0.0022
     90  CG2       80.9700  -16.8550   37.9570 C.3   267  ILE267      0.0022
     91  CD1       81.8590  -17.3880   35.1500 C.3   267  ILE267      0.0001
     92  N         74.9230  -16.3790   39.6670 N.3   270  VAL270     -0.1231
     93  CA        74.7560  -17.7810   40.0290 C.3   270  VAL270      0.1692
     94  C         75.4340  -18.0860   41.3600 C.2   270  VAL270      0.2591
     95  O         74.8740  -18.7850   42.2060 O.2   270  VAL270     -0.2718
     96  CB        75.3170  -18.7210   38.9410 C.3   270  VAL270      0.0266
     97  CG1       75.4540  -20.1390   39.4740 C.3   270  VAL270      0.0020
     98  CG2       74.4230  -18.7000   37.7120 C.3   270  VAL270      0.0020
     99  N         76.6320  -17.5440   41.5530 N.am  271  ALA271     -0.1980
    100  CA        77.3400  -17.7430   42.8090 C.3   271  ALA271      0.1597
    101  C         76.6230  -17.0490   43.9650 C.2   271  ALA271      0.2287
    102  O         76.5530  -17.5820   45.0790 O.2   271  ALA271     -0.2864
    103  CB        78.7700  -17.2440   42.6940 C.3   271  ALA271      0.0319
@<TRIPOS>BOND
     1     1     2    1
     2     7     5    1
     3    46    45    2
     4     2     5    1
     5     2     3    1
     6    12    14    1
     7    12    13    1
     8    12     9    1
     9     8     3   am
    10     8     9    1
    11     5     6    1
    12    54    55    1
    13    59    61    1
    14    59    58    1
    15    45    44    1
    16     3     4    2
    17     9    10    1
    18    10    11    2
    19    44    47    1
    20    44    43    1
    21    55    58    1
    22    55    56    1
    23    58    60    1
    24    47    48    1
    25    49    48   ar
    26    49    51   ar
    27    48    50   ar
    28    51    53   ar
    29    56    57    2
    30    15    16    1
    31    67    66    1
    32    50    52   ar
    33    53    52   ar
    34    66    63    1
    35    62    63    1
    36    21    19    1
    37    16    19    1
    38    16    17    1
    39    19    20    1
    40    17    18    2
    41    63    64    1
    42    64    68   am
    43    64    65    2
    44    68    69    1
    45    72    74    1
    46    72    69    1
    47    72    73    1
    48    69    70    1
    49    83    81    1
    50    75    73    1
    51    81    80    1
    52    70    71    2
    53    80    82    1
    54    80    77    1
    55    76    77    1
    56    77    78    1
    57    91    89    1
    58    41    40    2
    59    89    88    1
    60    84    78   am
    61    84    85    1
    62    78    79    2
    63    40    39    1
    64    88    85    1
    65    88    90    1
    66    85    86    1
    67    39    42    1
    68    39    38    1
    69    98    96    1
    70    86    87    2
    71    96    97    1
    72    96    93    1
    73    34    33    2
    74    92    93    1
    75    93    94    1
    76    33    32    1
    77    36    35    1
    78    94    99   am
    79    94    95    2
    80    25    24    2
    81    99   100    1
    82    32    35    1
    83    32    31    1
    84    35    37    1
    85    24    31   am
    86    24    23    1
    87   103   100    1
    88   100   101    1
    89    23    22    1
    90    23    26    1
    91   101   102    2
    92    26    27    1
    93    27    28    1
    94    28    29    1
    95    29    30    1
