@<TRIPOS>MOLECULE
tmp/5o9hA12.pdb
 101 98 0 0 0
SMALL
GASTEIGER

@<TRIPOS>ATOM
      1  N         97.4510  -14.3640   41.1240 N.3   102  ALA102     -0.1245
      2  CA        98.6110  -14.1510   41.9800 C.3   102  ALA102      0.1562
      3  C         98.1670  -13.6380   43.3440 C.2   102  ALA102      0.2260
      4  O         98.7710  -13.9580   44.3700 O.2   102  ALA102     -0.2867
      5  CB        99.5830  -13.1800   41.3320 C.3   102  ALA102      0.0290
      6  N         96.6530  -16.4520   45.2690 N.3   105  PHE105     -0.1227
      7  CA        97.7490  -17.3050   45.6960 C.3   105  PHE105      0.1736
      8  C         98.4260  -16.7350   46.9360 C.2   105  PHE105      0.2595
      9  O         98.6430  -17.4450   47.9250 O.2   105  PHE105     -0.2718
     10  CB        98.7700  -17.4670   44.5670 C.3   105  PHE105      0.0547
     11  CG        99.8850  -18.4180   44.8910 C.ar  105  PHE105     -0.0202
     12  CD1      101.0270  -17.9750   45.5410 C.ar  105  PHE105     -0.0042
     13  CD2       99.7930  -19.7540   44.5440 C.ar  105  PHE105     -0.0042
     14  CE1      102.0500  -18.8480   45.8430 C.ar  105  PHE105     -0.0003
     15  CE2      100.8160  -20.6320   44.8410 C.ar  105  PHE105     -0.0003
     16  CZ       101.9460  -20.1780   45.4900 C.ar  105  PHE105     -0.0000
     17  N         98.7570  -15.4490   46.8750 N.am  106  LEU106     -0.1980
     18  CA        99.4740  -14.8000   47.9640 C.3   106  LEU106      0.1596
     19  C         98.6440  -14.7500   49.2440 C.2   106  LEU106      0.2287
     20  O         99.1900  -14.8380   50.3410 O.2   106  LEU106     -0.2864
     21  CB        99.9020  -13.3880   47.5510 C.3   106  LEU106      0.0297
     22  CG       101.0090  -13.3060   46.4910 C.3   106  LEU106      0.0022
     23  CD1      101.1400  -11.8930   45.9390 C.3   106  LEU106      0.0001
     24  CD2      102.3410  -13.7880   47.0500 C.3   106  LEU106      0.0001
     25  N         99.0590  -18.3450   50.6710 N.3   109  PHE109     -0.1227
     26  CA       100.4110  -18.7890   51.0060 C.3   109  PHE109      0.1736
     27  C        101.3030  -17.7280   51.6650 C.2   109  PHE109      0.2595
     28  O        102.2940  -18.0710   52.3090 O.2   109  PHE109     -0.2718
     29  CB       101.0870  -19.3400   49.7480 C.3   109  PHE109      0.0547
     30  CG       100.4820  -20.6310   49.2600 C.ar  109  PHE109     -0.0202
     31  CD1      100.7540  -21.8250   49.9090 C.ar  109  PHE109     -0.0042
     32  CD2       99.6350  -20.6500   48.1610 C.ar  109  PHE109     -0.0042
     33  CE1      100.1990  -23.0170   49.4710 C.ar  109  PHE109     -0.0003
     34  CE2       99.0770  -21.8410   47.7160 C.ar  109  PHE109     -0.0003
     35  CZ        99.3600  -23.0250   48.3730 C.ar  109  PHE109     -0.0000
     36  N        100.9690  -16.4500   51.5120 N.am  110  LYS110     -0.1980
     37  CA       101.7430  -15.3940   52.1660 C.3   110  LYS110      0.1596
     38  C        100.8520  -14.3650   52.8600 C.2   110  LYS110      0.2287
     39  O        100.7730  -13.2180   52.4200 O.2   110  LYS110     -0.2864
     40  CB       102.6350  -14.6840   51.1480 C.3   110  LYS110      0.0298
     41  CG       103.5230  -15.6020   50.3230 C.3   110  LYS110      0.0038
     42  CD       104.6790  -16.1390   51.1440 C.3   110  LYS110      0.0206
     43  CE       105.6410  -16.9340   50.2800 C.3   110  LYS110      0.1093
     44  NZ       106.8050  -17.4290   51.0660 N.3   110  LYS110     -0.1314
     45  N        100.3300  -20.9040   27.4890 N.3   181  TRP181     -0.1241
     46  CA       101.0980  -20.4500   28.6480 C.3   181  TRP181      0.1605
     47  C        100.1880  -20.0590   29.8280 C.2   181  TRP181      0.2264
     48  O        100.4110  -20.5310   30.9560 O.2   181  TRP181     -0.2867
     49  CB       102.0220  -19.2860   28.2620 C.3   181  TRP181      0.0550
     50  CG       102.7890  -18.6980   29.4100 C.ar  181  TRP181      0.0003
     51  CD1      102.6060  -17.4700   29.9720 C.ar  181  TRP181      0.0946
     52  CD2      103.8570  -19.3180   30.1390 C.ar  181  TRP181      0.0152
     53  NE1      103.4950  -17.2820   31.0020 N.ar  181  TRP181     -0.2442
     54  CE2      104.2740  -18.4020   31.1260 C.ar  181  TRP181      0.0810
     55  CE3      104.5000  -20.5560   30.0520 C.ar  181  TRP181      0.0012
     56  CZ2      105.3050  -18.6860   32.0210 C.ar  181  TRP181      0.0191
     57  CZ3      105.5220  -20.8360   30.9390 C.ar  181  TRP181      0.0001
     58  CH2      105.9140  -19.9060   31.9120 C.ar  181  TRP181      0.0015
     59  N        100.3020  -22.1360   33.4600 N.3   185  THR185     -0.1218
     60  CA       100.6410  -21.4130   34.6790 C.3   185  THR185      0.1862
     61  C         99.4670  -21.3470   35.6570 C.2   185  THR185      0.2287
     62  O         99.6170  -21.6640   36.8460 O.2   185  THR185     -0.2866
     63  CB       101.1090  -19.9860   34.3630 C.3   185  THR185      0.1770
     64  OG1      100.0790  -19.2980   33.6430 O.3   185  THR185     -0.2211
     65  CG2      102.3710  -20.0220   33.5200 C.3   185  THR185      0.0375
     66  N         98.7520  -24.7380   37.2720 N.3   188  ILE188     -0.1231
     67  CA        99.6340  -25.0460   38.3920 C.3   188  ILE188      0.1692
     68  C         99.2570  -24.2280   39.6320 C.2   188  ILE188      0.2592
     69  O         99.2010  -24.7540   40.7640 O.2   188  ILE188     -0.2718
     70  CB       101.1010  -24.7840   38.0150 C.3   188  ILE188      0.0266
     71  CG1      101.4960  -25.6760   36.8370 C.3   188  ILE188      0.0019
     72  CG2      102.0120  -25.0240   39.1990 C.3   188  ILE188      0.0020
     73  CD1      102.9100  -25.4690   36.3570 C.3   188  ILE188      0.0001
     74  N         98.9170  -22.9630   39.3920 N.am  189  CYS189     -0.1970
     75  CA        98.5900  -22.0270   40.4640 C.3   189  CYS189      0.1712
     76  C         97.3990  -22.5060   41.2930 C.2   189  CYS189      0.2296
     77  O         97.4830  -22.6520   42.5260 O.2   189  CYS189     -0.2864
     78  CB        98.3010  -20.6430   39.8660 C.3   189  CYS189      0.0983
     79  SG        97.7610  -19.3620   41.0260 S.3   189  CYS189     -0.0798
     80  N         97.9390  -25.8050   43.2970 N.3   192  PHE192     -0.1241
     81  CA        98.4760  -25.5690   44.6340 C.3   192  PHE192      0.1605
     82  C         97.4100  -24.9990   45.5690 C.2   192  PHE192      0.2264
     83  O         97.2220  -25.4900   46.6990 O.2   192  PHE192     -0.2867
     84  CB        99.6730  -24.6180   44.5770 C.3   192  PHE192      0.0534
     85  CG       100.9620  -25.2830   44.1910 C.ar  192  PHE192     -0.0203
     86  CD1      101.7650  -25.8740   45.1530 C.ar  192  PHE192     -0.0042
     87  CD2      101.3790  -25.3090   42.8710 C.ar  192  PHE192     -0.0042
     88  CE1      102.9560  -26.4820   44.8040 C.ar  192  PHE192     -0.0003
     89  CE2      102.5680  -25.9170   42.5170 C.ar  192  PHE192     -0.0003
     90  CZ       103.3560  -26.5050   43.4840 C.ar  192  PHE192     -0.0000
     91  N         95.6240  -26.9010   48.8040 N.3   196  ARG196     -0.1245
     92  CA        95.8170  -26.3730   50.1510 C.3   196  ARG196      0.1563
     93  C         94.4880  -26.1190   50.8620 C.2   196  ARG196      0.2260
     94  O         94.3160  -26.5010   52.0220 O.2   196  ARG196     -0.2867
     95  CB        96.6410  -25.0840   50.1140 C.3   196  ARG196      0.0307
     96  CG        96.6180  -24.2960   51.4170 C.3   196  ARG196      0.0489
     97  CD        97.1950  -25.0840   52.5880 C.3   196  ARG196      0.2205
     98  NE        98.6360  -25.2780   52.4660 N.pl3 196  ARG196     -0.0865
     99  CZ        99.5400  -24.3520   52.7710 C.cat 196  ARG196      0.5346
    100  NH1       99.1510  -23.1630   53.2120 N.pl3 196  ARG196      0.1354
    101  NH2      100.8310  -24.6130   52.6300 N.pl3 196  ARG196      0.1354
@<TRIPOS>BOND
     1    45    46    1
     2    49    46    1
     3    49    50    1
     4    46    47    1
     5    50    51   ar
     6    50    52   ar
     7    47    48    2
     8    51    53   ar
     9    55    52   ar
    10    55    57   ar
    11    52    54   ar
    12    57    58   ar
    13    53    54   ar
    14    54    56   ar
    15    58    56   ar
    16    59    60    1
    17    65    63    1
    18    64    63    1
    19    63    60    1
    20    60    61    1
    21    61    62    2
    22    73    71    1
    23    71    70    1
    24    66    67    1
    25    70    67    1
    26    70    72    1
    27    67    68    1
    28    74    68   am
    29    74    75    1
    30    68    69    2
    31    78    75    1
    32    78    79    1
    33    75    76    1
    34     1     2    1
    35    76    77    2
    36     5     2    1
    37     2     3    1
    38    89    87   ar
    39    89    90   ar
    40    87    85   ar
    41    80    81    1
    42     3     4    2
    43    90    88   ar
    44    85    84    1
    45    85    86   ar
    46    13    15   ar
    47    13    11   ar
    48    10    11    1
    49    10     7    1
    50    84    81    1
    51    81    82    1
    52    88    86   ar
    53    15    16   ar
    54    11    12   ar
    55     6     7    1
    56    16    14   ar
    57    12    14   ar
    58    82    83    2
    59     7     8    1
    60    23    22    1
    61    22    24    1
    62    22    21    1
    63    17     8   am
    64    17    18    1
    65     8     9    2
    66    21    18    1
    67    34    32   ar
    68    34    35   ar
    69    18    19    1
    70    32    30   ar
    71    35    33   ar
    72    91    92    1
    73    19    20    2
    74    30    29    1
    75    30    31   ar
    76    33    31   ar
    77    29    26    1
    78    95    92    1
    79    95    96    1
    80    92    93    1
    81    43    44    1
    82    43    42    1
    83    41    42    1
    84    41    40    1
    85    25    26    1
    86    93    94    2
    87    26    27    1
    88    40    37    1
    89    96    97    1
    90    36    27   am
    91    36    37    1
    92    27    28    2
    93    37    38    1
    94    39    38    2
    95    98    97    1
    96    98    99    2
    97   101    99    1
    98    99   100    1
