@<TRIPOS>MOLECULE
tmp/5o9hB11.pdb
 85 82 0 0 0
SMALL
GASTEIGER

@<TRIPOS>ATOM
      1  N        117.1960   -0.6180   41.4370 N.3   101  SER101     -0.1202
      2  CA       116.9970    0.7520   41.8860 C.3   101  SER101      0.2020
      3  C        115.9160    0.8240   42.9550 C.2   101  SER101      0.2618
      4  O        116.0310    1.5940   43.9120 O.2   101  SER101     -0.2717
      5  CB       116.6420    1.6570   40.7070 C.3   101  SER101      0.2103
      6  OG       117.6820    1.6570   39.7450 O.3   101  SER101     -0.2182
      7  N        114.8790    0.0040   42.8040 N.am  102  ALA102     -0.1979
      8  CA       113.8470   -0.0760   43.8300 C.3   102  ALA102      0.1597
      9  C        114.4400   -0.6410   45.1160 C.2   102  ALA102      0.2287
     10  O        114.0670   -0.2310   46.2180 O.2   102  ALA102     -0.2864
     11  CB       112.6840   -0.9300   43.3560 C.3   102  ALA102      0.0319
     12  N        116.5190    2.0590   46.7530 N.3   105  PHE105     -0.1227
     13  CA       115.6130    3.0660   47.2890 C.3   105  PHE105      0.1736
     14  C        115.0280    2.6050   48.6160 C.2   105  PHE105      0.2595
     15  O        115.0510    3.3350   49.6150 O.2   105  PHE105     -0.2718
     16  CB       114.4920    3.3560   46.2860 C.3   105  PHE105      0.0547
     17  CG       113.5640    4.4630   46.7060 C.ar  105  PHE105     -0.0202
     18  CD1      112.5070    4.2160   47.5690 C.ar  105  PHE105     -0.0042
     19  CD2      113.7400    5.7480   46.2220 C.ar  105  PHE105     -0.0042
     20  CE1      111.6540    5.2300   47.9530 C.ar  105  PHE105     -0.0003
     21  CE2      112.8890    6.7680   46.6000 C.ar  105  PHE105     -0.0003
     22  CZ       111.8440    6.5090   47.4670 C.ar  105  PHE105     -0.0000
     23  N        114.5080    1.3820   48.6170 N.am  106  LEU106     -0.1980
     24  CA       113.8550    0.8450   49.7980 C.3   106  LEU106      0.1596
     25  C        114.8400    0.6360   50.9430 C.2   106  LEU106      0.2287
     26  O        114.4720    0.7740   52.1070 O.2   106  LEU106     -0.2864
     27  CB       113.1390   -0.4630   49.4610 C.3   106  LEU106      0.0297
     28  CG       111.8650   -0.2960   48.6280 C.3   106  LEU106      0.0022
     29  CD1      111.2600   -1.6520   48.3070 C.3   106  LEU106      0.0001
     30  CD2      110.8530    0.5950   49.3420 C.3   106  LEU106      0.0001
     31  N        113.0860    2.7860   53.4800 N.3   110  LYS110     -0.1245
     32  CA       112.2870    1.8390   54.2600 C.3   110  LYS110      0.1561
     33  C        113.1080    0.6610   54.7810 C.2   110  LYS110      0.2260
     34  O        112.9150   -0.4710   54.3400 O.2   110  LYS110     -0.2867
     35  CB       111.1300    1.2990   53.4130 C.3   110  LYS110      0.0271
     36  CG       110.1950    2.3530   52.8430 C.3   110  LYS110      0.0035
     37  CD       109.2550    2.8940   53.9010 C.3   110  LYS110      0.0206
     38  CE       108.1890    3.7840   53.2840 C.3   110  LYS110      0.1093
     39  NZ       107.2040    4.2570   54.2960 N.3   110  LYS110     -0.1314
     40  N        111.0440   -2.3680   56.1530 N.3   113  TRP113     -0.1241
     41  CA       110.4850   -3.2900   55.1680 C.3   113  TRP113      0.1605
     42  C        111.5280   -4.3090   54.7600 C.2   113  TRP113      0.2264
     43  O        111.2410   -5.4970   54.6350 O.2   113  TRP113     -0.2867
     44  CB       109.9940   -2.5480   53.9210 C.3   113  TRP113      0.0550
     45  CG       108.7260   -1.7800   54.1010 C.ar  113  TRP113      0.0003
     46  CD1      108.0330   -1.6000   55.2600 C.ar  113  TRP113      0.0946
     47  CD2      107.9940   -1.0850   53.0820 C.ar  113  TRP113      0.0152
     48  NE1      106.9170   -0.8340   55.0290 N.ar  113  TRP113     -0.2442
     49  CE2      106.8690   -0.5050   53.7000 C.ar  113  TRP113      0.0810
     50  CE3      108.1820   -0.8960   51.7090 C.ar  113  TRP113      0.0012
     51  CZ2      105.9350    0.2510   52.9930 C.ar  113  TRP113      0.0191
     52  CZ3      107.2540   -0.1450   51.0090 C.ar  113  TRP113      0.0001
     53  CH2      106.1450    0.4190   51.6520 C.ar  113  TRP113      0.0015
     54  N        112.2320    8.2350   35.3910 N.3   187  THR187     -0.1218
     55  CA       111.9590    7.6210   36.6840 C.3   187  THR187      0.1862
     56  C        113.2290    7.3720   37.4960 C.2   187  THR187      0.2287
     57  O        113.2710    7.6610   38.6950 O.2   187  THR187     -0.2866
     58  CB       111.1980    6.3010   36.5190 C.3   187  THR187      0.1770
     59  OG1      111.8220    5.5200   35.4940 O.3   187  THR187     -0.2211
     60  CG2      109.7610    6.5760   36.1210 C.3   187  THR187      0.0375
     61  N        114.6200   10.6270   38.8840 N.3   190  ILE190     -0.1231
     62  CA       113.9100   11.0490   40.0890 C.3   190  ILE190      0.1692
     63  C        114.3270   10.2080   41.2980 C.2   190  ILE190      0.2592
     64  O        114.5710   10.7320   42.4040 O.2   190  ILE190     -0.2718
     65  CB       112.3870   10.9560   39.8970 C.3   190  ILE190      0.0266
     66  CG1      111.9420   11.9240   38.8000 C.3   190  ILE190      0.0019
     67  CG2      111.6620   11.2510   41.2000 C.3   190  ILE190      0.0020
     68  CD1      110.4690   11.8640   38.4900 C.3   190  ILE190      0.0001
     69  N        114.4710    8.9080   41.0560 N.am  191  CYS191     -0.1970
     70  CA       114.7700    7.9520   42.1130 C.3   191  CYS191      0.1712
     71  C        116.1190    8.2360   42.7680 C.2   191  CYS191      0.2296
     72  O        116.2240    8.3850   43.9990 O.2   191  CYS191     -0.2864
     73  CB       114.7480    6.5300   41.5410 C.3   191  CYS191      0.0983
     74  SG       115.3100    5.2300   42.6630 S.3   191  CYS191     -0.0798
     75  N        116.2830   11.4930   44.7520 N.3   194  PHE194     -0.1241
     76  CA       115.8560   11.2890   46.1380 C.3   194  PHE194      0.1605
     77  C        116.9500   10.6320   46.9790 C.2   194  PHE194      0.2264
     78  O        117.3350   11.1400   48.0530 O.2   194  PHE194     -0.2867
     79  CB       114.6010   10.4150   46.1940 C.3   194  PHE194      0.0534
     80  CG       113.3190   11.1700   46.0110 C.ar  194  PHE194     -0.0203
     81  CD1      112.8260   11.9770   47.0220 C.ar  194  PHE194     -0.0042
     82  CD2      112.5910   11.0510   44.8400 C.ar  194  PHE194     -0.0042
     83  CE1      111.6390   12.6660   46.8600 C.ar  194  PHE194     -0.0003
     84  CE2      111.4040   11.7360   44.6740 C.ar  194  PHE194     -0.0003
     85  CZ       110.9270   12.5450   45.6840 C.ar  194  PHE194     -0.0000
@<TRIPOS>BOND
     1    54    55    1
     2    59    58    1
     3    60    58    1
     4    58    55    1
     5    55    56    1
     6    56    57    2
     7    68    66    1
     8    66    65    1
     9    61    62    1
    10     6     5    1
    11    65    62    1
    12    65    67    1
    13    62    63    1
    14     5     2    1
    15    69    63   am
    16    69    70    1
    17    63    64    2
    18     1     2    1
    19    73    70    1
    20    73    74    1
    21     2     3    1
    22    70    71    1
    23    71    72    2
    24     7     3   am
    25     7     8    1
    26     3     4    2
    27    11     8    1
    28     8     9    1
    29    84    82   ar
    30    84    85   ar
    31    75    76    1
    32    82    80   ar
    33     9    10    2
    34    85    83   ar
    35    80    79    1
    36    80    81   ar
    37    76    79    1
    38    76    77    1
    39    19    21   ar
    40    19    17   ar
    41    16    17    1
    42    16    13    1
    43    21    22   ar
    44    17    18   ar
    45    12    13    1
    46    83    81   ar
    47    77    78    2
    48    13    14    1
    49    22    20   ar
    50    18    20   ar
    51    29    28    1
    52    14    23   am
    53    14    15    2
    54    23    24    1
    55    28    30    1
    56    28    27    1
    57    27    24    1
    58    24    25    1
    59    25    26    2
    60    52    53   ar
    61    52    50   ar
    62    53    51   ar
    63    50    47   ar
    64    36    35    1
    65    36    37    1
    66    51    49   ar
    67    47    49   ar
    68    47    45   ar
    69    38    37    1
    70    38    39    1
    71    35    32    1
    72    31    32    1
    73    49    48   ar
    74    44    45    1
    75    44    41    1
    76    45    46   ar
    77    32    33    1
    78    34    33    2
    79    43    42    2
    80    42    41    1
    81    48    46   ar
    82    41    40    1
