@<TRIPOS>MOLECULE
tmp/5o9hA06.pdb
 90 84 0 0 0
SMALL
GASTEIGER

@<TRIPOS>ATOM
      1  N         97.3120  -21.1770   30.3710 N.3   183  LEU183     -0.1245
      2  CA        96.6550  -22.4090   30.7850 C.3   183  LEU183      0.1561
      3  C         97.5420  -23.1950   31.7370 C.2   183  LEU183      0.2260
      4  O         97.1010  -23.6080   32.8110 O.2   183  LEU183     -0.2867
      5  CB        96.2980  -23.2640   29.5670 C.3   183  LEU183      0.0270
      6  CG        95.5400  -24.5620   29.8490 C.3   183  LEU183      0.0019
      7  CD1       94.2110  -24.2650   30.5240 C.3   183  LEU183      0.0001
      8  CD2       95.3350  -25.3540   28.5640 C.3   183  LEU183      0.0001
      9  N         98.2970  -20.9560   35.1590 N.3   186  LEU186     -0.1231
     10  CA        97.1210  -20.8620   36.0180 C.3   186  LEU186      0.1693
     11  C         96.7080  -22.2340   36.5410 C.2   186  LEU186      0.2592
     12  O         96.2290  -22.3560   37.6790 O.2   186  LEU186     -0.2718
     13  CB        95.9570  -20.2000   35.2790 C.3   186  LEU186      0.0284
     14  CG        96.1740  -18.7230   34.9390 C.3   186  LEU186      0.0019
     15  CD1       94.9730  -18.1280   34.2190 C.3   186  LEU186      0.0001
     16  CD2       96.4900  -17.9330   36.1940 C.3   186  LEU186      0.0001
     17  N         96.9220  -23.2680   35.7290 N.am  187  THR187     -0.1953
     18  CA        96.5940  -24.6180   36.1690 C.3   187  THR187      0.1897
     19  C         97.4520  -25.0050   37.3630 C.2   187  THR187      0.2313
     20  O         96.9380  -25.5110   38.3650 O.2   187  THR187     -0.2863
     21  CB        96.7880  -25.6580   35.0520 C.3   187  THR187      0.1794
     22  OG1       95.9290  -25.3410   33.9490 O.3   187  THR187     -0.2208
     23  CG2       96.4600  -27.0510   35.5580 C.3   187  THR187      0.0378
     24  N         96.2990  -22.7920   40.6080 N.3   190  TYR190     -0.1241
     25  CA        95.1050  -23.2260   41.3150 C.3   190  TYR190      0.1605
     26  C         95.1830  -24.6890   41.7380 C.2   190  TYR190      0.2264
     27  O         94.4010  -25.1300   42.5780 O.2   190  TYR190     -0.2867
     28  CB        93.8640  -22.9580   40.4660 C.3   190  TYR190      0.0534
     29  CG        93.5430  -21.4830   40.4240 C.ar  190  TYR190     -0.0201
     30  CD1       92.9330  -20.8610   41.5050 C.ar  190  TYR190     -0.0009
     31  CD2       93.8850  -20.7050   39.3260 C.ar  190  TYR190     -0.0009
     32  CE1       92.6520  -19.5110   41.4870 C.ar  190  TYR190      0.0417
     33  CE2       93.6070  -19.3520   39.2990 C.ar  190  TYR190      0.0417
     34  CZ        92.9900  -18.7610   40.3830 C.ar  190  TYR190      0.1957
     35  OH        92.7100  -17.4160   40.3650 O.3   190  TYR190     -0.2866
     36  N         93.9400  -24.9140   45.4350 N.3   194  LEU194     -0.1245
     37  CA        92.8260  -25.7920   45.7650 C.3   194  LEU194      0.1561
     38  C         93.2580  -26.9870   46.6100 C.2   194  LEU194      0.2260
     39  O         92.5110  -27.4230   47.4930 O.2   194  LEU194     -0.2867
     40  CB        92.1270  -26.2710   44.4920 C.3   194  LEU194      0.0270
     41  CG        91.3800  -25.1850   43.7130 C.3   194  LEU194      0.0019
     42  CD1       90.6870  -25.7700   42.4920 C.3   194  LEU194      0.0001
     43  CD2       90.3830  -24.4700   44.6120 C.3   194  LEU194      0.0001
     44  N         86.0300  -18.9200   44.6810 N.3   210  LYS210     -0.1245
     45  CA        85.1550  -19.7610   43.8790 C.3   210  LYS210      0.1561
     46  C         84.7270  -19.0220   42.6180 C.2   210  LYS210      0.2260
     47  O         84.7470  -19.5820   41.5070 O.2   210  LYS210     -0.2867
     48  CB        83.9390  -20.1900   44.7020 C.3   210  LYS210      0.0271
     49  CG        84.2990  -21.0320   45.9190 C.3   210  LYS210      0.0035
     50  CD        83.1790  -21.0520   46.9500 C.3   210  LYS210      0.0206
     51  CE        83.5930  -21.8250   48.1930 C.3   210  LYS210      0.1093
     52  NZ        82.6780  -21.5810   49.3420 N.3   210  LYS210     -0.1314
     53  N         87.7770  -18.6740   40.2440 N.3   213  VAL213     -0.1245
     54  CA        88.0550  -19.9500   39.5990 C.3   213  VAL213      0.1561
     55  C         87.0570  -20.1940   38.4690 C.2   213  VAL213      0.2260
     56  O         87.4340  -20.6480   37.3760 O.2   213  VAL213     -0.2867
     57  CB        88.0090  -21.1190   40.6090 C.3   213  VAL213      0.0252
     58  CG1       87.9150  -22.4560   39.8910 C.3   213  VAL213      0.0019
     59  CG2       89.2340  -21.0850   41.5110 C.3   213  VAL213      0.0019
     60  N         88.0480  -17.9300   35.4800 N.3   216  VAL216     -0.1231
     61  CA        89.2620  -18.4120   34.8390 C.3   216  VAL216      0.1692
     62  C         88.9650  -19.6470   33.9950 C.2   216  VAL216      0.2591
     63  O         89.5120  -19.8010   32.9010 O.2   216  VAL216     -0.2718
     64  CB        90.3640  -18.7430   35.8770 C.3   216  VAL216      0.0266
     65  CG1       91.5180  -19.4970   35.2280 C.3   216  VAL216      0.0020
     66  CG2       90.8650  -17.4710   36.5460 C.3   216  VAL216      0.0020
     67  N         88.0720  -20.5100   34.4750 N.am  217  ALA217     -0.1980
     68  CA        87.7020  -21.6710   33.6720 C.3   217  ALA217      0.1597
     69  C         86.9390  -21.2470   32.4130 C.2   217  ALA217      0.2287
     70  O         87.1740  -21.7780   31.3100 O.2   217  ALA217     -0.2864
     71  CB        86.8770  -22.6440   34.4960 C.3   217  ALA217      0.0319
     72  N         89.1770  -20.1560   29.2050 N.3   220  PHE220     -0.1227
     73  CA        89.6840  -21.2080   28.3370 C.3   220  PHE220      0.1736
     74  C         88.5540  -21.9410   27.6340 C.2   220  PHE220      0.2595
     75  O         88.6910  -22.3180   26.4580 O.2   220  PHE220     -0.2718
     76  CB        90.5450  -22.1860   29.1360 C.3   220  PHE220      0.0547
     77  CG        91.7080  -21.5320   29.8270 C.ar  220  PHE220     -0.0202
     78  CD1       92.8190  -21.1270   29.1060 C.ar  220  PHE220     -0.0042
     79  CD2       91.6840  -21.3110   31.1940 C.ar  220  PHE220     -0.0042
     80  CE1       93.8870  -20.5170   29.7370 C.ar  220  PHE220     -0.0003
     81  CE2       92.7510  -20.7030   31.8300 C.ar  220  PHE220     -0.0003
     82  CZ        93.8520  -20.3060   31.1010 C.ar  220  PHE220     -0.0000
     83  N         87.4260  -22.0990   28.3290 N.am  221  ILE221     -0.1980
     84  CA        86.2910  -22.7900   27.7250 C.3   221  ILE221      0.1595
     85  C         85.8210  -22.0880   26.4560 C.2   221  ILE221      0.2287
     86  O         85.5900  -22.7360   25.4330 O.2   221  ILE221     -0.2864
     87  CB        85.0960  -22.8960   28.6930 C.3   221  ILE221      0.0276
     88  CG1       85.4080  -23.8730   29.8250 C.3   221  ILE221      0.0022
     89  CG2       83.8420  -23.3410   27.9510 C.3   221  ILE221      0.0022
     90  CD1       84.3020  -23.9850   30.8460 C.3   221  ILE221      0.0001
@<TRIPOS>BOND
     1    86    85    2
     2    85    84    1
     3    75    74    2
     4    74    83   am
     5    74    73    1
     6    84    83    1
     7    84    87    1
     8    89    87    1
     9    73    76    1
    10    73    72    1
    11     8     6    1
    12    87    88    1
    13    78    80   ar
    14    78    77   ar
    15    76    77    1
    16     5     6    1
    17     5     2    1
    18    80    82   ar
    19    88    90    1
    20    77    79   ar
    21     6     7    1
    22     1     2    1
    23     2     3    1
    24    82    81   ar
    25    79    81   ar
    26    70    69    2
    27     3     4    2
    28    69    68    1
    29    63    62    2
    30    68    67    1
    31    68    71    1
    32    22    21    1
    33    62    67   am
    34    62    61    1
    35    15    14    1
    36    61    60    1
    37    61    64    1
    38    14    13    1
    39    14    16    1
    40    21    23    1
    41    21    18    1
    42     9    10    1
    43    65    64    1
    44    13    10    1
    45    17    18    1
    46    17    11   am
    47    64    66    1
    48    10    11    1
    49    18    19    1
    50    11    12    2
    51    19    20    2
    52    56    55    2
    53    55    54    1
    54    33    31   ar
    55    33    34   ar
    56    31    29   ar
    57    54    53    1
    58    54    57    1
    59    58    57    1
    60    35    34    1
    61    34    32   ar
    62    29    28    1
    63    29    30   ar
    64    28    25    1
    65    24    25    1
    66    57    59    1
    67    25    26    1
    68    32    30   ar
    69    47    46    2
    70    26    27    2
    71    42    41    1
    72    46    45    1
    73    41    40    1
    74    41    43    1
    75    45    44    1
    76    45    48    1
    77    40    37    1
    78    48    49    1
    79    36    37    1
    80    37    38    1
    81    49    50    1
    82    38    39    2
    83    50    51    1
    84    51    52    1
