@<TRIPOS>MOLECULE
tmp/5o9hB07.pdb
 101 96 0 0 0
SMALL
GASTEIGER

@<TRIPOS>ATOM
      1  N        109.3090  -10.9480   26.0990 N.3   136  LEU136     -0.1231
      2  CA       108.0170  -10.6140   25.5220 C.3   136  LEU136      0.1693
      3  C        108.1340   -9.3910   24.6220 C.2   136  LEU136      0.2591
      4  O        107.5860   -9.3660   23.5180 O.2   136  LEU136     -0.2718
      5  CB       106.9830  -10.3640   26.6220 C.3   136  LEU136      0.0284
      6  CG       105.5450  -10.1090   26.1650 C.3   136  LEU136      0.0019
      7  CD1      104.9000  -11.3940   25.6630 C.3   136  LEU136      0.0001
      8  CD2      104.7180   -9.4860   27.2820 C.3   136  LEU136      0.0001
      9  N        108.8660   -8.3830   25.0860 N.am  137  LEU137     -0.1980
     10  CA       109.0710   -7.1830   24.2860 C.3   137  LEU137      0.1596
     11  C        109.9820   -7.4220   23.0810 C.2   137  LEU137      0.2287
     12  O        109.8800   -6.7210   22.0740 O.2   137  LEU137     -0.2864
     13  CB       109.6350   -6.0610   25.1570 C.3   137  LEU137      0.0297
     14  CG       108.6580   -5.5440   26.2140 C.3   137  LEU137      0.0022
     15  CD1      109.2800   -4.4270   27.0380 C.3   137  LEU137      0.0001
     16  CD2      107.3660   -5.0810   25.5530 C.3   137  LEU137      0.0001
     17  N        110.1460  -10.3010   21.3110 N.3   139  ILE139     -0.1231
     18  CA       109.5770  -11.2450   20.3400 C.3   139  ILE139      0.1678
     19  C        109.2110  -10.6370   18.9650 C.2   139  ILE139      0.2434
     20  O        109.5990  -11.1960   17.9260 O.2   139  ILE139     -0.2733
     21  CB       108.3170  -11.9450   20.9210 C.3   139  ILE139      0.0265
     22  CG1      108.7170  -12.9820   21.9660 C.3   139  ILE139      0.0019
     23  CG2      107.5240  -12.6230   19.8190 C.3   139  ILE139      0.0020
     24  CD1      107.5380  -13.6310   22.6520 C.3   139  ILE139      0.0001
     25  N        108.4820   -9.4980   18.9370 N.am  140  PRO140     -0.2729
     26  CA       108.1640   -8.9290   17.6180 C.3   140  PRO140      0.1401
     27  C        109.4060   -8.5820   16.8000 C.2   140  PRO140      0.2269
     28  O        109.3910   -8.6970   15.5750 O.2   140  PRO140     -0.2865
     29  CB       107.3740   -7.6600   17.9610 C.3   140  PRO140      0.0296
     30  CG       107.7750   -7.3250   19.3510 C.3   140  PRO140      0.0237
     31  CD       107.9670   -8.6410   20.0240 C.3   140  PRO140      0.0939
     32  N        110.4630  -11.7920   15.1510 N.3   143  LEU143     -0.1231
     33  CA       109.5280  -12.2570   14.1270 C.3   143  LEU143      0.1693
     34  C        109.5800  -11.4690   12.8180 C.2   143  LEU143      0.2592
     35  O        109.3520  -12.0250   11.7450 O.2   143  LEU143     -0.2718
     36  CB       108.0990  -12.2230   14.6690 C.3   143  LEU143      0.0284
     37  CG       107.7690  -13.2640   15.7360 C.3   143  LEU143      0.0019
     38  CD1      106.3380  -13.1020   16.2230 C.3   143  LEU143      0.0001
     39  CD2      107.9980  -14.6610   15.1850 C.3   143  LEU143      0.0001
     40  N        109.8810  -10.1780   12.9040 N.am  144  TYR144     -0.1976
     41  CA       109.7180   -9.2950   11.7510 C.3   144  TYR144      0.1639
     42  C        111.0230   -8.9430   11.0380 C.2   144  TYR144      0.2290
     43  O        111.0570   -8.0270   10.2180 O.2   144  TYR144     -0.2864
     44  CB       108.9920   -8.0200   12.1810 C.3   144  TYR144      0.0560
     45  CG       107.6110   -8.2930   12.7340 C.ar  144  TYR144     -0.0198
     46  CD1      106.7810   -9.2370   12.1440 C.ar  144  TYR144     -0.0009
     47  CD2      107.1480   -7.6270   13.8580 C.ar  144  TYR144     -0.0009
     48  CE1      105.5190   -9.4970   12.6510 C.ar  144  TYR144      0.0417
     49  CE2      105.8900   -7.8800   14.3720 C.ar  144  TYR144      0.0417
     50  CZ       105.0800   -8.8150   13.7660 C.ar  144  TYR144      0.1957
     51  OH       103.8280   -9.0650   14.2810 O.3   144  TYR144     -0.2866
     52  N        108.7350   -4.3040    6.9840 N.3   162  TYR162     -0.1241
     53  CA       107.4210   -3.7500    7.2650 C.3   162  TYR162      0.1605
     54  C        106.9100   -3.0360    6.0210 C.2   162  TYR162      0.2264
     55  O        107.4970   -2.0420    5.5980 O.2   162  TYR162     -0.2867
     56  CB       107.4870   -2.7760    8.4410 C.3   162  TYR162      0.0534
     57  CG       107.1410   -3.3570    9.7950 C.ar  162  TYR162     -0.0201
     58  CD1      108.0990   -3.9870   10.5800 C.ar  162  TYR162     -0.0009
     59  CD2      105.8590   -3.2460   10.2990 C.ar  162  TYR162     -0.0009
     60  CE1      107.7720   -4.5010   11.8270 C.ar  162  TYR162      0.0417
     61  CE2      105.5240   -3.7500   11.5360 C.ar  162  TYR162      0.0417
     62  CZ       106.4790   -4.3770   12.2960 C.ar  162  TYR162      0.1957
     63  OH       106.1260   -4.8730   13.5280 O.3   162  TYR162     -0.2866
     64  N        104.1120    1.9150   10.6140 N.3   168  ARG168     -0.1245
     65  CA       104.4290    0.9400   11.6560 C.3   168  ARG168      0.1563
     66  C        105.8560    1.0450   12.2090 C.2   168  ARG168      0.2260
     67  O        106.0730    0.9040   13.4210 O.2   168  ARG168     -0.2867
     68  CB       104.1900   -0.4750   11.1250 C.3   168  ARG168      0.0307
     69  CG       102.7860   -0.7330   10.5820 C.3   168  ARG168      0.0489
     70  CD       102.6600   -2.1620   10.0600 C.3   168  ARG168      0.2205
     71  NE       101.3880   -2.4270    9.3920 N.pl3 168  ARG168     -0.0865
     72  CZ       101.1320   -3.5290    8.6940 C.cat 168  ARG168      0.5346
     73  NH1      102.0620   -4.4660    8.5660 N.pl3 168  ARG168      0.1354
     74  NH2       99.9490   -3.6930    8.1170 N.pl3 168  ARG168      0.1354
     75  N        106.2180    3.5060   14.7550 N.3   171  ALA171     -0.1231
     76  CA       105.6100    3.0540   16.0000 C.3   171  ALA171      0.1694
     77  C        106.5780    2.1750   16.7850 C.2   171  ALA171      0.2591
     78  O        106.6740    2.2810   18.0150 O.2   171  ALA171     -0.2718
     79  CB       104.3130    2.3090   15.7220 C.3   171  ALA171      0.0304
     80  N        107.3220    1.3330   16.0710 N.am  172  VAL172     -0.1980
     81  CA       108.3310    0.5120   16.7290 C.3   172  VAL172      0.1595
     82  C        109.4170    1.3980   17.3370 C.2   172  VAL172      0.2287
     83  O        109.8440    1.1840   18.4780 O.2   172  VAL172     -0.2864
     84  CB       108.9710   -0.4970   15.7510 C.3   172  VAL172      0.0276
     85  CG1      110.0850   -1.2730   16.4350 C.3   172  VAL172      0.0022
     86  CG2      107.9150   -1.4440   15.1990 C.3   172  VAL172      0.0022
     87  N        108.0230    3.1010   20.5040 N.3   175  VAL175     -0.1245
     88  CA       107.9110    2.1840   21.6290 C.3   175  VAL175      0.1561
     89  C        109.2850    1.8850   22.2140 C.2   175  VAL175      0.2260
     90  O        109.4630    1.8680   23.4370 O.2   175  VAL175     -0.2867
     91  CB       107.2270    0.8660   21.2140 C.3   175  VAL175      0.0252
     92  CG1      107.3810   -0.1860   22.3010 C.3   175  VAL175      0.0019
     93  CG2      105.7600    1.1070   20.9040 C.3   175  VAL175      0.0019
     94  N        109.9480    3.0150   26.0820 N.3   179  LEU179     -0.1245
     95  CA       110.1280    1.9250   27.0310 C.3   179  LEU179      0.1561
     96  C        111.6010    1.6320   27.3020 C.2   179  LEU179      0.2260
     97  O        111.9610    1.1650   28.3810 O.2   179  LEU179     -0.2867
     98  CB       109.4310    0.6590   26.5240 C.3   179  LEU179      0.0270
     99  CG       107.9050    0.6940   26.4110 C.3   179  LEU179      0.0019
    100  CD1      107.3870   -0.6440   25.9120 C.3   179  LEU179      0.0001
    101  CD2      107.2620    1.0570   27.7400 C.3   179  LEU179      0.0001
@<TRIPOS>BOND
     1    55    54    2
     2    54    53    1
     3    52    53    1
     4    53    56    1
     5    74    72    1
     6    56    57    1
     7    73    72    1
     8    72    71    2
     9    71    70    1
    10    57    59   ar
    11    57    58   ar
    12    70    69    1
    13    43    42    2
    14    59    61   ar
    15    58    60   ar
    16    69    68    1
    17    64    65    1
    18    42    41    1
    19    68    65    1
    20    61    62   ar
    21    65    66    1
    22    35    34    2
    23    41    44    1
    24    41    40    1
    25    60    62   ar
    26    46    48   ar
    27    46    45   ar
    28    44    45    1
    29    66    67    2
    30    62    63    1
    31    48    50   ar
    32    45    47   ar
    33    34    40   am
    34    34    33    1
    35    50    51    1
    36    50    49   ar
    37    47    49   ar
    38    33    36    1
    39    33    32    1
    40    36    37    1
    41    75    76    1
    42    39    37    1
    43    86    84    1
    44    28    27    2
    45    79    76    1
    46    37    38    1
    47    84    85    1
    48    84    81    1
    49    76    77    1
    50    80    81    1
    51    80    77   am
    52    81    82    1
    53    77    78    2
    54    27    26    1
    55    82    83    2
    56    26    29    1
    57    26    25    1
    58    20    19    2
    59    29    30    1
    60    25    19   am
    61    25    31    1
    62    19    18    1
    63    30    31    1
    64    23    21    1
    65    18    21    1
    66    18    17    1
    67    87    88    1
    68    93    91    1
    69    21    22    1
    70    91    88    1
    71    91    92    1
    72    88    89    1
    73    22    24    1
    74    12    11    2
    75    89    90    2
    76    11    10    1
    77     4     3    2
    78    10     9    1
    79    10    13    1
    80     3     9   am
    81     3     2    1
    82    13    14    1
    83     2     1    1
    84     2     5    1
    85    16    14    1
    86     7     6    1
    87   100    99    1
    88    94    95    1
    89     6     5    1
    90     6     8    1
    91    14    15    1
    92    99    98    1
    93    99   101    1
    94    98    95    1
    95    95    96    1
    96    96    97    2
