@<TRIPOS>MOLECULE
tmp/5o9hB16.pdb
 85 77 0 0 0
SMALL
GASTEIGER

@<TRIPOS>ATOM
      1  N        124.9490  -13.0200   27.1040 N.3    54  LEU54      -0.1245
      2  CA       124.2040  -13.5560   25.9690 C.3    54  LEU54       0.1561
      3  C        124.3320  -12.6820   24.7240 C.2    54  LEU54       0.2260
      4  O        124.4030  -13.1900   23.6050 O.2    54  LEU54      -0.2867
      5  CB       122.7300  -13.7250   26.3280 C.3    54  LEU54       0.0270
      6  CG       122.4230  -14.7510   27.4180 C.3    54  LEU54       0.0019
      7  CD1      120.9220  -14.8820   27.6180 C.3    54  LEU54       0.0001
      8  CD2      123.0470  -16.0980   27.0820 C.3    54  LEU54       0.0001
      9  N        117.1360  -18.1060   10.6560 N.3    77  ALA77      -0.1245
     10  CA       117.0650  -18.3300   12.0950 C.3    77  ALA77       0.1562
     11  C        118.0470  -17.4210   12.8220 C.2    77  ALA77       0.2260
     12  O        117.6870  -16.7440   13.7900 O.2    77  ALA77      -0.2867
     13  CB       117.3430  -19.7890   12.4240 C.3    77  ALA77       0.0290
     14  N        116.9070  -13.9020   12.6990 N.3    80  SER80      -0.1202
     15  CA       115.8570  -13.5710   13.6560 C.3    80  SER80       0.2020
     16  C        116.3900  -13.4730   15.0820 C.2    80  SER80       0.2618
     17  O        115.9520  -12.6250   15.8600 O.2    80  SER80      -0.2717
     18  CB       114.7320  -14.6100   13.5970 C.3    80  SER80       0.2103
     19  OG       113.9870  -14.4950   12.3980 O.3    80  SER80      -0.2182
     20  N        117.3410  -14.3370   15.4220 N.am   81  ILE81      -0.1979
     21  CA       117.7950  -14.4320   16.8030 C.3    81  ILE81       0.1595
     22  C        118.9940  -13.5370   17.1210 C.2    81  ILE81       0.2287
     23  O        118.9330  -12.7350   18.0540 O.2    81  ILE81      -0.2864
     24  CB       118.1460  -15.8890   17.1660 C.3    81  ILE81       0.0276
     25  CG1      116.9040  -16.7720   17.0390 C.3    81  ILE81       0.0022
     26  CG2      118.6980  -15.9730   18.5790 C.3    81  ILE81       0.0022
     27  CD1      117.1580  -18.2280   17.3470 C.3    81  ILE81       0.0001
     28  N        118.6810   -9.7240   17.5120 N.3    84  SER84      -0.1202
     29  CA       117.7240   -9.4040   18.5770 C.3    84  SER84       0.2020
     30  C        118.2990   -9.5220   19.9890 C.2    84  SER84       0.2618
     31  O        117.6860   -9.0540   20.9570 O.2    84  SER84      -0.2717
     32  CB       116.4950  -10.3120   18.4670 C.3    84  SER84       0.2103
     33  OG       115.5930   -9.8510   17.4780 O.3    84  SER84      -0.2182
     34  N        119.4600  -10.1610   20.1110 N.am   85  LEU85      -0.1979
     35  CA       120.0350  -10.4290   21.4240 C.3    85  LEU85       0.1596
     36  C        120.3740   -9.1500   22.1890 C.2    85  LEU85       0.2287
     37  O        120.2650   -9.1160   23.4140 O.2    85  LEU85      -0.2864
     38  CB       121.2880  -11.3030   21.2940 C.3    85  LEU85       0.0297
     39  CG       121.0820  -12.7770   20.9260 C.3    85  LEU85       0.0022
     40  CD1      122.4010  -13.5400   20.9860 C.3    85  LEU85       0.0001
     41  CD2      120.0450  -13.4240   21.8320 C.3    85  LEU85       0.0001
     42  N        117.1150   -7.5920   23.4320 N.3    88  LEU88      -0.1245
     43  CA       116.7820   -8.3670   24.6140 C.3    88  LEU88       0.1561
     44  C        117.6490   -7.9150   25.7780 C.2    88  LEU88       0.2260
     45  O        117.1770   -7.8090   26.9100 O.2    88  LEU88      -0.2867
     46  CB       116.9870   -9.8610   24.3540 C.3    88  LEU88       0.0270
     47  CG       116.9350  -10.7850   25.5740 C.3    88  LEU88       0.0019
     48  CD1      115.5590  -10.7340   26.2160 C.3    88  LEU88       0.0001
     49  CD2      117.3170  -12.2160   25.2080 C.3    88  LEU88       0.0001
     50  N        111.7950  -10.7480   27.2000 N.3   135  LEU135     -0.1245
     51  CA       111.6240  -11.6370   26.0570 C.3   135  LEU135      0.1561
     52  C        110.3300  -11.3070   25.3250 C.2   135  LEU135      0.2260
     53  O        110.2710  -11.3390   24.0860 O.2   135  LEU135     -0.2867
     54  CB       111.6150  -13.0990   26.5060 C.3   135  LEU135      0.0270
     55  CG       112.9360  -13.6460   27.0460 C.3   135  LEU135      0.0019
     56  CD1      112.7160  -14.8970   27.8880 C.3   135  LEU135      0.0001
     57  CD2      113.8820  -13.9340   25.8940 C.3   135  LEU135      0.0001
     58  N        110.8760   -8.4030   23.1850 N.3   138  THR138     -0.1203
     59  CA       111.8120   -8.6780   22.0970 C.3   138  THR138      0.1994
     60  C        111.2220   -9.5790   21.0000 C.2   138  THR138      0.2617
     61  O        111.7200   -9.5860   19.8710 O.2   138  THR138     -0.2717
     62  CB       113.1150   -9.3120   22.6420 C.3   138  THR138      0.1784
     63  OG1      113.6220   -8.5010   23.7070 O.3   138  THR138     -0.2211
     64  CG2      114.1830   -9.4160   21.5590 C.3   138  THR138      0.0376
     65  N        110.1460  -10.3010   21.3110 N.am  139  ILE139     -0.1979
     66  CA       109.5770  -11.2450   20.3400 C.3   139  ILE139      0.1595
     67  C        109.2110  -10.6370   18.9650 C.2   139  ILE139      0.2287
     68  O        109.5990  -11.1960   17.9260 O.2   139  ILE139     -0.2864
     69  CB       108.3170  -11.9450   20.9210 C.3   139  ILE139      0.0276
     70  CG1      108.7170  -12.9820   21.9660 C.3   139  ILE139      0.0022
     71  CG2      107.5240  -12.6230   19.8190 C.3   139  ILE139      0.0022
     72  CD1      107.5380  -13.6310   22.6520 C.3   139  ILE139      0.0001
     73  N        112.1400  -10.2150   16.7170 N.3   142  ALA142     -0.1231
     74  CA       112.6560  -11.4460   16.1380 C.3   142  ALA142      0.1694
     75  C        111.7770  -11.9140   14.9840 C.2   142  ALA142      0.2591
     76  O        112.2820  -12.3770   13.9610 O.2   142  ALA142     -0.2718
     77  CB       112.7630  -12.5310   17.2000 C.3   142  ALA142      0.0304
     78  N        110.4630  -11.7920   15.1510 N.am  143  LEU143     -0.1980
     79  CA       109.5280  -12.2570   14.1270 C.3   143  LEU143      0.1596
     80  C        109.5800  -11.4690   12.8180 C.2   143  LEU143      0.2287
     81  O        109.3520  -12.0250   11.7450 O.2   143  LEU143     -0.2864
     82  CB       108.0990  -12.2230   14.6690 C.3   143  LEU143      0.0297
     83  CG       107.7690  -13.2640   15.7360 C.3   143  LEU143      0.0022
     84  CD1      106.3380  -13.1020   16.2230 C.3   143  LEU143      0.0001
     85  CD2      107.9980  -14.6610   15.1850 C.3   143  LEU143      0.0001
@<TRIPOS>BOND
     1     9    10    1
     2    81    80    2
     3    10    13    1
     4    10    11    1
     5    19    18    1
     6    14    15    1
     7    80    79    1
     8    11    12    2
     9    18    15    1
    10    15    16    1
    11    76    75    2
    12    79    82    1
    13    79    78    1
    14    82    83    1
    15    75    78   am
    16    75    74    1
    17    16    20   am
    18    16    17    2
    19    85    83    1
    20    20    21    1
    21    83    84    1
    22    74    73    1
    23    74    77    1
    24    21    22    1
    25    21    24    1
    26    25    24    1
    27    25    27    1
    28    22    23    2
    29    24    26    1
    30    33    32    1
    31    28    29    1
    32    68    67    2
    33    32    29    1
    34    29    30    1
    35    67    66    1
    36    71    69    1
    37    61    60    2
    38    30    34   am
    39    30    31    2
    40    34    35    1
    41    66    69    1
    42    66    65    1
    43    69    70    1
    44    39    40    1
    45    39    38    1
    46    39    41    1
    47    60    65   am
    48    60    59    1
    49    38    35    1
    50    35    36    1
    51    64    62    1
    52    70    72    1
    53    59    62    1
    54    59    58    1
    55    36    37    2
    56    62    63    1
    57    42    43    1
    58     4     3    2
    59    53    52    2
    60    46    43    1
    61    46    47    1
    62    43    44    1
    63     3     2    1
    64    49    47    1
    65    52    51    1
    66    47    48    1
    67    44    45    2
    68    57    55    1
    69     2     5    1
    70     2     1    1
    71    51    54    1
    72    51    50    1
    73     5     6    1
    74    54    55    1
    75    55    56    1
    76     8     6    1
    77     6     7    1
