@<TRIPOS>MOLECULE
tmp/5o9jB00.pdb
 72 70 0 0 0
SMALL
GASTEIGER

@<TRIPOS>ATOM
      1  N          4.2920    1.0220   -1.5890 N.3     1  GLY1       -0.1225
      2  CA         3.8010    1.4910   -0.3080 C.3     1  GLY1        0.1811
      3  C          4.6030    0.9090    0.8320 C.2     1  GLY1        0.2280
      4  O          5.8130    1.1720    0.9510 O.2     1  GLY1       -0.2866
      5  N          5.2870   -2.3570    1.4970 N.3     3  ALA3       -0.1245
      6  CA         6.1870   -3.3850    0.9900 C.3     3  ALA3        0.1562
      7  C          7.0000   -4.0370    2.1030 C.2     3  ALA3        0.2260
      8  O          8.2280   -3.9380    2.1170 O.2     3  ALA3       -0.2867
      9  CB         7.1200   -2.7890   -0.0650 C.3     3  ALA3        0.0290
     10  N          3.2790   -7.9970   -3.7220 N.3    73  HIS73      -0.1227
     11  CA         3.8960   -7.8720   -5.0460 C.3    73  HIS73       0.1737
     12  C          5.3190   -8.4120   -5.0220 C.2    73  HIS73       0.2438
     13  O          6.0010   -8.3360   -3.9920 O.2    73  HIS73      -0.2733
     14  CB         3.8960   -6.4170   -5.5290 C.3    73  HIS73       0.0758
     15  CG         4.7070   -5.4910   -4.6730 C.ar   73  HIS73       0.0818
     16  ND1        4.2750   -5.0300   -3.4530 N.ar   73  HIS73      -0.2268
     17  CD2        5.9250   -4.9220   -4.8810 C.ar   73  HIS73       0.1154
     18  CE1        5.1840   -4.2210   -2.9350 C.ar   73  HIS73       0.1986
     19  NE2        6.1970   -4.1450   -3.7800 N.ar   73  HIS73      -0.2212
     20  N          5.7670   -8.9840   -6.1540 N.am   74  PRO74      -0.2718
     21  CA         7.1290   -9.5080   -6.2870 C.3    74  PRO74       0.1535
     22  C          8.1760   -8.4370   -6.0610 C.2    74  PRO74       0.2598
     23  O          8.0450   -7.3290   -6.5820 O.2    74  PRO74      -0.2715
     24  CB         7.1740  -10.0090   -7.7380 C.3    74  PRO74       0.0310
     25  CG         5.7740  -10.3070   -8.0640 C.3    74  PRO74       0.0237
     26  CD         4.9580   -9.2700   -7.3520 C.3    74  PRO74       0.0939
     27  N          9.1930   -8.7730   -5.2780 N.am   75  VAL75      -0.1964
     28  CA        10.3430   -7.8990   -5.0600 C.3    75  VAL75       0.1727
     29  C         11.6310   -8.7270   -5.1840 C.2    75  VAL75       0.2617
     30  O         11.6850   -9.8650   -4.7310 O.2    75  VAL75      -0.2715
     31  CB        10.2600   -7.1920   -3.6730 C.3    75  VAL75       0.0290
     32  CG1       10.0400   -8.2020   -2.5620 C.3    75  VAL75       0.0023
     33  CG2       11.5070   -6.3640   -3.3940 C.3    75  VAL75       0.0023
     34  N         12.6590   -8.1680   -5.8170 N.am   76  SER76      -0.1936
     35  CA        13.9120   -8.9030   -6.0180 C.3    76  SER76       0.2055
     36  C         14.9740   -8.6340   -4.9450 C.2    76  SER76       0.2642
     37  O         15.7360   -9.5310   -4.5770 O.2    76  SER76      -0.2714
     38  CB        14.4920   -8.5760   -7.3900 C.3    76  SER76       0.2130
     39  OG        14.7520   -7.1880   -7.5010 O.3    76  SER76      -0.2179
     40  N         15.0320   -7.4050   -4.4410 N.am   77  GLU77      -0.1976
     41  CA        16.0910   -7.0460   -3.5080 C.3    77  GLU77       0.1602
     42  C         15.6010   -6.1950   -2.3430 C.2    77  GLU77       0.2287
     43  O         14.7310   -5.3320   -2.4950 O.2    77  GLU77      -0.2864
     44  CB        17.2190   -6.3150   -4.2440 C.3    77  GLU77       0.0415
     45  CG        18.5980   -6.5080   -3.6040 C.3    77  GLU77       0.1163
     46  CD        19.7130   -6.6920   -4.6290 C.2    77  GLU77       0.3649
     47  OE1       19.6760   -6.0130   -5.6810 O.co2  77  GLU77      -0.2457
     48  OE2       20.6230   -7.5160   -4.3790 O.co2  77  GLU77      -0.2457
     49  N         12.6160   -2.4850    1.6060 N.3    92  THR92      -0.1203
     50  CA        12.7700   -2.1910    0.1940 C.3    92  THR92       0.1994
     51  C         13.3530   -0.8060   -0.0050 C.2    92  THR92       0.2618
     52  O         13.3100    0.0420    0.8840 O.2    92  THR92      -0.2717
     53  CB        11.4210   -2.2920   -0.5720 C.3    92  THR92       0.1784
     54  OG1       10.5020   -1.3280   -0.0500 O.3    92  THR92      -0.2211
     55  CG2       10.8220   -3.6670   -0.4200 C.3    92  THR92       0.0376
     56  N         13.8810   -0.5960   -1.2010 N.am   93  ARG93      -0.1965
     57  CA        14.6350    0.5950   -1.5690 C.3    93  ARG93       0.1729
     58  C         13.8780    1.9000   -1.3590 C.2    93  ARG93       0.2616
     59  O         14.4700    2.9220   -1.0040 O.2    93  ARG93      -0.2715
     60  CB        15.0580    0.4670   -3.0380 C.3    93  ARG93       0.0348
     61  CG        15.5540    1.7360   -3.6960 C.3    93  ARG93       0.0492
     62  CD        15.9010    1.4720   -5.1510 C.3    93  ARG93       0.2205
     63  NE        16.8430    0.3640   -5.3020 N.pl3  93  ARG93      -0.0865
     64  CZ        18.1660    0.5050   -5.3220 C.cat  93  ARG93       0.5346
     65  NH1       18.7080    1.7090   -5.1960 N.pl3  93  ARG93       0.1354
     66  NH2       18.9500   -0.5580   -5.4680 N.pl3  93  ARG93       0.1354
     67  N         12.5670    1.8570   -1.5700 N.am   94  SER94      -0.1950
     68  CA        11.7670    3.0710   -1.6200 C.3    94  SER94       0.1924
     69  C         11.5420    3.7190   -0.2540 C.2    94  SER94       0.2314
     70  O         11.1100    4.8560   -0.1890 O.2    94  SER94      -0.2863
     71  CB        10.4150    2.7820   -2.2830 C.3    94  SER94       0.2116
     72  OG         9.7130    1.7510   -1.6110 O.3    94  SER94      -0.2180
@<TRIPOS>BOND
     1    25    24    1
     2    25    26    1
     3    24    21    1
     4    39    38    1
     5    38    35    1
     6    26    20    1
     7    23    22    2
     8    21    20    1
     9    21    22    1
    10    20    12   am
    11    22    27   am
    12    35    34    1
    13    35    36    1
    14    34    29   am
    15    47    46   ar
    16    14    11    1
    17    14    15    1
    18    66    64    1
    19    64    63    2
    20    64    65    1
    21    63    62    1
    22    27    28    1
    23    29    28    1
    24    29    30    2
    25    62    61    1
    26    28    31    1
    27    11    12    1
    28    11    10    1
    29    12    13    2
    30    36    37    2
    31    36    40   am
    32    17    15   ar
    33    17    19   ar
    34    15    16   ar
    35    46    48   ar
    36    46    45    1
    37    40    41    1
    38    44    45    1
    39    44    41    1
    40    19    18   ar
    41    61    60    1
    42    31    33    1
    43    31    32    1
    44    41    42    1
    45    16    18   ar
    46    60    57    1
    47    43    42    2
    48    71    68    1
    49    71    72    1
    50    68    67    1
    51    68    69    1
    52     1     2    1
    53    67    58   am
    54    57    58    1
    55    57    56    1
    56    58    59    2
    57    56    51   am
    58    53    55    1
    59    53    54    1
    60    53    50    1
    61     2     3    1
    62    69    70    2
    63     9     6    1
    64    51    50    1
    65    51    52    2
    66    50    49    1
    67     3     4    2
    68     6     5    1
    69     6     7    1
    70     7     8    2
