@<TRIPOS>MOLECULE
tmp/5o9qA03.pdb
 205 197 0 0 0
SMALL
GASTEIGER

@<TRIPOS>ATOM
      1  N        -14.0560    6.0230   30.9110 N.3    32  GLN32      -0.1245
      2  CA       -13.6280    7.4210   30.8890 C.3    32  GLN32       0.1566
      3  C        -14.7340    8.3040   31.4610 C.2    32  GLN32       0.2260
      4  O        -15.8650    8.2840   30.9720 O.2    32  GLN32      -0.2867
      5  CB       -13.2930    7.8810   29.4660 C.3    32  GLN32       0.0367
      6  CG       -12.5850    9.2320   29.3990 C.3    32  GLN32       0.0905
      7  CD       -11.1370    9.1710   29.8530 C.2    32  GLN32       0.2608
      8  OE1      -10.3870    8.3040   29.4230 O.2    32  GLN32      -0.2717
      9  NE2      -10.7340   10.1020   30.7080 N.am   32  GLN32      -0.0878
     10  N        -16.2570   12.1150   32.4570 N.3    34  GLN34      -0.1245
     11  CA       -16.2380   13.5030   31.9720 C.3    34  GLN34       0.1566
     12  C        -16.5890   14.4680   33.1020 C.2    34  GLN34       0.2260
     13  O        -17.1360   14.0600   34.1310 O.2    34  GLN34      -0.2867
     14  CB       -17.2100   13.6830   30.7900 C.3    34  GLN34       0.0367
     15  CG       -18.6510   14.0530   31.1540 C.3    34  GLN34       0.0905
     16  CD       -19.5920   14.0960   29.9590 C.2    34  GLN34       0.2608
     17  OE1      -19.3220   13.5100   28.9070 O.2    34  GLN34      -0.2717
     18  NE2      -20.7120   14.7930   30.1210 N.am   34  GLN34      -0.0878
     19  N         -9.3360    7.1350   27.1890 N.3    71  TYR71      -0.1227
     20  CA        -9.0810    8.2100   26.2250 C.3    71  TYR71       0.1736
     21  C         -8.1160    9.2690   26.7360 C.2    71  TYR71       0.2595
     22  O         -7.5220    9.9830   25.9350 O.2    71  TYR71      -0.2718
     23  CB       -10.3920    8.8770   25.8050 C.3    71  TYR71       0.0548
     24  CG       -11.3280    7.9610   25.0560 C.ar   71  TYR71      -0.0200
     25  CD1      -12.1640    7.0840   25.7430 C.ar   71  TYR71      -0.0009
     26  CD2      -11.3890    7.9700   23.6600 C.ar   71  TYR71      -0.0009
     27  CE1      -13.0300    6.2390   25.0690 C.ar   71  TYR71       0.0417
     28  CE2      -12.2600    7.1280   22.9750 C.ar   71  TYR71       0.0417
     29  CZ       -13.0740    6.2610   23.6870 C.ar   71  TYR71       0.1957
     30  OH       -13.9410    5.4150   23.0330 O.3    71  TYR71      -0.2866
     31  N         -7.9640    9.3930   28.0540 N.am   72  ALA72      -0.1980
     32  CA        -7.0800   10.4140   28.6100 C.3    72  ALA72       0.1597
     33  C         -6.6170   10.0690   30.0140 C.2    72  ALA72       0.2287
     34  O         -7.4360    9.7490   30.8770 O.2    72  ALA72      -0.2864
     35  CB        -7.7660   11.7710   28.6010 C.3    72  ALA72       0.0319
     36  N         -5.3410    6.1320   24.5220 N.3    96  ASP96      -0.1239
     37  CA        -5.0400    7.2440   23.6220 C.3    96  ASP96       0.1674
     38  C         -3.9030    8.0790   24.2070 C.2    96  ASP96       0.2266
     39  O         -3.8350    8.2750   25.4160 O.2    96  ASP96      -0.2867
     40  CB        -6.2770    8.1180   23.3980 C.3    96  ASP96       0.1410
     41  CG        -7.3880    7.3810   22.6790 C.2    96  ASP96       0.3668
     42  OD1       -8.0670    6.5490   23.3150 O.co2  96  ASP96      -0.2456
     43  OD2       -7.5880    7.6200   21.4700 O.co2  96  ASP96      -0.2456
     44  N         -3.3390   11.2540   23.1170 N.3    98  SER98      -0.1202
     45  CA        -3.8170   12.6290   23.0460 C.3    98  SER98       0.2020
     46  C         -4.8600   12.9270   24.1220 C.2    98  SER98       0.2619
     47  O         -5.3240   12.0330   24.8330 O.2    98  SER98      -0.2717
     48  CB        -4.4230   12.8740   21.6650 C.3    98  SER98       0.2103
     49  OG        -5.4760   11.9600   21.4080 O.3    98  SER98      -0.2182
     50  N         -5.2180   14.1990   24.2330 N.am   99  GLU99      -0.1965
     51  CA        -6.3250   14.6330   25.0850 C.3    99  GLU99       0.1718
     52  C         -7.0060   15.8010   24.3680 C.2    99  GLU99       0.2458
     53  O         -6.4220   16.3620   23.4410 O.2    99  GLU99      -0.2730
     54  CB        -5.8200   14.9790   26.4970 C.3    99  GLU99       0.0428
     55  CG        -4.7740   16.0860   26.5750 C.3    99  GLU99       0.1163
     56  CD        -5.3120   17.4160   27.0760 C.2    99  GLU99       0.3649
     57  OE1       -6.5170   17.6990   26.9010 O.co2  99  GLU99      -0.2457
     58  OE2       -4.5140   18.1910   27.6480 O.co2  99  GLU99      -0.2457
     59  N         -8.2460   16.1580   24.7610 N.am  100  PRO100     -0.2727
     60  CA        -9.0130   17.1280   23.9600 C.3   100  PRO100      0.1402
     61  C         -8.3110   18.4530   23.6390 C.2   100  PRO100      0.2269
     62  O         -8.4960   18.9900   22.5420 O.2   100  PRO100     -0.2865
     63  CB       -10.2630   17.3670   24.8120 C.3   100  PRO100      0.0296
     64  CG       -10.4270   16.1110   25.5830 C.3   100  PRO100      0.0237
     65  CD        -9.0280   15.6830   25.9180 C.3   100  PRO100      0.0939
     66  N         -4.2630   17.6100   20.9450 N.3   103  SER103     -0.1202
     67  CA        -4.4660   16.6260   19.8830 C.3   103  SER103      0.2020
     68  C         -4.0520   17.2450   18.5640 C.2   103  SER103      0.2619
     69  O         -3.9190   18.4670   18.4590 O.2   103  SER103     -0.2717
     70  CB        -5.9420   16.2490   19.7730 C.3   103  SER103      0.2103
     71  OG        -6.4020   15.5500   20.9120 O.3   103  SER103     -0.2182
     72  N         -3.8850   16.4070   17.5470 N.am  104  ILE104     -0.1965
     73  CA        -3.7030   16.9050   16.1850 C.3   104  ILE104      0.1727
     74  C         -5.0360   17.5210   15.7570 C.2   104  ILE104      0.2616
     75  O         -6.0580   16.8420   15.7200 O.2   104  ILE104     -0.2715
     76  CB        -3.2510   15.7910   15.2180 C.3   104  ILE104      0.0290
     77  CG1       -1.8550   15.2920   15.6200 C.3   104  ILE104      0.0022
     78  CG2       -3.2320   16.3010   13.7770 C.3   104  ILE104      0.0023
     79  CD1       -1.4610   13.9720   14.9970 C.3   104  ILE104      0.0001
     80  N         -5.0120   18.8200   15.4730 N.am  105  ASN105     -0.1958
     81  CA        -6.2120   19.5780   15.1360 C.3   105  ASN105      0.1819
     82  C         -6.6120   19.2630   13.7040 C.2   105  ASN105      0.2621
     83  O         -5.9340   19.6770   12.7790 O.2   105  ASN105     -0.2715
     84  CB        -5.9250   21.0810   15.2970 C.3   105  ASN105      0.1195
     85  CG        -7.1580   21.9590   15.1140 C.2   105  ASN105      0.2630
     86  OD1       -8.2220   21.5020   14.6940 O.2   105  ASN105     -0.2716
     87  ND2       -7.0070   23.2430   15.4240 N.am  105  ASN105     -0.0877
     88  N         -7.7170   18.5470   13.5110 N.am  106  ARG106     -0.1963
     89  CA        -8.1430   18.1810   12.1510 C.3   106  ARG106      0.1729
     90  C         -8.4960   19.3970   11.2660 C.2   106  ARG106      0.2616
     91  O         -8.4280   19.2980   10.0410 O.2   106  ARG106     -0.2715
     92  CB        -9.2950   17.1690   12.1810 C.3   106  ARG106      0.0348
     93  CG       -10.6370   17.6990   12.6740 C.3   106  ARG106      0.0492
     94  CD       -11.7460   16.6750   12.4910 C.3   106  ARG106      0.2205
     95  NE       -11.6790   15.5620   13.4440 N.pl3 106  ARG106     -0.0865
     96  CZ       -12.2000   15.5570   14.6760 C.cat 106  ARG106      0.5346
     97  NH1      -12.8350   16.6170   15.1770 N.pl3 106  ARG106      0.1354
     98  NH2      -12.0800   14.4660   15.4290 N.pl3 106  ARG106      0.1354
     99  N         -8.8560   20.5210   11.8970 N.am  107  GLU107     -0.1977
    100  CA        -9.1630   21.7900   11.2040 C.3   107  GLU107      0.1602
    101  C         -7.9290   22.6410   10.8530 C.2   107  GLU107      0.2287
    102  O         -8.0350   23.6000   10.0810 O.2   107  GLU107     -0.2864
    103  CB       -10.0920   22.6530   12.0730 C.3   107  GLU107      0.0415
    104  CG       -11.3860   21.9850   12.5270 C.3   107  GLU107      0.1163
    105  CD       -12.2730   21.5470   11.3750 C.2   107  GLU107      0.3649
    106  OE1      -12.3800   22.2960   10.3780 O.co2 107  GLU107     -0.2457
    107  OE2      -12.8780   20.4580   11.4790 O.co2 107  GLU107     -0.2457
    108  N         -3.9200    8.6740   17.5290 N.3   138  GLY138     -0.1210
    109  CA        -4.9570    9.6020   17.1000 C.3   138  GLY138      0.1956
    110  C         -6.3060    8.9220   17.1560 C.2   138  GLY138      0.2612
    111  O         -6.3870    7.6890   17.1720 O.2   138  GLY138     -0.2717
    112  N         -7.3590    9.7290   17.2210 N.am  139  ASN139     -0.1960
    113  CA        -8.7300    9.2350   17.1870 C.3   139  ASN139      0.1819
    114  C         -9.5320   10.0830   16.2160 C.2   139  ASN139      0.2621
    115  O         -9.7470   11.2720   16.4640 O.2   139  ASN139     -0.2715
    116  CB        -9.3630    9.2710   18.5780 C.3   139  ASN139      0.1195
    117  CG       -10.7520    8.6620   18.5970 C.2   139  ASN139      0.2630
    118  OD1      -10.9220    7.4800   18.2970 O.2   139  ASN139     -0.2716
    119  ND2      -11.7530    9.4620   18.9420 N.am  139  ASN139     -0.0877
    120  N         -9.9350    9.4840   15.0970 N.am  140  GLU140     -0.1963
    121  CA       -10.8220   10.1370   14.1300 C.3   140  GLU140      0.1733
    122  C        -10.3300   11.5250   13.7430 C.2   140  GLU140      0.2616
    123  O        -11.0870   12.4960   13.8000 O.2   140  GLU140     -0.2715
    124  CB       -12.2400   10.2380   14.7000 C.3   140  GLU140      0.0429
    125  CG       -12.7940    8.9130   15.1770 C.3   140  GLU140      0.1163
    126  CD       -14.2460    8.9880   15.5950 C.2   140  GLU140      0.3649
    127  OE1      -14.7750   10.1010   15.8060 O.co2 140  GLU140     -0.2457
    128  OE2      -14.8570    7.9160   15.7060 O.co2 140  GLU140     -0.2457
    129  N         -9.0580   11.6200   13.3670 N.am  141  VAL141     -0.1977
    130  CA        -8.4670   12.9200   13.0530 C.3   141  VAL141      0.1596
    131  C         -9.0640   13.3340   11.7060 C.2   141  VAL141      0.2287
    132  O         -9.9380   14.2020   11.6650 O.2   141  VAL141     -0.2864
    133  CB        -6.9240   12.8910   13.0960 C.3   141  VAL141      0.0276
    134  CG1       -6.3630   14.2820   12.8510 C.3   141  VAL141      0.0022
    135  CG2       -6.4390   12.3620   14.4450 C.3   141  VAL141      0.0022
    136  N        -20.4560    1.5120   14.4520 N.3   208  TYR208     -0.1241
    137  CA       -21.8410    1.6370   14.9320 C.3   208  TYR208      0.1605
    138  C        -22.8920    1.1900   13.9030 C.2   208  TYR208      0.2264
    139  O        -24.0620    1.5800   13.9900 O.2   208  TYR208     -0.2867
    140  CB       -22.0890    3.0840   15.3600 C.3   208  TYR208      0.0534
    141  CG       -21.2950    3.4790   16.5780 C.ar  208  TYR208     -0.0201
    142  CD1      -19.9930    3.9670   16.4620 C.ar  208  TYR208     -0.0009
    143  CD2      -21.8400    3.3530   17.8520 C.ar  208  TYR208     -0.0009
    144  CE1      -19.2630    4.3300   17.5860 C.ar  208  TYR208      0.0417
    145  CE2      -21.1200    3.7090   18.9810 C.ar  208  TYR208      0.0417
    146  CZ       -19.8350    4.1990   18.8450 C.ar  208  TYR208      0.1957
    147  OH       -19.1380    4.5500   19.9750 O.3   208  TYR208     -0.2866
    148  N        -14.5660    1.0650   19.1960 N.3   239  GLU239     -0.1245
    149  CA       -15.8550    1.3310   19.8300 C.3   239  GLU239      0.1567
    150  C        -16.9230    0.5110   19.1070 C.2   239  GLU239      0.2260
    151  O        -16.8310    0.2950   17.8960 O.2   239  GLU239     -0.2867
    152  CB       -16.2410    2.8080   19.7210 C.3   239  GLU239      0.0388
    153  CG       -15.4000    3.7710   20.5430 C.3   239  GLU239      0.1160
    154  CD       -15.6970    5.2310   20.2450 C.2   239  GLU239      0.3649
    155  OE1      -16.6780    5.5310   19.5350 O.co2 239  GLU239     -0.2457
    156  OE2      -14.9390    6.0890   20.7280 O.co2 239  GLU239     -0.2457
    157  N        -18.9200    0.8630   23.8240 N.3   271  TYR271     -0.1227
    158  CA       -18.9400    2.2440   24.2880 C.3   271  TYR271      0.1736
    159  C        -20.2710    2.4770   25.0110 C.2   271  TYR271      0.2595
    160  O        -21.3110    2.4190   24.3570 O.2   271  TYR271     -0.2718
    161  CB       -18.7880    3.2200   23.1120 C.3   271  TYR271      0.0548
    162  CG       -18.6620    4.6450   23.5870 C.ar  271  TYR271     -0.0200
    163  CD1      -19.7940    5.4400   23.7770 C.ar  271  TYR271     -0.0009
    164  CD2      -17.4150    5.1850   23.9040 C.ar  271  TYR271     -0.0009
    165  CE1      -19.6840    6.7390   24.2480 C.ar  271  TYR271      0.0417
    166  CE2      -17.2970    6.4830   24.3770 C.ar  271  TYR271      0.0417
    167  CZ       -18.4350    7.2550   24.5500 C.ar  271  TYR271      0.1957
    168  OH       -18.3240    8.5450   25.0130 O.3   271  TYR271     -0.2866
    169  N        -20.2950    2.7270   26.3260 N.am  272  MET272     -0.1979
    170  CA       -19.1520    2.6790   27.2510 C.3   272  MET272      0.1605
    171  C        -19.6510    2.2930   28.6510 C.2   272  MET272      0.2287
    172  O        -20.8310    2.0180   28.8340 O.2   272  MET272     -0.2864
    173  CB       -18.4180    4.0310   27.2800 C.3   272  MET272      0.0413
    174  CG       -19.1210    5.1560   28.0440 C.3   272  MET272      0.0598
    175  SD       -18.0370    6.2850   28.9510 S.3   272  MET272     -0.1393
    176  CE       -16.9430    5.1860   29.8030 C.3   272  MET272      0.0692
    177  N        -23.5490    9.1850   30.7460 N.3   276  GLU276     -0.1245
    178  CA       -23.2810   10.6240   30.8500 C.3   276  GLU276      0.1567
    179  C        -24.2890   11.4300   30.0330 C.2   276  GLU276      0.2260
    180  O        -23.9190   12.1820   29.1290 O.2   276  GLU276     -0.2867
    181  CB       -21.8490   10.9190   30.4010 C.3   276  GLU276      0.0388
    182  CG       -20.7920   10.2160   31.2360 C.3   276  GLU276      0.1160
    183  CD       -19.3850   10.5620   30.8060 C.2   276  GLU276      0.3649
    184  OE1      -18.5520   10.8570   31.6890 O.co2 276  GLU276     -0.2457
    185  OE2      -19.1150   10.5380   29.5870 O.co2 276  GLU276     -0.2457
    186  N        -26.2080   10.5660   27.7380 N.3   278  ASN278     -0.1240
    187  CA       -26.0390   10.2350   26.3160 C.3   278  ASN278      0.1653
    188  C        -26.6200    8.8730   25.9030 C.2   278  ASN278      0.2266
    189  O        -26.5540    8.5080   24.7280 O.2   278  ASN278     -0.2867
    190  CB       -24.5470   10.3110   25.9370 C.3   278  ASN278      0.1155
    191  CG       -23.6610    9.3850   26.7730 C.2   278  ASN278      0.2627
    192  OD1      -24.1340    8.6520   27.6470 O.2   278  ASN278     -0.2716
    193  ND2      -22.3600    9.4260   26.5090 N.am  278  ASN278     -0.0877
    194  N        -25.3940    5.9510   26.4520 N.3   280  TYR280     -0.1241
    195  CA       -24.3320    5.0000   26.0690 C.3   280  TYR280      0.1605
    196  C        -23.7350    4.2140   27.2410 C.2   280  TYR280      0.2264
    197  O        -22.9320    3.3140   27.0120 O.2   280  TYR280     -0.2867
    198  CB       -23.2060    5.7130   25.3000 C.3   280  TYR280      0.0534
    199  CG       -23.5630    6.0230   23.8660 C.ar  280  TYR280     -0.0201
    200  CD1      -23.6490    5.0060   22.9130 C.ar  280  TYR280     -0.0009
    201  CD2      -23.8190    7.3310   23.4570 C.ar  280  TYR280     -0.0009
    202  CE1      -23.9840    5.2840   21.5950 C.ar  280  TYR280      0.0417
    203  CE2      -24.1520    7.6200   22.1410 C.ar  280  TYR280      0.0417
    204  CZ       -24.2330    6.5940   21.2150 C.ar  280  TYR280      0.1957
    205  OH       -24.5670    6.8790   19.9100 O.3   280  TYR280     -0.2866
@<TRIPOS>BOND
     1    91    90    2
     2   102   101    2
     3   106   105   ar
     4   101   100    1
     5   100    99    1
     6   100   103    1
     7    90    99   am
     8    90    89    1
     9   105   107   ar
    10   105   104    1
    11   132   131    2
    12   131   130    1
    13   103   104    1
    14    89    92    1
    15    89    88    1
    16    92    93    1
    17    94    93    1
    18    94    95    1
    19    83    82    2
    20   134   133    1
    21   130   133    1
    22   130   129    1
    23   133   135    1
    24   129   122   am
    25    95    96    2
    26    88    82   am
    27    82    81    1
    28   122   123    2
    29   122   121    1
    30    78    76    1
    31   138   139    2
    32   138   137    1
    33   121   124    1
    34   121   120    1
    35   136   137    1
    36    96    97    1
    37    96    98    1
    38    86    85    2
    39   124   125    1
    40   137   140    1
    41    79    77    1
    42   120   114   am
    43    85    84    1
    44    85    87   am
    45    81    84    1
    46    81    80    1
    47   125   126    1
    48    76    77    1
    49    76    73    1
    50   140   141    1
    51    80    74   am
    52   126   128   ar
    53   126   127   ar
    54    75    74    2
    55    74    73    1
    56    73    72    1
    57   114   115    2
    58   114   113    1
    59   142   141   ar
    60   142   144   ar
    61   141   143   ar
    62   109   110    1
    63   109   108    1
    64   110   111    2
    65   110   112   am
    66   113   112    1
    67   113   116    1
    68    72    68   am
    69   144   146   ar
    70   143   145   ar
    71   151   150    2
    72   118   117    2
    73    69    68    2
    74    68    67    1
    75   116   117    1
    76   117   119   am
    77   146   145   ar
    78   146   147    1
    79   150   149    1
    80   148   149    1
    81   155   154   ar
    82   152   149    1
    83   152   153    1
    84    70    67    1
    85    70    71    1
    86    67    66    1
    87   205   204    1
    88   154   153    1
    89   154   156   ar
    90   204   202   ar
    91   204   203   ar
    92    49    48    1
    93    43    41   ar
    94   202   200   ar
    95    48    45    1
    96   203   201   ar
    97    62    61    2
    98    41    42   ar
    99    41    40    1
   100   200   199   ar
   101    28    26   ar
   102    28    29   ar
   103    30    29    1
   104    45    44    1
   105    45    46    1
   106   161   162    1
   107   161   158    1
   108    40    37    1
   109    53    52    2
   110   201   199   ar
   111   162   163   ar
   112   162   164   ar
   113    37    38    1
   114    37    36    1
   115    61    60    1
   116    26    24   ar
   117    29    27   ar
   118   163   165   ar
   119   157   158    1
   120   199   198    1
   121   164   166   ar
   122    60    59    1
   123    60    63    1
   124    46    50   am
   125    46    47    2
   126    38    39    2
   127    50    51    1
   128   165   167   ar
   129   158   159    1
   130   160   159    2
   131    52    59   am
   132    52    51    1
   133   166   167   ar
   134   167   168    1
   135   189   188    2
   136    59    65    1
   137    63    64    1
   138   159   169   am
   139    24    25   ar
   140    24    23    1
   141    27    25   ar
   142    51    54    1
   143   198   195    1
   144    64    65    1
   145    23    20    1
   146   188   187    1
   147    22    21    2
   148   190   187    1
   149   190   191    1
   150   195   194    1
   151   195   196    1
   152    20    21    1
   153    20    19    1
   154   187   186    1
   155   169   170    1
   156    54    55    1
   157   193   191   am
   158    55    56    1
   159    21    31   am
   160   191   192    2
   161    57    56   ar
   162   197   196    2
   163    56    58   ar
   164   170   173    1
   165   170   171    1
   166   173   174    1
   167   174   175    1
   168    31    32    1
   169    35    32    1
   170    32    33    1
   171   171   172    2
   172    17    16    2
   173   175   176    1
   174   180   179    2
   175     6     5    1
   176     6     7    1
   177     8     7    2
   178     5     2    1
   179   185   183   ar
   180     7     9   am
   181    16    18   am
   182    16    15    1
   183    33    34    2
   184   179   178    1
   185   181   178    1
   186   181   182    1
   187   177   178    1
   188    14    15    1
   189    14    11    1
   190   183   182    1
   191   183   184   ar
   192     2     1    1
   193     2     3    1
   194     4     3    2
   195    11    10    1
   196    11    12    1
   197    12    13    2
